data_str_m1_o5_o17_pcu_sym.32
_audit_creation_date              2020-01-03
_audit_creation_method            'Materials Studio'
_symmetry_space_group_name_H-M    'P1'
_symmetry_Int_Tables_number       1
_symmetry_cell_setting            triclinic
loop_
_symmetry_equiv_pos_as_xyz
  x,y,z
_cell_length_a                    31.8000
_cell_length_b                    31.7999
_cell_length_c                    34.4801
_cell_angle_alpha                 89.9999
_cell_angle_beta                  89.9999
_cell_angle_gamma                 89.9942
loop_
_atom_site_label
_atom_site_type_symbol
_atom_site_fract_x
_atom_site_fract_y
_atom_site_fract_z
_atom_site_U_iso_or_equiv
_atom_site_adp_type
_atom_site_occupancy
Zn1    Zn    0.20053  -0.00000   0.21730   0.00000  Uiso   1.00
Zn2    Zn    0.29948  -0.00000   0.78270   0.00000  Uiso   1.00
Zn3    Zn    0.00000   0.20052   0.21730   0.00000  Uiso   1.00
Zn4    Zn    0.00000   0.29947   0.78270   0.00000  Uiso   1.00
Zn5    Zn    0.29948  -0.00000   0.21730   0.00000  Uiso   1.00
Zn6    Zn    0.20053  -0.00000   0.78270   0.00000  Uiso   1.00
Zn7    Zn    0.00000   0.29947   0.21730   0.00000  Uiso   1.00
Zn8    Zn    0.00000   0.20052   0.78270   0.00000  Uiso   1.00
Zn9    Zn    0.45053   0.25000   0.71730   0.00000  Uiso   1.00
Zn10   Zn    0.04948   0.25000   0.28270   0.00000  Uiso   1.00
Zn11   Zn    0.25000   0.45052   0.71730   0.00000  Uiso   1.00
Zn12   Zn    0.25000   0.04948   0.28270   0.00000  Uiso   1.00
Zn13   Zn    0.04948   0.25000   0.71730   0.00000  Uiso   1.00
Zn14   Zn    0.45053   0.25000   0.28270   0.00000  Uiso   1.00
Zn15   Zn    0.25000   0.04948   0.71730   0.00000  Uiso   1.00
Zn16   Zn    0.25000   0.45052   0.28270   0.00000  Uiso   1.00
O17    O     0.25000  -0.00000   0.25000   0.00000  Uiso   1.00
O18    O     0.25000  -0.00000   0.75000   0.00000  Uiso   1.00
O19    O     0.00000   0.25000   0.25000   0.00000  Uiso   1.00
O20    O     0.00000   0.25000   0.75000   0.00000  Uiso   1.00
O21    O     0.25000   0.46538   0.33749   0.00000  Uiso   1.00
O22    O     0.25000   0.03462   0.66251   0.00000  Uiso   1.00
O23    O     0.03462   0.25000   0.33749   0.00000  Uiso   1.00
O24    O     0.46539   0.25000   0.66251   0.00000  Uiso   1.00
O25    O     0.25000   0.03462   0.33749   0.00000  Uiso   1.00
O26    O     0.25000   0.46538   0.66251   0.00000  Uiso   1.00
O27    O     0.46539   0.25000   0.33749   0.00000  Uiso   1.00
O28    O     0.03462   0.25000   0.66251   0.00000  Uiso   1.00
O29    O     0.00000   0.21539   0.83749   0.00000  Uiso   1.00
O30    O     0.00000   0.28461   0.16251   0.00000  Uiso   1.00
O31    O     0.28462  -0.00000   0.83749   0.00000  Uiso   1.00
O32    O     0.21539   0.00000   0.16251   0.00000  Uiso   1.00
O33    O     0.00000   0.28461   0.83749   0.00000  Uiso   1.00
O34    O     0.00000   0.21539   0.16251   0.00000  Uiso   1.00
O35    O     0.21539  -0.00000   0.83749   0.00000  Uiso   1.00
O36    O     0.28462   0.00000   0.16251   0.00000  Uiso   1.00
O37    O     0.20127   0.08332   0.27298   0.00000  Uiso   1.00
O38    O     0.29874   0.41668   0.72702   0.00000  Uiso   1.00
O39    O     0.41668   0.20127   0.27298   0.00000  Uiso   1.00
O40    O     0.08332   0.29873   0.72702   0.00000  Uiso   1.00
O41    O     0.29874   0.41668   0.27298   0.00000  Uiso   1.00
O42    O     0.20127   0.08332   0.72702   0.00000  Uiso   1.00
O43    O     0.08332   0.29873   0.27298   0.00000  Uiso   1.00
O44    O     0.41668   0.20127   0.72702   0.00000  Uiso   1.00
O45    O     0.20127   0.41668   0.72702   0.00000  Uiso   1.00
O46    O     0.29874   0.08332   0.27298   0.00000  Uiso   1.00
O47    O     0.41668   0.29873   0.72702   0.00000  Uiso   1.00
O48    O     0.08332   0.20126   0.27298   0.00000  Uiso   1.00
O49    O     0.29874   0.08332   0.72702   0.00000  Uiso   1.00
O50    O     0.20127   0.41668   0.27298   0.00000  Uiso   1.00
O51    O     0.08332   0.20126   0.72702   0.00000  Uiso   1.00
O52    O     0.41668   0.29873   0.27298   0.00000  Uiso   1.00
O53    O     0.45127   0.33332   0.77298   0.00000  Uiso   1.00
O54    O     0.04874   0.16668   0.22702   0.00000  Uiso   1.00
O55    O     0.16668   0.45126   0.77298   0.00000  Uiso   1.00
O56    O     0.33332   0.04874   0.22702   0.00000  Uiso   1.00
O57    O     0.04874   0.16668   0.77298   0.00000  Uiso   1.00
O58    O     0.45127   0.33332   0.22702   0.00000  Uiso   1.00
O59    O     0.33332   0.04874   0.77298   0.00000  Uiso   1.00
O60    O     0.16668   0.45126   0.22702   0.00000  Uiso   1.00
O61    O     0.45127   0.16668   0.22702   0.00000  Uiso   1.00
O62    O     0.04874   0.33332   0.77298   0.00000  Uiso   1.00
O63    O     0.16668   0.04874   0.22702   0.00000  Uiso   1.00
O64    O     0.33332   0.45126   0.77298   0.00000  Uiso   1.00
O65    O     0.04874   0.33332   0.22702   0.00000  Uiso   1.00
O66    O     0.45127   0.16668   0.77298   0.00000  Uiso   1.00
O67    O     0.33332   0.45126   0.22702   0.00000  Uiso   1.00
O68    O     0.16668   0.04874   0.77298   0.00000  Uiso   1.00
C69    C     0.25000  -0.00000   0.35578   0.00000  Uiso   1.00
C70    C     0.25000  -0.00000   0.64416   0.00000  Uiso   1.00
C71    C     0.00000   0.25000   0.35584   0.00000  Uiso   1.00
C72    C     0.00000   0.25000   0.64422   0.00000  Uiso   1.00
C73    C     0.00000   0.25000   0.85585   0.00000  Uiso   1.00
C74    C    -0.00000   0.25000   0.14423   0.00000  Uiso   1.00
C75    C     0.25000  -0.00000   0.85578   0.00000  Uiso   1.00
C76    C     0.25000  -0.00000   0.14415   0.00000  Uiso   1.00
C77    C     0.16997   0.08002   0.25001   0.00000  Uiso   1.00
C78    C     0.33003   0.41998   0.74999   0.00000  Uiso   1.00
C79    C     0.41997   0.16998   0.24999   0.00000  Uiso   1.00
C80    C     0.08003   0.33002   0.75001   0.00000  Uiso   1.00
C81    C     0.33003   0.41998   0.25001   0.00000  Uiso   1.00
C82    C     0.16997   0.08002   0.74999   0.00000  Uiso   1.00
C83    C     0.08003   0.33002   0.24999   0.00000  Uiso   1.00
C84    C     0.41997   0.16998   0.75001   0.00000  Uiso   1.00
C85    C     0.16998   0.41997   0.75001   0.00000  Uiso   1.00
C86    C     0.33002   0.08003   0.24999   0.00000  Uiso   1.00
C87    C     0.41998   0.33003   0.74999   0.00000  Uiso   1.00
C88    C     0.08002   0.16997   0.25001   0.00000  Uiso   1.00
C89    C     0.33002   0.08003   0.75001   0.00000  Uiso   1.00
C90    C     0.16998   0.41997   0.24999   0.00000  Uiso   1.00
C91    C     0.08002   0.16997   0.74999   0.00000  Uiso   1.00
C92    C     0.41998   0.33003   0.25001   0.00000  Uiso   1.00
C93    C     0.13834   0.38832   0.24998   0.00000  Uiso   1.00
C94    C     0.36166   0.11168   0.75001   0.00000  Uiso   1.00
C95    C     0.11166   0.13832   0.25001   0.00000  Uiso   1.00
C96    C     0.38834   0.36168   0.74998   0.00000  Uiso   1.00
C97    C     0.36166   0.11168   0.24998   0.00000  Uiso   1.00
C98    C     0.13834   0.38832   0.75001   0.00000  Uiso   1.00
C99    C     0.38834   0.36168   0.25001   0.00000  Uiso   1.00
C100   C     0.11166   0.13832   0.74998   0.00000  Uiso   1.00
C101   C     0.13832   0.11166   0.74999   0.00000  Uiso   1.00
C102   C     0.36168   0.38834   0.25001   0.00000  Uiso   1.00
C103   C     0.11168   0.36166   0.75001   0.00000  Uiso   1.00
C104   C     0.38832   0.13834   0.24998   0.00000  Uiso   1.00
C105   C     0.36168   0.38834   0.74999   0.00000  Uiso   1.00
C106   C     0.13832   0.11166   0.25001   0.00000  Uiso   1.00
C107   C     0.38832   0.13834   0.75001   0.00000  Uiso   1.00
C108   C     0.11168   0.36166   0.24998   0.00000  Uiso   1.00
C109   C     0.48513   0.28536   0.41811   0.00000  Uiso   1.00
C110   C     0.00307   0.21179   0.58213   0.00000  Uiso   1.00
C111   C     0.21181   0.00326   0.41787   0.00000  Uiso   1.00
C112   C     0.28530   0.48501   0.58188   0.00000  Uiso   1.00
C113   C     0.01487   0.21464   0.41811   0.00000  Uiso   1.00
C114   C     0.49693   0.28821   0.58213   0.00000  Uiso   1.00
C115   C     0.28819   0.49674   0.41787   0.00000  Uiso   1.00
C116   C     0.21470   0.01500   0.58188   0.00000  Uiso   1.00
C117   C     0.25323   0.03819   0.91788   0.00000  Uiso   1.00
C118   C     0.23488   0.46475   0.08188   0.00000  Uiso   1.00
C119   C     0.46493   0.23447   0.91812   0.00000  Uiso   1.00
C120   C     0.03814   0.25382   0.08213   0.00000  Uiso   1.00
C121   C     0.24677   0.46180   0.91788   0.00000  Uiso   1.00
C122   C     0.26513   0.03525   0.08188   0.00000  Uiso   1.00
C123   C     0.03508   0.26551   0.91813   0.00000  Uiso   1.00
C124   C     0.46186   0.24617   0.08213   0.00000  Uiso   1.00
C125   C     0.00000   0.25000   0.39816   0.00000  Uiso   1.00
C126   C     0.00000   0.25000   0.60204   0.00000  Uiso   1.00
C127   C     0.25000  -0.00000   0.39796   0.00000  Uiso   1.00
C128   C     0.25000   0.00000   0.60184   0.00000  Uiso   1.00
C129   C     0.25000  -0.00000   0.89796   0.00000  Uiso   1.00
C130   C     0.25000  -0.00000   0.10183   0.00000  Uiso   1.00
C131   C     0.00000   0.25000   0.89817   0.00000  Uiso   1.00
C132   C     0.00000   0.25000   0.10205   0.00000  Uiso   1.00
C133   C     0.01116   0.21281   0.45902   0.00000  Uiso   1.00
C134   C     0.49268   0.28809   0.54126   0.00000  Uiso   1.00
C135   C     0.28806   0.49251   0.45874   0.00000  Uiso   1.00
C136   C     0.21285   0.01129   0.54098   0.00000  Uiso   1.00
C137   C     0.48884   0.28719   0.45902   0.00000  Uiso   1.00
C138   C     0.00733   0.21191   0.54126   0.00000  Uiso   1.00
C139   C     0.21194   0.00749   0.45874   0.00000  Uiso   1.00
C140   C     0.28715   0.48871   0.54098   0.00000  Uiso   1.00
C141   C     0.24237   0.46199   0.95873   0.00000  Uiso   1.00
C142   C     0.26152   0.03709   0.04097   0.00000  Uiso   1.00
C143   C     0.03696   0.26193   0.95904   0.00000  Uiso   1.00
C144   C     0.46211   0.24183   0.04128   0.00000  Uiso   1.00
C145   C     0.25765   0.03800   0.95873   0.00000  Uiso   1.00
C146   C     0.23850   0.46290   0.04097   0.00000  Uiso   1.00
C147   C     0.46305   0.23805   0.95904   0.00000  Uiso   1.00
C148   C     0.03790   0.25815   0.04128   0.00000  Uiso   1.00
C149   C     0.00000   0.25000   0.47958   0.00000  Uiso   1.00
C150   C     0.00000   0.25000   0.52068   0.00000  Uiso   1.00
C151   C     0.25000   0.00000   0.47932   0.00000  Uiso   1.00
C152   C     0.25000   0.00000   0.52042   0.00000  Uiso   1.00
C153   C     0.25001  -0.00000   0.97932   0.00000  Uiso   1.00
C154   C     0.25001  -0.00000   0.02041   0.00000  Uiso   1.00
C155   C     0.00000   0.24999   0.97959   0.00000  Uiso   1.00
C156   C     0.00000   0.24999   0.02069   0.00000  Uiso   1.00
C157   C     0.01883   0.17515   0.47988   0.00000  Uiso   1.00
C158   C     0.48192   0.32499   0.52051   0.00000  Uiso   1.00
C159   C     0.32492   0.48163   0.47949   0.00000  Uiso   1.00
C160   C     0.17522   0.01910   0.52012   0.00000  Uiso   1.00
C161   C     0.48117   0.32485   0.47988   0.00000  Uiso   1.00
C162   C     0.01808   0.17501   0.52051   0.00000  Uiso   1.00
C163   C     0.17508   0.01837   0.47949   0.00000  Uiso   1.00
C164   C     0.32478   0.48090   0.52012   0.00000  Uiso   1.00
C165   C     0.23114   0.42522   0.97944   0.00000  Uiso   1.00
C166   C     0.26965   0.07464   0.02007   0.00000  Uiso   1.00
C167   C     0.07441   0.27049   0.97993   0.00000  Uiso   1.00
C168   C     0.42548   0.23016   0.02056   0.00000  Uiso   1.00
C169   C     0.26889   0.07477   0.97943   0.00000  Uiso   1.00
C170   C     0.23038   0.42535   0.02007   0.00000  Uiso   1.00
C171   C     0.42560   0.22947   0.97993   0.00000  Uiso   1.00
C172   C     0.07454   0.26979   0.02056   0.00000  Uiso   1.00
N173   N     0.46486   0.31830   0.39656   0.00000  Uiso   1.00
O174   O     0.48526   0.33867   0.36977   0.00000  Uiso   1.00
O175   O     0.42461   0.32429   0.40047   0.00000  Uiso   1.00
N176   N     0.49857   0.17322   0.60348   0.00000  Uiso   1.00
O177   O     0.02479   0.16372   0.63111   0.00000  Uiso   1.00
O178   O     0.46562   0.14973   0.59791   0.00000  Uiso   1.00
N179   N     0.17322   0.49898   0.39651   0.00000  Uiso   1.00
O180   O     0.16382   0.02531   0.36895   0.00000  Uiso   1.00
O181   O     0.14961   0.46609   0.40198   0.00000  Uiso   1.00
N182   N     0.31818   0.46462   0.60344   0.00000  Uiso   1.00
O183   O     0.33863   0.48496   0.63022   0.00000  Uiso   1.00
O184   O     0.32404   0.42436   0.59953   0.00000  Uiso   1.00
N185   N     0.03514   0.18170   0.39656   0.00000  Uiso   1.00
O186   O     0.01474   0.16132   0.36977   0.00000  Uiso   1.00
O187   O     0.07539   0.17571   0.40047   0.00000  Uiso   1.00
N188   N     0.00143   0.32678   0.60348   0.00000  Uiso   1.00
O189   O     0.47521   0.33628   0.63111   0.00000  Uiso   1.00
O190   O     0.03438   0.35027   0.59791   0.00000  Uiso   1.00
N191   N     0.32678   0.00102   0.39651   0.00000  Uiso   1.00
O192   O     0.33618   0.47469   0.36895   0.00000  Uiso   1.00
O193   O     0.35039   0.03391   0.40198   0.00000  Uiso   1.00
N194   N     0.18182   0.03538   0.60344   0.00000  Uiso   1.00
O195   O     0.16137   0.01504   0.63022   0.00000  Uiso   1.00
O196   O     0.17597   0.07564   0.59953   0.00000  Uiso   1.00
N197   N     0.24865   0.07682   0.89662   0.00000  Uiso   1.00
O198   O     0.27445   0.08618   0.86861   0.00000  Uiso   1.00
O199   O     0.21614   0.10072   0.90289   0.00000  Uiso   1.00
N200   N     0.21448   0.43193   0.10346   0.00000  Uiso   1.00
O201   O     0.23492   0.41128   0.13006   0.00000  Uiso   1.00
O202   O     0.17413   0.42642   0.09992   0.00000  Uiso   1.00
N203   N     0.43231   0.21377   0.89653   0.00000  Uiso   1.00
O204   O     0.41140   0.23404   0.87000   0.00000  Uiso   1.00
O205   O     0.42728   0.17334   0.89998   0.00000  Uiso   1.00
N206   N     0.07682   0.24991   0.10342   0.00000  Uiso   1.00
O207   O     0.08585   0.27607   0.13123   0.00000  Uiso   1.00
O208   O     0.10108   0.21761   0.09744   0.00000  Uiso   1.00
N209   N     0.25134   0.42317   0.89662   0.00000  Uiso   1.00
O210   O     0.22552   0.41382   0.86862   0.00000  Uiso   1.00
O211   O     0.28386   0.39929   0.90285   0.00000  Uiso   1.00
N212   N     0.28551   0.06808   0.10347   0.00000  Uiso   1.00
O213   O     0.26506   0.08873   0.13005   0.00000  Uiso   1.00
O214   O     0.32588   0.07356   0.09995   0.00000  Uiso   1.00
N215   N     0.06769   0.28624   0.89653   0.00000  Uiso   1.00
O216   O     0.08859   0.26598   0.86999   0.00000  Uiso   1.00
O217   O     0.07274   0.32666   0.90003   0.00000  Uiso   1.00
N218   N     0.42318   0.25011   0.10341   0.00000  Uiso   1.00
O219   O     0.41415   0.22398   0.13124   0.00000  Uiso   1.00
O220   O     0.39890   0.28239   0.09738   0.00000  Uiso   1.00
N221   N     0.02494   0.13584   0.46026   0.00000  Uiso   1.00
O222   O     0.49328   0.11777   0.44313   0.00000  Uiso   1.00
O223   O     0.06004   0.11529   0.46435   0.00000  Uiso   1.00
N224   N     0.46859   0.36238   0.54033   0.00000  Uiso   1.00
O225   O     0.43303   0.36250   0.55900   0.00000  Uiso   1.00
O226   O     0.48925   0.39740   0.53606   0.00000  Uiso   1.00
N227   N     0.36226   0.46816   0.45968   0.00000  Uiso   1.00
O228   O     0.36230   0.43255   0.44110   0.00000  Uiso   1.00
O229   O     0.39734   0.48875   0.46391   0.00000  Uiso   1.00
N230   N     0.13593   0.02532   0.53974   0.00000  Uiso   1.00
O231   O     0.11777   0.49372   0.55687   0.00000  Uiso   1.00
O232   O     0.11549   0.06049   0.53566   0.00000  Uiso   1.00
N233   N     0.47506   0.36416   0.46026   0.00000  Uiso   1.00
O234   O     0.00672   0.38223   0.44312   0.00000  Uiso   1.00
O235   O     0.43996   0.38471   0.46435   0.00000  Uiso   1.00
N236   N     0.03142   0.13762   0.54033   0.00000  Uiso   1.00
O237   O     0.06697   0.13750   0.55900   0.00000  Uiso   1.00
O238   O     0.01075   0.10260   0.53606   0.00000  Uiso   1.00
N239   N     0.13774   0.03184   0.45968   0.00000  Uiso   1.00
O240   O     0.13770   0.06745   0.44110   0.00000  Uiso   1.00
O241   O     0.10266   0.01125   0.46391   0.00000  Uiso   1.00
N242   N     0.36407   0.47468   0.53974   0.00000  Uiso   1.00
O243   O     0.38223   0.00628   0.55687   0.00000  Uiso   1.00
O244   O     0.38452   0.43951   0.53566   0.00000  Uiso   1.00
N245   N     0.21716   0.38811   0.95956   0.00000  Uiso   1.00
O246   O     0.18195   0.38883   0.94036   0.00000  Uiso   1.00
O247   O     0.23699   0.35263   0.96402   0.00000  Uiso   1.00
N248   N     0.27639   0.11386   0.03965   0.00000  Uiso   1.00
O249   O     0.24497   0.13261   0.05654   0.00000  Uiso   1.00
O250   O     0.31190   0.13372   0.03569   0.00000  Uiso   1.00
N251   N     0.11356   0.27762   0.96034   0.00000  Uiso   1.00
O252   O     0.13263   0.24637   0.94349   0.00000  Uiso   1.00
O253   O     0.13305   0.31333   0.96430   0.00000  Uiso   1.00
N254   N     0.38853   0.21572   0.04042   0.00000  Uiso   1.00
O255   O     0.38960   0.18036   0.05938   0.00000  Uiso   1.00
O256   O     0.35285   0.23520   0.03606   0.00000  Uiso   1.00
N257   N     0.28289   0.11187   0.95955   0.00000  Uiso   1.00
O258   O     0.31809   0.11112   0.94033   0.00000  Uiso   1.00
O259   O     0.26309   0.14737   0.96402   0.00000  Uiso   1.00
N260   N     0.22367   0.38613   0.03966   0.00000  Uiso   1.00
O261   O     0.25510   0.36742   0.05656   0.00000  Uiso   1.00
O262   O     0.18818   0.36624   0.03569   0.00000  Uiso   1.00
N263   N     0.38646   0.22231   0.96035   0.00000  Uiso   1.00
O264   O     0.36734   0.25354   0.94352   0.00000  Uiso   1.00
O265   O     0.36701   0.18657   0.96429   0.00000  Uiso   1.00
N266   N     0.11150   0.28421   0.04041   0.00000  Uiso   1.00
O267   O     0.11048   0.31959   0.05934   0.00000  Uiso   1.00
O268   O     0.14715   0.26467   0.03607   0.00000  Uiso   1.00
Zn269  Zn    0.70053  -0.00000   0.21730   0.00000  Uiso   1.00
Zn270  Zn    0.79948  -0.00000   0.78270   0.00000  Uiso   1.00
Zn271  Zn    0.50000   0.20052   0.21730   0.00000  Uiso   1.00
Zn272  Zn    0.50000   0.29947   0.78270   0.00000  Uiso   1.00
Zn273  Zn    0.79948  -0.00000   0.21730   0.00000  Uiso   1.00
Zn274  Zn    0.70053  -0.00000   0.78270   0.00000  Uiso   1.00
Zn275  Zn    0.50000   0.29947   0.21730   0.00000  Uiso   1.00
Zn276  Zn    0.50000   0.20052   0.78270   0.00000  Uiso   1.00
Zn277  Zn    0.95053   0.25000   0.71730   0.00000  Uiso   1.00
Zn278  Zn    0.54948   0.25000   0.28270   0.00000  Uiso   1.00
Zn279  Zn    0.75000   0.45052   0.71730   0.00000  Uiso   1.00
Zn280  Zn    0.75000   0.04948   0.28270   0.00000  Uiso   1.00
Zn281  Zn    0.54948   0.25000   0.71730   0.00000  Uiso   1.00
Zn282  Zn    0.95053   0.25000   0.28270   0.00000  Uiso   1.00
Zn283  Zn    0.75000   0.04948   0.71730   0.00000  Uiso   1.00
Zn284  Zn    0.75000   0.45052   0.28270   0.00000  Uiso   1.00
O285   O     0.75000  -0.00000   0.25000   0.00000  Uiso   1.00
O286   O     0.75000  -0.00000   0.75000   0.00000  Uiso   1.00
O287   O     0.50000   0.25000   0.25000   0.00000  Uiso   1.00
O288   O     0.50000   0.25000   0.75000   0.00000  Uiso   1.00
O289   O     0.75000   0.46538   0.33749   0.00000  Uiso   1.00
O290   O     0.75000   0.03462   0.66251   0.00000  Uiso   1.00
O291   O     0.53462   0.25000   0.33749   0.00000  Uiso   1.00
O292   O     0.96539   0.25000   0.66251   0.00000  Uiso   1.00
O293   O     0.75000   0.03462   0.33749   0.00000  Uiso   1.00
O294   O     0.75000   0.46538   0.66251   0.00000  Uiso   1.00
O295   O     0.96539   0.25000   0.33749   0.00000  Uiso   1.00
O296   O     0.53462   0.25000   0.66251   0.00000  Uiso   1.00
O297   O     0.50000   0.21539   0.83749   0.00000  Uiso   1.00
O298   O     0.50000   0.28461   0.16251   0.00000  Uiso   1.00
O299   O     0.78462  -0.00000   0.83749   0.00000  Uiso   1.00
O300   O     0.71539   0.00000   0.16251   0.00000  Uiso   1.00
O301   O     0.50000   0.28461   0.83749   0.00000  Uiso   1.00
O302   O     0.50000   0.21539   0.16251   0.00000  Uiso   1.00
O303   O     0.71539  -0.00000   0.83749   0.00000  Uiso   1.00
O304   O     0.78462   0.00000   0.16251   0.00000  Uiso   1.00
O305   O     0.70127   0.08332   0.27298   0.00000  Uiso   1.00
O306   O     0.79874   0.41668   0.72702   0.00000  Uiso   1.00
O307   O     0.91668   0.20127   0.27298   0.00000  Uiso   1.00
O308   O     0.58332   0.29873   0.72702   0.00000  Uiso   1.00
O309   O     0.79874   0.41668   0.27298   0.00000  Uiso   1.00
O310   O     0.70127   0.08332   0.72702   0.00000  Uiso   1.00
O311   O     0.58332   0.29873   0.27298   0.00000  Uiso   1.00
O312   O     0.91668   0.20127   0.72702   0.00000  Uiso   1.00
O313   O     0.70127   0.41668   0.72702   0.00000  Uiso   1.00
O314   O     0.79874   0.08332   0.27298   0.00000  Uiso   1.00
O315   O     0.91668   0.29873   0.72702   0.00000  Uiso   1.00
O316   O     0.58332   0.20126   0.27298   0.00000  Uiso   1.00
O317   O     0.79874   0.08332   0.72702   0.00000  Uiso   1.00
O318   O     0.70127   0.41668   0.27298   0.00000  Uiso   1.00
O319   O     0.58332   0.20126   0.72702   0.00000  Uiso   1.00
O320   O     0.91668   0.29873   0.27298   0.00000  Uiso   1.00
O321   O     0.95127   0.33332   0.77298   0.00000  Uiso   1.00
O322   O     0.54874   0.16668   0.22702   0.00000  Uiso   1.00
O323   O     0.66668   0.45126   0.77298   0.00000  Uiso   1.00
O324   O     0.83332   0.04874   0.22702   0.00000  Uiso   1.00
O325   O     0.54874   0.16668   0.77298   0.00000  Uiso   1.00
O326   O     0.95127   0.33332   0.22702   0.00000  Uiso   1.00
O327   O     0.83332   0.04874   0.77298   0.00000  Uiso   1.00
O328   O     0.66668   0.45126   0.22702   0.00000  Uiso   1.00
O329   O     0.95127   0.16668   0.22702   0.00000  Uiso   1.00
O330   O     0.54874   0.33332   0.77298   0.00000  Uiso   1.00
O331   O     0.66668   0.04874   0.22702   0.00000  Uiso   1.00
O332   O     0.83332   0.45126   0.77298   0.00000  Uiso   1.00
O333   O     0.54874   0.33332   0.22702   0.00000  Uiso   1.00
O334   O     0.95127   0.16668   0.77298   0.00000  Uiso   1.00
O335   O     0.83332   0.45126   0.22702   0.00000  Uiso   1.00
O336   O     0.66668   0.04874   0.77298   0.00000  Uiso   1.00
C337   C     0.75000  -0.00000   0.35578   0.00000  Uiso   1.00
C338   C     0.75000  -0.00000   0.64416   0.00000  Uiso   1.00
C339   C     0.50000   0.25000   0.35584   0.00000  Uiso   1.00
C340   C     0.50000   0.25000   0.64422   0.00000  Uiso   1.00
C341   C     0.50000   0.25000   0.85585   0.00000  Uiso   1.00
C342   C     0.50000   0.25000   0.14423   0.00000  Uiso   1.00
C343   C     0.75000  -0.00000   0.85578   0.00000  Uiso   1.00
C344   C     0.75000  -0.00000   0.14415   0.00000  Uiso   1.00
C345   C     0.66997   0.08002   0.25001   0.00000  Uiso   1.00
C346   C     0.83003   0.41998   0.74999   0.00000  Uiso   1.00
C347   C     0.91997   0.16998   0.24999   0.00000  Uiso   1.00
C348   C     0.58003   0.33002   0.75001   0.00000  Uiso   1.00
C349   C     0.83003   0.41998   0.25001   0.00000  Uiso   1.00
C350   C     0.66997   0.08002   0.74999   0.00000  Uiso   1.00
C351   C     0.58003   0.33002   0.24999   0.00000  Uiso   1.00
C352   C     0.91997   0.16998   0.75001   0.00000  Uiso   1.00
C353   C     0.66998   0.41997   0.75001   0.00000  Uiso   1.00
C354   C     0.83002   0.08003   0.24999   0.00000  Uiso   1.00
C355   C     0.91998   0.33003   0.74999   0.00000  Uiso   1.00
C356   C     0.58002   0.16997   0.25001   0.00000  Uiso   1.00
C357   C     0.83002   0.08003   0.75001   0.00000  Uiso   1.00
C358   C     0.66998   0.41997   0.24999   0.00000  Uiso   1.00
C359   C     0.58002   0.16997   0.74999   0.00000  Uiso   1.00
C360   C     0.91998   0.33003   0.25001   0.00000  Uiso   1.00
C361   C     0.63834   0.38832   0.24998   0.00000  Uiso   1.00
C362   C     0.86166   0.11168   0.75001   0.00000  Uiso   1.00
C363   C     0.61166   0.13832   0.25001   0.00000  Uiso   1.00
C364   C     0.88834   0.36168   0.74998   0.00000  Uiso   1.00
C365   C     0.86166   0.11168   0.24998   0.00000  Uiso   1.00
C366   C     0.63834   0.38832   0.75001   0.00000  Uiso   1.00
C367   C     0.88834   0.36168   0.25001   0.00000  Uiso   1.00
C368   C     0.61166   0.13832   0.74998   0.00000  Uiso   1.00
C369   C     0.63832   0.11166   0.74999   0.00000  Uiso   1.00
C370   C     0.86168   0.38834   0.25001   0.00000  Uiso   1.00
C371   C     0.61168   0.36166   0.75001   0.00000  Uiso   1.00
C372   C     0.88832   0.13834   0.24998   0.00000  Uiso   1.00
C373   C     0.86168   0.38834   0.74999   0.00000  Uiso   1.00
C374   C     0.63832   0.11166   0.25001   0.00000  Uiso   1.00
C375   C     0.88832   0.13834   0.75001   0.00000  Uiso   1.00
C376   C     0.61168   0.36166   0.24998   0.00000  Uiso   1.00
C377   C     0.98513   0.28536   0.41811   0.00000  Uiso   1.00
C378   C     0.50307   0.21179   0.58213   0.00000  Uiso   1.00
C379   C     0.71181   0.00326   0.41787   0.00000  Uiso   1.00
C380   C     0.78530   0.48501   0.58188   0.00000  Uiso   1.00
C381   C     0.51487   0.21464   0.41811   0.00000  Uiso   1.00
C382   C     0.99693   0.28821   0.58213   0.00000  Uiso   1.00
C383   C     0.78819   0.49674   0.41787   0.00000  Uiso   1.00
C384   C     0.71470   0.01500   0.58188   0.00000  Uiso   1.00
C385   C     0.75323   0.03819   0.91788   0.00000  Uiso   1.00
C386   C     0.73488   0.46475   0.08188   0.00000  Uiso   1.00
C387   C     0.96493   0.23447   0.91812   0.00000  Uiso   1.00
C388   C     0.53814   0.25382   0.08213   0.00000  Uiso   1.00
C389   C     0.74677   0.46180   0.91788   0.00000  Uiso   1.00
C390   C     0.76513   0.03525   0.08188   0.00000  Uiso   1.00
C391   C     0.53508   0.26551   0.91813   0.00000  Uiso   1.00
C392   C     0.96186   0.24617   0.08213   0.00000  Uiso   1.00
C393   C     0.50000   0.25000   0.39816   0.00000  Uiso   1.00
C394   C     0.50000   0.25000   0.60204   0.00000  Uiso   1.00
C395   C     0.75000  -0.00000   0.39796   0.00000  Uiso   1.00
C396   C     0.75000   0.00000   0.60184   0.00000  Uiso   1.00
C397   C     0.75000  -0.00000   0.89796   0.00000  Uiso   1.00
C398   C     0.75000  -0.00000   0.10183   0.00000  Uiso   1.00
C399   C     0.50000   0.25000   0.89817   0.00000  Uiso   1.00
C400   C     0.50000   0.25000   0.10205   0.00000  Uiso   1.00
C401   C     0.51116   0.21281   0.45902   0.00000  Uiso   1.00
C402   C     0.99268   0.28809   0.54126   0.00000  Uiso   1.00
C403   C     0.78806   0.49251   0.45874   0.00000  Uiso   1.00
C404   C     0.71285   0.01129   0.54098   0.00000  Uiso   1.00
C405   C     0.98884   0.28719   0.45902   0.00000  Uiso   1.00
C406   C     0.50733   0.21191   0.54126   0.00000  Uiso   1.00
C407   C     0.71194   0.00749   0.45874   0.00000  Uiso   1.00
C408   C     0.78715   0.48871   0.54098   0.00000  Uiso   1.00
C409   C     0.74237   0.46199   0.95873   0.00000  Uiso   1.00
C410   C     0.76152   0.03709   0.04097   0.00000  Uiso   1.00
C411   C     0.53696   0.26193   0.95904   0.00000  Uiso   1.00
C412   C     0.96211   0.24183   0.04128   0.00000  Uiso   1.00
C413   C     0.75765   0.03800   0.95873   0.00000  Uiso   1.00
C414   C     0.73850   0.46290   0.04097   0.00000  Uiso   1.00
C415   C     0.96305   0.23805   0.95904   0.00000  Uiso   1.00
C416   C     0.53790   0.25815   0.04128   0.00000  Uiso   1.00
C417   C     0.50000   0.25000   0.47958   0.00000  Uiso   1.00
C418   C     0.50000   0.25000   0.52068   0.00000  Uiso   1.00
C419   C     0.75000   0.00000   0.47932   0.00000  Uiso   1.00
C420   C     0.75000   0.00000   0.52042   0.00000  Uiso   1.00
C421   C     0.75001  -0.00000   0.97932   0.00000  Uiso   1.00
C422   C     0.75001  -0.00000   0.02041   0.00000  Uiso   1.00
C423   C     0.50000   0.24999   0.97959   0.00000  Uiso   1.00
C424   C     0.50000   0.24999   0.02069   0.00000  Uiso   1.00
C425   C     0.51883   0.17515   0.47988   0.00000  Uiso   1.00
C426   C     0.98192   0.32499   0.52051   0.00000  Uiso   1.00
C427   C     0.82492   0.48163   0.47949   0.00000  Uiso   1.00
C428   C     0.67522   0.01910   0.52012   0.00000  Uiso   1.00
C429   C     0.98117   0.32485   0.47988   0.00000  Uiso   1.00
C430   C     0.51808   0.17501   0.52051   0.00000  Uiso   1.00
C431   C     0.67508   0.01837   0.47949   0.00000  Uiso   1.00
C432   C     0.82478   0.48090   0.52012   0.00000  Uiso   1.00
C433   C     0.73114   0.42522   0.97944   0.00000  Uiso   1.00
C434   C     0.76965   0.07464   0.02007   0.00000  Uiso   1.00
C435   C     0.57441   0.27049   0.97993   0.00000  Uiso   1.00
C436   C     0.92548   0.23016   0.02056   0.00000  Uiso   1.00
C437   C     0.76889   0.07477   0.97943   0.00000  Uiso   1.00
C438   C     0.73038   0.42535   0.02007   0.00000  Uiso   1.00
C439   C     0.92560   0.22947   0.97993   0.00000  Uiso   1.00
C440   C     0.57454   0.26979   0.02056   0.00000  Uiso   1.00
N441   N     0.96486   0.31830   0.39656   0.00000  Uiso   1.00
O442   O     0.98526   0.33867   0.36977   0.00000  Uiso   1.00
O443   O     0.92461   0.32429   0.40047   0.00000  Uiso   1.00
N444   N     0.99857   0.17322   0.60348   0.00000  Uiso   1.00
O445   O     0.52479   0.16372   0.63111   0.00000  Uiso   1.00
O446   O     0.96562   0.14973   0.59791   0.00000  Uiso   1.00
N447   N     0.67322   0.49898   0.39651   0.00000  Uiso   1.00
O448   O     0.66382   0.02531   0.36895   0.00000  Uiso   1.00
O449   O     0.64961   0.46609   0.40198   0.00000  Uiso   1.00
N450   N     0.81818   0.46462   0.60344   0.00000  Uiso   1.00
O451   O     0.83863   0.48496   0.63022   0.00000  Uiso   1.00
O452   O     0.82404   0.42436   0.59953   0.00000  Uiso   1.00
N453   N     0.53514   0.18170   0.39656   0.00000  Uiso   1.00
O454   O     0.51474   0.16132   0.36977   0.00000  Uiso   1.00
O455   O     0.57539   0.17571   0.40047   0.00000  Uiso   1.00
N456   N     0.50143   0.32678   0.60348   0.00000  Uiso   1.00
O457   O     0.97521   0.33628   0.63111   0.00000  Uiso   1.00
O458   O     0.53438   0.35027   0.59791   0.00000  Uiso   1.00
N459   N     0.82678   0.00102   0.39651   0.00000  Uiso   1.00
O460   O     0.83618   0.47469   0.36895   0.00000  Uiso   1.00
O461   O     0.85039   0.03391   0.40198   0.00000  Uiso   1.00
N462   N     0.68182   0.03538   0.60344   0.00000  Uiso   1.00
O463   O     0.66137   0.01504   0.63022   0.00000  Uiso   1.00
O464   O     0.67597   0.07564   0.59953   0.00000  Uiso   1.00
N465   N     0.74865   0.07682   0.89662   0.00000  Uiso   1.00
O466   O     0.77445   0.08618   0.86861   0.00000  Uiso   1.00
O467   O     0.71614   0.10072   0.90289   0.00000  Uiso   1.00
N468   N     0.71448   0.43193   0.10346   0.00000  Uiso   1.00
O469   O     0.73492   0.41128   0.13006   0.00000  Uiso   1.00
O470   O     0.67413   0.42642   0.09992   0.00000  Uiso   1.00
N471   N     0.93231   0.21377   0.89653   0.00000  Uiso   1.00
O472   O     0.91140   0.23404   0.87000   0.00000  Uiso   1.00
O473   O     0.92728   0.17334   0.89998   0.00000  Uiso   1.00
N474   N     0.57682   0.24991   0.10342   0.00000  Uiso   1.00
O475   O     0.58585   0.27607   0.13123   0.00000  Uiso   1.00
O476   O     0.60108   0.21761   0.09744   0.00000  Uiso   1.00
N477   N     0.75134   0.42317   0.89662   0.00000  Uiso   1.00
O478   O     0.72552   0.41382   0.86862   0.00000  Uiso   1.00
O479   O     0.78386   0.39929   0.90285   0.00000  Uiso   1.00
N480   N     0.78551   0.06808   0.10347   0.00000  Uiso   1.00
O481   O     0.76506   0.08873   0.13005   0.00000  Uiso   1.00
O482   O     0.82588   0.07356   0.09995   0.00000  Uiso   1.00
N483   N     0.56769   0.28624   0.89653   0.00000  Uiso   1.00
O484   O     0.58859   0.26598   0.86999   0.00000  Uiso   1.00
O485   O     0.57274   0.32666   0.90003   0.00000  Uiso   1.00
N486   N     0.92318   0.25011   0.10341   0.00000  Uiso   1.00
O487   O     0.91415   0.22398   0.13124   0.00000  Uiso   1.00
O488   O     0.89890   0.28239   0.09738   0.00000  Uiso   1.00
N489   N     0.52494   0.13584   0.46026   0.00000  Uiso   1.00
O490   O     0.99328   0.11777   0.44313   0.00000  Uiso   1.00
O491   O     0.56004   0.11529   0.46435   0.00000  Uiso   1.00
N492   N     0.96859   0.36238   0.54033   0.00000  Uiso   1.00
O493   O     0.93303   0.36250   0.55900   0.00000  Uiso   1.00
O494   O     0.98925   0.39740   0.53606   0.00000  Uiso   1.00
N495   N     0.86226   0.46816   0.45968   0.00000  Uiso   1.00
O496   O     0.86230   0.43255   0.44110   0.00000  Uiso   1.00
O497   O     0.89734   0.48875   0.46391   0.00000  Uiso   1.00
N498   N     0.63593   0.02532   0.53974   0.00000  Uiso   1.00
O499   O     0.61777   0.49372   0.55687   0.00000  Uiso   1.00
O500   O     0.61549   0.06049   0.53566   0.00000  Uiso   1.00
N501   N     0.97506   0.36416   0.46026   0.00000  Uiso   1.00
O502   O     0.50672   0.38223   0.44312   0.00000  Uiso   1.00
O503   O     0.93996   0.38471   0.46435   0.00000  Uiso   1.00
N504   N     0.53142   0.13762   0.54033   0.00000  Uiso   1.00
O505   O     0.56697   0.13750   0.55900   0.00000  Uiso   1.00
O506   O     0.51075   0.10260   0.53606   0.00000  Uiso   1.00
N507   N     0.63774   0.03184   0.45968   0.00000  Uiso   1.00
O508   O     0.63770   0.06745   0.44110   0.00000  Uiso   1.00
O509   O     0.60266   0.01125   0.46391   0.00000  Uiso   1.00
N510   N     0.86407   0.47468   0.53974   0.00000  Uiso   1.00
O511   O     0.88223   0.00628   0.55687   0.00000  Uiso   1.00
O512   O     0.88452   0.43951   0.53566   0.00000  Uiso   1.00
N513   N     0.71716   0.38811   0.95956   0.00000  Uiso   1.00
O514   O     0.68195   0.38883   0.94036   0.00000  Uiso   1.00
O515   O     0.73699   0.35263   0.96402   0.00000  Uiso   1.00
N516   N     0.77639   0.11386   0.03965   0.00000  Uiso   1.00
O517   O     0.74497   0.13261   0.05654   0.00000  Uiso   1.00
O518   O     0.81190   0.13372   0.03569   0.00000  Uiso   1.00
N519   N     0.61356   0.27762   0.96034   0.00000  Uiso   1.00
O520   O     0.63263   0.24637   0.94349   0.00000  Uiso   1.00
O521   O     0.63305   0.31333   0.96430   0.00000  Uiso   1.00
N522   N     0.88853   0.21572   0.04042   0.00000  Uiso   1.00
O523   O     0.88960   0.18036   0.05938   0.00000  Uiso   1.00
O524   O     0.85285   0.23520   0.03606   0.00000  Uiso   1.00
N525   N     0.78289   0.11187   0.95955   0.00000  Uiso   1.00
O526   O     0.81809   0.11112   0.94033   0.00000  Uiso   1.00
O527   O     0.76309   0.14737   0.96402   0.00000  Uiso   1.00
N528   N     0.72367   0.38613   0.03966   0.00000  Uiso   1.00
O529   O     0.75510   0.36742   0.05656   0.00000  Uiso   1.00
O530   O     0.68818   0.36624   0.03569   0.00000  Uiso   1.00
N531   N     0.88646   0.22231   0.96035   0.00000  Uiso   1.00
O532   O     0.86734   0.25354   0.94352   0.00000  Uiso   1.00
O533   O     0.86701   0.18657   0.96429   0.00000  Uiso   1.00
N534   N     0.61150   0.28421   0.04041   0.00000  Uiso   1.00
O535   O     0.61048   0.31959   0.05934   0.00000  Uiso   1.00
O536   O     0.64715   0.26467   0.03607   0.00000  Uiso   1.00
Zn537  Zn    0.20053   0.50000   0.21730   0.00000  Uiso   1.00
Zn538  Zn    0.29948   0.50000   0.78270   0.00000  Uiso   1.00
Zn539  Zn    0.00000   0.70052   0.21730   0.00000  Uiso   1.00
Zn540  Zn    0.00000   0.79947   0.78270   0.00000  Uiso   1.00
Zn541  Zn    0.29948   0.50000   0.21730   0.00000  Uiso   1.00
Zn542  Zn    0.20053   0.50000   0.78270   0.00000  Uiso   1.00
Zn543  Zn    0.00000   0.79947   0.21730   0.00000  Uiso   1.00
Zn544  Zn    0.00000   0.70052   0.78270   0.00000  Uiso   1.00
Zn545  Zn    0.45053   0.75000   0.71730   0.00000  Uiso   1.00
Zn546  Zn    0.04948   0.75000   0.28270   0.00000  Uiso   1.00
Zn547  Zn    0.25000   0.95052   0.71730   0.00000  Uiso   1.00
Zn548  Zn    0.25000   0.54948   0.28270   0.00000  Uiso   1.00
Zn549  Zn    0.04948   0.75000   0.71730   0.00000  Uiso   1.00
Zn550  Zn    0.45053   0.75000   0.28270   0.00000  Uiso   1.00
Zn551  Zn    0.25000   0.54948   0.71730   0.00000  Uiso   1.00
Zn552  Zn    0.25000   0.95052   0.28270   0.00000  Uiso   1.00
O553   O     0.25000   0.50000   0.25000   0.00000  Uiso   1.00
O554   O     0.25000   0.50000   0.75000   0.00000  Uiso   1.00
O555   O     0.00000   0.75000   0.25000   0.00000  Uiso   1.00
O556   O     0.00000   0.75000   0.75000   0.00000  Uiso   1.00
O557   O     0.25000   0.96538   0.33749   0.00000  Uiso   1.00
O558   O     0.25000   0.53462   0.66251   0.00000  Uiso   1.00
O559   O     0.03462   0.75000   0.33749   0.00000  Uiso   1.00
O560   O     0.46539   0.75000   0.66251   0.00000  Uiso   1.00
O561   O     0.25000   0.53462   0.33749   0.00000  Uiso   1.00
O562   O     0.25000   0.96538   0.66251   0.00000  Uiso   1.00
O563   O     0.46539   0.75000   0.33749   0.00000  Uiso   1.00
O564   O     0.03462   0.75000   0.66251   0.00000  Uiso   1.00
O565   O     0.00000   0.71539   0.83749   0.00000  Uiso   1.00
O566   O     0.00000   0.78461   0.16251   0.00000  Uiso   1.00
O567   O     0.28462   0.50000   0.83749   0.00000  Uiso   1.00
O568   O     0.21539   0.50000   0.16251   0.00000  Uiso   1.00
O569   O     0.00000   0.78461   0.83749   0.00000  Uiso   1.00
O570   O     0.00000   0.71539   0.16251   0.00000  Uiso   1.00
O571   O     0.21539   0.50000   0.83749   0.00000  Uiso   1.00
O572   O     0.28462   0.50000   0.16251   0.00000  Uiso   1.00
O573   O     0.20127   0.58332   0.27298   0.00000  Uiso   1.00
O574   O     0.29874   0.91668   0.72702   0.00000  Uiso   1.00
O575   O     0.41668   0.70127   0.27298   0.00000  Uiso   1.00
O576   O     0.08332   0.79873   0.72702   0.00000  Uiso   1.00
O577   O     0.29874   0.91668   0.27298   0.00000  Uiso   1.00
O578   O     0.20127   0.58332   0.72702   0.00000  Uiso   1.00
O579   O     0.08332   0.79873   0.27298   0.00000  Uiso   1.00
O580   O     0.41668   0.70127   0.72702   0.00000  Uiso   1.00
O581   O     0.20127   0.91668   0.72702   0.00000  Uiso   1.00
O582   O     0.29874   0.58332   0.27298   0.00000  Uiso   1.00
O583   O     0.41668   0.79873   0.72702   0.00000  Uiso   1.00
O584   O     0.08332   0.70126   0.27298   0.00000  Uiso   1.00
O585   O     0.29874   0.58332   0.72702   0.00000  Uiso   1.00
O586   O     0.20127   0.91668   0.27298   0.00000  Uiso   1.00
O587   O     0.08332   0.70126   0.72702   0.00000  Uiso   1.00
O588   O     0.41668   0.79873   0.27298   0.00000  Uiso   1.00
O589   O     0.45127   0.83332   0.77298   0.00000  Uiso   1.00
O590   O     0.04874   0.66668   0.22702   0.00000  Uiso   1.00
O591   O     0.16668   0.95126   0.77298   0.00000  Uiso   1.00
O592   O     0.33332   0.54874   0.22702   0.00000  Uiso   1.00
O593   O     0.04874   0.66668   0.77298   0.00000  Uiso   1.00
O594   O     0.45127   0.83332   0.22702   0.00000  Uiso   1.00
O595   O     0.33332   0.54874   0.77298   0.00000  Uiso   1.00
O596   O     0.16668   0.95126   0.22702   0.00000  Uiso   1.00
O597   O     0.45127   0.66668   0.22702   0.00000  Uiso   1.00
O598   O     0.04874   0.83332   0.77298   0.00000  Uiso   1.00
O599   O     0.16668   0.54874   0.22702   0.00000  Uiso   1.00
O600   O     0.33332   0.95126   0.77298   0.00000  Uiso   1.00
O601   O     0.04874   0.83332   0.22702   0.00000  Uiso   1.00
O602   O     0.45127   0.66668   0.77298   0.00000  Uiso   1.00
O603   O     0.33332   0.95126   0.22702   0.00000  Uiso   1.00
O604   O     0.16668   0.54874   0.77298   0.00000  Uiso   1.00
C605   C     0.25000   0.50000   0.35578   0.00000  Uiso   1.00
C606   C     0.25000   0.50000   0.64416   0.00000  Uiso   1.00
C607   C     0.00000   0.75000   0.35584   0.00000  Uiso   1.00
C608   C     0.00000   0.75000   0.64422   0.00000  Uiso   1.00
C609   C     0.00000   0.75000   0.85585   0.00000  Uiso   1.00
C610   C    -0.00000   0.75000   0.14423   0.00000  Uiso   1.00
C611   C     0.25000   0.50000   0.85578   0.00000  Uiso   1.00
C612   C     0.25000   0.50000   0.14415   0.00000  Uiso   1.00
C613   C     0.16997   0.58002   0.25001   0.00000  Uiso   1.00
C614   C     0.33003   0.91998   0.74999   0.00000  Uiso   1.00
C615   C     0.41997   0.66998   0.24999   0.00000  Uiso   1.00
C616   C     0.08003   0.83002   0.75001   0.00000  Uiso   1.00
C617   C     0.33003   0.91998   0.25001   0.00000  Uiso   1.00
C618   C     0.16997   0.58002   0.74999   0.00000  Uiso   1.00
C619   C     0.08003   0.83002   0.24999   0.00000  Uiso   1.00
C620   C     0.41997   0.66998   0.75001   0.00000  Uiso   1.00
C621   C     0.16998   0.91997   0.75001   0.00000  Uiso   1.00
C622   C     0.33002   0.58003   0.24999   0.00000  Uiso   1.00
C623   C     0.41998   0.83003   0.74999   0.00000  Uiso   1.00
C624   C     0.08002   0.66997   0.25001   0.00000  Uiso   1.00
C625   C     0.33002   0.58003   0.75001   0.00000  Uiso   1.00
C626   C     0.16998   0.91997   0.24999   0.00000  Uiso   1.00
C627   C     0.08002   0.66997   0.74999   0.00000  Uiso   1.00
C628   C     0.41998   0.83003   0.25001   0.00000  Uiso   1.00
C629   C     0.13834   0.88832   0.24998   0.00000  Uiso   1.00
C630   C     0.36166   0.61168   0.75001   0.00000  Uiso   1.00
C631   C     0.11166   0.63832   0.25001   0.00000  Uiso   1.00
C632   C     0.38834   0.86168   0.74998   0.00000  Uiso   1.00
C633   C     0.36166   0.61168   0.24998   0.00000  Uiso   1.00
C634   C     0.13834   0.88832   0.75001   0.00000  Uiso   1.00
C635   C     0.38834   0.86168   0.25001   0.00000  Uiso   1.00
C636   C     0.11166   0.63832   0.74998   0.00000  Uiso   1.00
C637   C     0.13832   0.61166   0.74999   0.00000  Uiso   1.00
C638   C     0.36168   0.88834   0.25001   0.00000  Uiso   1.00
C639   C     0.11168   0.86166   0.75001   0.00000  Uiso   1.00
C640   C     0.38832   0.63834   0.24998   0.00000  Uiso   1.00
C641   C     0.36168   0.88834   0.74999   0.00000  Uiso   1.00
C642   C     0.13832   0.61166   0.25001   0.00000  Uiso   1.00
C643   C     0.38832   0.63834   0.75001   0.00000  Uiso   1.00
C644   C     0.11168   0.86166   0.24998   0.00000  Uiso   1.00
C645   C     0.48513   0.78536   0.41811   0.00000  Uiso   1.00
C646   C     0.00307   0.71179   0.58213   0.00000  Uiso   1.00
C647   C     0.21181   0.50326   0.41787   0.00000  Uiso   1.00
C648   C     0.28530   0.98501   0.58188   0.00000  Uiso   1.00
C649   C     0.01487   0.71464   0.41811   0.00000  Uiso   1.00
C650   C     0.49693   0.78821   0.58213   0.00000  Uiso   1.00
C651   C     0.28819   0.99674   0.41787   0.00000  Uiso   1.00
C652   C     0.21470   0.51500   0.58188   0.00000  Uiso   1.00
C653   C     0.25323   0.53819   0.91788   0.00000  Uiso   1.00
C654   C     0.23488   0.96475   0.08188   0.00000  Uiso   1.00
C655   C     0.46493   0.73447   0.91812   0.00000  Uiso   1.00
C656   C     0.03814   0.75382   0.08213   0.00000  Uiso   1.00
C657   C     0.24677   0.96180   0.91788   0.00000  Uiso   1.00
C658   C     0.26513   0.53525   0.08188   0.00000  Uiso   1.00
C659   C     0.03508   0.76551   0.91813   0.00000  Uiso   1.00
C660   C     0.46186   0.74617   0.08213   0.00000  Uiso   1.00
C661   C     0.00000   0.75000   0.39816   0.00000  Uiso   1.00
C662   C     0.00000   0.75000   0.60204   0.00000  Uiso   1.00
C663   C     0.25000   0.50000   0.39796   0.00000  Uiso   1.00
C664   C     0.25000   0.50000   0.60184   0.00000  Uiso   1.00
C665   C     0.25000   0.50000   0.89796   0.00000  Uiso   1.00
C666   C     0.25000   0.50000   0.10183   0.00000  Uiso   1.00
C667   C     0.00000   0.75000   0.89817   0.00000  Uiso   1.00
C668   C     0.00000   0.75000   0.10205   0.00000  Uiso   1.00
C669   C     0.01116   0.71281   0.45902   0.00000  Uiso   1.00
C670   C     0.49268   0.78809   0.54126   0.00000  Uiso   1.00
C671   C     0.28806   0.99251   0.45874   0.00000  Uiso   1.00
C672   C     0.21285   0.51129   0.54098   0.00000  Uiso   1.00
C673   C     0.48884   0.78719   0.45902   0.00000  Uiso   1.00
C674   C     0.00733   0.71191   0.54126   0.00000  Uiso   1.00
C675   C     0.21194   0.50749   0.45874   0.00000  Uiso   1.00
C676   C     0.28715   0.98871   0.54098   0.00000  Uiso   1.00
C677   C     0.24237   0.96199   0.95873   0.00000  Uiso   1.00
C678   C     0.26152   0.53709   0.04097   0.00000  Uiso   1.00
C679   C     0.03696   0.76193   0.95904   0.00000  Uiso   1.00
C680   C     0.46211   0.74183   0.04128   0.00000  Uiso   1.00
C681   C     0.25765   0.53800   0.95873   0.00000  Uiso   1.00
C682   C     0.23850   0.96290   0.04097   0.00000  Uiso   1.00
C683   C     0.46305   0.73805   0.95904   0.00000  Uiso   1.00
C684   C     0.03790   0.75815   0.04128   0.00000  Uiso   1.00
C685   C     0.00000   0.75000   0.47958   0.00000  Uiso   1.00
C686   C     0.00000   0.75000   0.52068   0.00000  Uiso   1.00
C687   C     0.25000   0.50000   0.47932   0.00000  Uiso   1.00
C688   C     0.25000   0.50000   0.52042   0.00000  Uiso   1.00
C689   C     0.25001   0.50000   0.97932   0.00000  Uiso   1.00
C690   C     0.25001   0.50000   0.02041   0.00000  Uiso   1.00
C691   C     0.00000   0.74999   0.97959   0.00000  Uiso   1.00
C692   C     0.00000   0.74999   0.02069   0.00000  Uiso   1.00
C693   C     0.01883   0.67515   0.47988   0.00000  Uiso   1.00
C694   C     0.48192   0.82499   0.52051   0.00000  Uiso   1.00
C695   C     0.32492   0.98163   0.47949   0.00000  Uiso   1.00
C696   C     0.17522   0.51910   0.52012   0.00000  Uiso   1.00
C697   C     0.48117   0.82485   0.47988   0.00000  Uiso   1.00
C698   C     0.01808   0.67501   0.52051   0.00000  Uiso   1.00
C699   C     0.17508   0.51837   0.47949   0.00000  Uiso   1.00
C700   C     0.32478   0.98090   0.52012   0.00000  Uiso   1.00
C701   C     0.23114   0.92522   0.97944   0.00000  Uiso   1.00
C702   C     0.26965   0.57464   0.02007   0.00000  Uiso   1.00
C703   C     0.07441   0.77049   0.97993   0.00000  Uiso   1.00
C704   C     0.42548   0.73016   0.02056   0.00000  Uiso   1.00
C705   C     0.26889   0.57477   0.97943   0.00000  Uiso   1.00
C706   C     0.23038   0.92535   0.02007   0.00000  Uiso   1.00
C707   C     0.42560   0.72947   0.97993   0.00000  Uiso   1.00
C708   C     0.07454   0.76979   0.02056   0.00000  Uiso   1.00
N709   N     0.46486   0.81830   0.39656   0.00000  Uiso   1.00
O710   O     0.48526   0.83867   0.36977   0.00000  Uiso   1.00
O711   O     0.42461   0.82429   0.40047   0.00000  Uiso   1.00
N712   N     0.49857   0.67322   0.60348   0.00000  Uiso   1.00
O713   O     0.02479   0.66372   0.63111   0.00000  Uiso   1.00
O714   O     0.46562   0.64973   0.59791   0.00000  Uiso   1.00
N715   N     0.17322   0.99898   0.39651   0.00000  Uiso   1.00
O716   O     0.16382   0.52531   0.36895   0.00000  Uiso   1.00
O717   O     0.14961   0.96609   0.40198   0.00000  Uiso   1.00
N718   N     0.31818   0.96462   0.60344   0.00000  Uiso   1.00
O719   O     0.33863   0.98496   0.63022   0.00000  Uiso   1.00
O720   O     0.32404   0.92436   0.59953   0.00000  Uiso   1.00
N721   N     0.03514   0.68170   0.39656   0.00000  Uiso   1.00
O722   O     0.01474   0.66132   0.36977   0.00000  Uiso   1.00
O723   O     0.07539   0.67571   0.40047   0.00000  Uiso   1.00
N724   N     0.00143   0.82678   0.60348   0.00000  Uiso   1.00
O725   O     0.47521   0.83628   0.63111   0.00000  Uiso   1.00
O726   O     0.03438   0.85027   0.59791   0.00000  Uiso   1.00
N727   N     0.32678   0.50102   0.39651   0.00000  Uiso   1.00
O728   O     0.33618   0.97469   0.36895   0.00000  Uiso   1.00
O729   O     0.35039   0.53391   0.40198   0.00000  Uiso   1.00
N730   N     0.18182   0.53538   0.60344   0.00000  Uiso   1.00
O731   O     0.16137   0.51504   0.63022   0.00000  Uiso   1.00
O732   O     0.17597   0.57564   0.59953   0.00000  Uiso   1.00
N733   N     0.24865   0.57682   0.89662   0.00000  Uiso   1.00
O734   O     0.27445   0.58618   0.86861   0.00000  Uiso   1.00
O735   O     0.21614   0.60072   0.90289   0.00000  Uiso   1.00
N736   N     0.21448   0.93193   0.10346   0.00000  Uiso   1.00
O737   O     0.23492   0.91128   0.13006   0.00000  Uiso   1.00
O738   O     0.17413   0.92642   0.09992   0.00000  Uiso   1.00
N739   N     0.43231   0.71377   0.89653   0.00000  Uiso   1.00
O740   O     0.41140   0.73404   0.87000   0.00000  Uiso   1.00
O741   O     0.42728   0.67334   0.89998   0.00000  Uiso   1.00
N742   N     0.07682   0.74991   0.10342   0.00000  Uiso   1.00
O743   O     0.08585   0.77607   0.13123   0.00000  Uiso   1.00
O744   O     0.10108   0.71761   0.09744   0.00000  Uiso   1.00
N745   N     0.25134   0.92317   0.89662   0.00000  Uiso   1.00
O746   O     0.22552   0.91382   0.86862   0.00000  Uiso   1.00
O747   O     0.28386   0.89929   0.90285   0.00000  Uiso   1.00
N748   N     0.28551   0.56808   0.10347   0.00000  Uiso   1.00
O749   O     0.26506   0.58873   0.13005   0.00000  Uiso   1.00
O750   O     0.32588   0.57356   0.09995   0.00000  Uiso   1.00
N751   N     0.06769   0.78624   0.89653   0.00000  Uiso   1.00
O752   O     0.08859   0.76598   0.86999   0.00000  Uiso   1.00
O753   O     0.07274   0.82666   0.90003   0.00000  Uiso   1.00
N754   N     0.42318   0.75011   0.10341   0.00000  Uiso   1.00
O755   O     0.41415   0.72398   0.13124   0.00000  Uiso   1.00
O756   O     0.39890   0.78239   0.09738   0.00000  Uiso   1.00
N757   N     0.02494   0.63584   0.46026   0.00000  Uiso   1.00
O758   O     0.49328   0.61777   0.44313   0.00000  Uiso   1.00
O759   O     0.06004   0.61529   0.46435   0.00000  Uiso   1.00
N760   N     0.46859   0.86238   0.54033   0.00000  Uiso   1.00
O761   O     0.43303   0.86250   0.55900   0.00000  Uiso   1.00
O762   O     0.48925   0.89740   0.53606   0.00000  Uiso   1.00
N763   N     0.36226   0.96816   0.45968   0.00000  Uiso   1.00
O764   O     0.36230   0.93255   0.44110   0.00000  Uiso   1.00
O765   O     0.39734   0.98875   0.46391   0.00000  Uiso   1.00
N766   N     0.13593   0.52532   0.53974   0.00000  Uiso   1.00
O767   O     0.11777   0.99372   0.55687   0.00000  Uiso   1.00
O768   O     0.11549   0.56049   0.53566   0.00000  Uiso   1.00
N769   N     0.47506   0.86416   0.46026   0.00000  Uiso   1.00
O770   O     0.00672   0.88223   0.44312   0.00000  Uiso   1.00
O771   O     0.43996   0.88471   0.46435   0.00000  Uiso   1.00
N772   N     0.03142   0.63762   0.54033   0.00000  Uiso   1.00
O773   O     0.06697   0.63750   0.55900   0.00000  Uiso   1.00
O774   O     0.01075   0.60260   0.53606   0.00000  Uiso   1.00
N775   N     0.13774   0.53184   0.45968   0.00000  Uiso   1.00
O776   O     0.13770   0.56745   0.44110   0.00000  Uiso   1.00
O777   O     0.10266   0.51125   0.46391   0.00000  Uiso   1.00
N778   N     0.36407   0.97468   0.53974   0.00000  Uiso   1.00
O779   O     0.38223   0.50628   0.55687   0.00000  Uiso   1.00
O780   O     0.38452   0.93951   0.53566   0.00000  Uiso   1.00
N781   N     0.21716   0.88811   0.95956   0.00000  Uiso   1.00
O782   O     0.18195   0.88883   0.94036   0.00000  Uiso   1.00
O783   O     0.23699   0.85263   0.96402   0.00000  Uiso   1.00
N784   N     0.27639   0.61386   0.03965   0.00000  Uiso   1.00
O785   O     0.24497   0.63261   0.05654   0.00000  Uiso   1.00
O786   O     0.31190   0.63372   0.03569   0.00000  Uiso   1.00
N787   N     0.11356   0.77762   0.96034   0.00000  Uiso   1.00
O788   O     0.13263   0.74637   0.94349   0.00000  Uiso   1.00
O789   O     0.13305   0.81333   0.96430   0.00000  Uiso   1.00
N790   N     0.38853   0.71572   0.04042   0.00000  Uiso   1.00
O791   O     0.38960   0.68036   0.05938   0.00000  Uiso   1.00
O792   O     0.35285   0.73520   0.03606   0.00000  Uiso   1.00
N793   N     0.28289   0.61187   0.95955   0.00000  Uiso   1.00
O794   O     0.31809   0.61112   0.94033   0.00000  Uiso   1.00
O795   O     0.26309   0.64737   0.96402   0.00000  Uiso   1.00
N796   N     0.22367   0.88613   0.03966   0.00000  Uiso   1.00
O797   O     0.25510   0.86742   0.05656   0.00000  Uiso   1.00
O798   O     0.18818   0.86624   0.03569   0.00000  Uiso   1.00
N799   N     0.38646   0.72231   0.96035   0.00000  Uiso   1.00
O800   O     0.36734   0.75354   0.94352   0.00000  Uiso   1.00
O801   O     0.36701   0.68657   0.96429   0.00000  Uiso   1.00
N802   N     0.11150   0.78421   0.04041   0.00000  Uiso   1.00
O803   O     0.11048   0.81959   0.05934   0.00000  Uiso   1.00
O804   O     0.14715   0.76467   0.03607   0.00000  Uiso   1.00
Zn805  Zn    0.70053   0.50000   0.21730   0.00000  Uiso   1.00
Zn806  Zn    0.79948   0.50000   0.78270   0.00000  Uiso   1.00
Zn807  Zn    0.50000   0.70052   0.21730   0.00000  Uiso   1.00
Zn808  Zn    0.50000   0.79947   0.78270   0.00000  Uiso   1.00
Zn809  Zn    0.79948   0.50000   0.21730   0.00000  Uiso   1.00
Zn810  Zn    0.70053   0.50000   0.78270   0.00000  Uiso   1.00
Zn811  Zn    0.50000   0.79947   0.21730   0.00000  Uiso   1.00
Zn812  Zn    0.50000   0.70052   0.78270   0.00000  Uiso   1.00
Zn813  Zn    0.95053   0.75000   0.71730   0.00000  Uiso   1.00
Zn814  Zn    0.54948   0.75000   0.28270   0.00000  Uiso   1.00
Zn815  Zn    0.75000   0.95052   0.71730   0.00000  Uiso   1.00
Zn816  Zn    0.75000   0.54948   0.28270   0.00000  Uiso   1.00
Zn817  Zn    0.54948   0.75000   0.71730   0.00000  Uiso   1.00
Zn818  Zn    0.95053   0.75000   0.28270   0.00000  Uiso   1.00
Zn819  Zn    0.75000   0.54948   0.71730   0.00000  Uiso   1.00
Zn820  Zn    0.75000   0.95052   0.28270   0.00000  Uiso   1.00
O821   O     0.75000   0.50000   0.25000   0.00000  Uiso   1.00
O822   O     0.75000   0.50000   0.75000   0.00000  Uiso   1.00
O823   O     0.50000   0.75000   0.25000   0.00000  Uiso   1.00
O824   O     0.50000   0.75000   0.75000   0.00000  Uiso   1.00
O825   O     0.75000   0.96538   0.33749   0.00000  Uiso   1.00
O826   O     0.75000   0.53462   0.66251   0.00000  Uiso   1.00
O827   O     0.53462   0.75000   0.33749   0.00000  Uiso   1.00
O828   O     0.96539   0.75000   0.66251   0.00000  Uiso   1.00
O829   O     0.75000   0.53462   0.33749   0.00000  Uiso   1.00
O830   O     0.75000   0.96538   0.66251   0.00000  Uiso   1.00
O831   O     0.96539   0.75000   0.33749   0.00000  Uiso   1.00
O832   O     0.53462   0.75000   0.66251   0.00000  Uiso   1.00
O833   O     0.50000   0.71539   0.83749   0.00000  Uiso   1.00
O834   O     0.50000   0.78461   0.16251   0.00000  Uiso   1.00
O835   O     0.78462   0.50000   0.83749   0.00000  Uiso   1.00
O836   O     0.71539   0.50000   0.16251   0.00000  Uiso   1.00
O837   O     0.50000   0.78461   0.83749   0.00000  Uiso   1.00
O838   O     0.50000   0.71539   0.16251   0.00000  Uiso   1.00
O839   O     0.71539   0.50000   0.83749   0.00000  Uiso   1.00
O840   O     0.78462   0.50000   0.16251   0.00000  Uiso   1.00
O841   O     0.70127   0.58332   0.27298   0.00000  Uiso   1.00
O842   O     0.79874   0.91668   0.72702   0.00000  Uiso   1.00
O843   O     0.91668   0.70127   0.27298   0.00000  Uiso   1.00
O844   O     0.58332   0.79873   0.72702   0.00000  Uiso   1.00
O845   O     0.79874   0.91668   0.27298   0.00000  Uiso   1.00
O846   O     0.70127   0.58332   0.72702   0.00000  Uiso   1.00
O847   O     0.58332   0.79873   0.27298   0.00000  Uiso   1.00
O848   O     0.91668   0.70127   0.72702   0.00000  Uiso   1.00
O849   O     0.70127   0.91668   0.72702   0.00000  Uiso   1.00
O850   O     0.79874   0.58332   0.27298   0.00000  Uiso   1.00
O851   O     0.91668   0.79873   0.72702   0.00000  Uiso   1.00
O852   O     0.58332   0.70126   0.27298   0.00000  Uiso   1.00
O853   O     0.79874   0.58332   0.72702   0.00000  Uiso   1.00
O854   O     0.70127   0.91668   0.27298   0.00000  Uiso   1.00
O855   O     0.58332   0.70126   0.72702   0.00000  Uiso   1.00
O856   O     0.91668   0.79873   0.27298   0.00000  Uiso   1.00
O857   O     0.95127   0.83332   0.77298   0.00000  Uiso   1.00
O858   O     0.54874   0.66668   0.22702   0.00000  Uiso   1.00
O859   O     0.66668   0.95126   0.77298   0.00000  Uiso   1.00
O860   O     0.83332   0.54874   0.22702   0.00000  Uiso   1.00
O861   O     0.54874   0.66668   0.77298   0.00000  Uiso   1.00
O862   O     0.95127   0.83332   0.22702   0.00000  Uiso   1.00
O863   O     0.83332   0.54874   0.77298   0.00000  Uiso   1.00
O864   O     0.66668   0.95126   0.22702   0.00000  Uiso   1.00
O865   O     0.95127   0.66668   0.22702   0.00000  Uiso   1.00
O866   O     0.54874   0.83332   0.77298   0.00000  Uiso   1.00
O867   O     0.66668   0.54874   0.22702   0.00000  Uiso   1.00
O868   O     0.83332   0.95126   0.77298   0.00000  Uiso   1.00
O869   O     0.54874   0.83332   0.22702   0.00000  Uiso   1.00
O870   O     0.95127   0.66668   0.77298   0.00000  Uiso   1.00
O871   O     0.83332   0.95126   0.22702   0.00000  Uiso   1.00
O872   O     0.66668   0.54874   0.77298   0.00000  Uiso   1.00
C873   C     0.75000   0.50000   0.35578   0.00000  Uiso   1.00
C874   C     0.75000   0.50000   0.64416   0.00000  Uiso   1.00
C875   C     0.50000   0.75000   0.35584   0.00000  Uiso   1.00
C876   C     0.50000   0.75000   0.64422   0.00000  Uiso   1.00
C877   C     0.50000   0.75000   0.85585   0.00000  Uiso   1.00
C878   C     0.50000   0.75000   0.14423   0.00000  Uiso   1.00
C879   C     0.75000   0.50000   0.85578   0.00000  Uiso   1.00
C880   C     0.75000   0.50000   0.14415   0.00000  Uiso   1.00
C881   C     0.66997   0.58002   0.25001   0.00000  Uiso   1.00
C882   C     0.83003   0.91998   0.74999   0.00000  Uiso   1.00
C883   C     0.91997   0.66998   0.24999   0.00000  Uiso   1.00
C884   C     0.58003   0.83002   0.75001   0.00000  Uiso   1.00
C885   C     0.83003   0.91998   0.25001   0.00000  Uiso   1.00
C886   C     0.66997   0.58002   0.74999   0.00000  Uiso   1.00
C887   C     0.58003   0.83002   0.24999   0.00000  Uiso   1.00
C888   C     0.91997   0.66998   0.75001   0.00000  Uiso   1.00
C889   C     0.66998   0.91997   0.75001   0.00000  Uiso   1.00
C890   C     0.83002   0.58003   0.24999   0.00000  Uiso   1.00
C891   C     0.91998   0.83003   0.74999   0.00000  Uiso   1.00
C892   C     0.58002   0.66997   0.25001   0.00000  Uiso   1.00
C893   C     0.83002   0.58003   0.75001   0.00000  Uiso   1.00
C894   C     0.66998   0.91997   0.24999   0.00000  Uiso   1.00
C895   C     0.58002   0.66997   0.74999   0.00000  Uiso   1.00
C896   C     0.91998   0.83003   0.25001   0.00000  Uiso   1.00
C897   C     0.63834   0.88832   0.24998   0.00000  Uiso   1.00
C898   C     0.86166   0.61168   0.75001   0.00000  Uiso   1.00
C899   C     0.61166   0.63832   0.25001   0.00000  Uiso   1.00
C900   C     0.88834   0.86168   0.74998   0.00000  Uiso   1.00
C901   C     0.86166   0.61168   0.24998   0.00000  Uiso   1.00
C902   C     0.63834   0.88832   0.75001   0.00000  Uiso   1.00
C903   C     0.88834   0.86168   0.25001   0.00000  Uiso   1.00
C904   C     0.61166   0.63832   0.74998   0.00000  Uiso   1.00
C905   C     0.63832   0.61166   0.74999   0.00000  Uiso   1.00
C906   C     0.86168   0.88834   0.25001   0.00000  Uiso   1.00
C907   C     0.61168   0.86166   0.75001   0.00000  Uiso   1.00
C908   C     0.88832   0.63834   0.24998   0.00000  Uiso   1.00
C909   C     0.86168   0.88834   0.74999   0.00000  Uiso   1.00
C910   C     0.63832   0.61166   0.25001   0.00000  Uiso   1.00
C911   C     0.88832   0.63834   0.75001   0.00000  Uiso   1.00
C912   C     0.61168   0.86166   0.24998   0.00000  Uiso   1.00
C913   C     0.98513   0.78536   0.41811   0.00000  Uiso   1.00
C914   C     0.50307   0.71179   0.58213   0.00000  Uiso   1.00
C915   C     0.71181   0.50326   0.41787   0.00000  Uiso   1.00
C916   C     0.78530   0.98501   0.58188   0.00000  Uiso   1.00
C917   C     0.51487   0.71464   0.41811   0.00000  Uiso   1.00
C918   C     0.99693   0.78821   0.58213   0.00000  Uiso   1.00
C919   C     0.78819   0.99674   0.41787   0.00000  Uiso   1.00
C920   C     0.71470   0.51500   0.58188   0.00000  Uiso   1.00
C921   C     0.75323   0.53819   0.91788   0.00000  Uiso   1.00
C922   C     0.73488   0.96475   0.08188   0.00000  Uiso   1.00
C923   C     0.96493   0.73447   0.91812   0.00000  Uiso   1.00
C924   C     0.53814   0.75382   0.08213   0.00000  Uiso   1.00
C925   C     0.74677   0.96180   0.91788   0.00000  Uiso   1.00
C926   C     0.76513   0.53525   0.08188   0.00000  Uiso   1.00
C927   C     0.53508   0.76551   0.91813   0.00000  Uiso   1.00
C928   C     0.96186   0.74617   0.08213   0.00000  Uiso   1.00
C929   C     0.50000   0.75000   0.39816   0.00000  Uiso   1.00
C930   C     0.50000   0.75000   0.60204   0.00000  Uiso   1.00
C931   C     0.75000   0.50000   0.39796   0.00000  Uiso   1.00
C932   C     0.75000   0.50000   0.60184   0.00000  Uiso   1.00
C933   C     0.75000   0.50000   0.89796   0.00000  Uiso   1.00
C934   C     0.75000   0.50000   0.10183   0.00000  Uiso   1.00
C935   C     0.50000   0.75000   0.89817   0.00000  Uiso   1.00
C936   C     0.50000   0.75000   0.10205   0.00000  Uiso   1.00
C937   C     0.51116   0.71281   0.45902   0.00000  Uiso   1.00
C938   C     0.99268   0.78809   0.54126   0.00000  Uiso   1.00
C939   C     0.78806   0.99251   0.45874   0.00000  Uiso   1.00
C940   C     0.71285   0.51129   0.54098   0.00000  Uiso   1.00
C941   C     0.98884   0.78719   0.45902   0.00000  Uiso   1.00
C942   C     0.50733   0.71191   0.54126   0.00000  Uiso   1.00
C943   C     0.71194   0.50749   0.45874   0.00000  Uiso   1.00
C944   C     0.78715   0.98871   0.54098   0.00000  Uiso   1.00
C945   C     0.74237   0.96199   0.95873   0.00000  Uiso   1.00
C946   C     0.76152   0.53709   0.04097   0.00000  Uiso   1.00
C947   C     0.53696   0.76193   0.95904   0.00000  Uiso   1.00
C948   C     0.96211   0.74183   0.04128   0.00000  Uiso   1.00
C949   C     0.75765   0.53800   0.95873   0.00000  Uiso   1.00
C950   C     0.73850   0.96290   0.04097   0.00000  Uiso   1.00
C951   C     0.96305   0.73805   0.95904   0.00000  Uiso   1.00
C952   C     0.53790   0.75815   0.04128   0.00000  Uiso   1.00
C953   C     0.50000   0.75000   0.47958   0.00000  Uiso   1.00
C954   C     0.50000   0.75000   0.52068   0.00000  Uiso   1.00
C955   C     0.75000   0.50000   0.47932   0.00000  Uiso   1.00
C956   C     0.75000   0.50000   0.52042   0.00000  Uiso   1.00
C957   C     0.75001   0.50000   0.97932   0.00000  Uiso   1.00
C958   C     0.75001   0.50000   0.02041   0.00000  Uiso   1.00
C959   C     0.50000   0.74999   0.97959   0.00000  Uiso   1.00
C960   C     0.50000   0.74999   0.02069   0.00000  Uiso   1.00
C961   C     0.51883   0.67515   0.47988   0.00000  Uiso   1.00
C962   C     0.98192   0.82499   0.52051   0.00000  Uiso   1.00
C963   C     0.82492   0.98163   0.47949   0.00000  Uiso   1.00
C964   C     0.67522   0.51910   0.52012   0.00000  Uiso   1.00
C965   C     0.98117   0.82485   0.47988   0.00000  Uiso   1.00
C966   C     0.51808   0.67501   0.52051   0.00000  Uiso   1.00
C967   C     0.67508   0.51837   0.47949   0.00000  Uiso   1.00
C968   C     0.82478   0.98090   0.52012   0.00000  Uiso   1.00
C969   C     0.73114   0.92522   0.97944   0.00000  Uiso   1.00
C970   C     0.76965   0.57464   0.02007   0.00000  Uiso   1.00
C971   C     0.57441   0.77049   0.97993   0.00000  Uiso   1.00
C972   C     0.92548   0.73016   0.02056   0.00000  Uiso   1.00
C973   C     0.76889   0.57477   0.97943   0.00000  Uiso   1.00
C974   C     0.73038   0.92535   0.02007   0.00000  Uiso   1.00
C975   C     0.92560   0.72947   0.97993   0.00000  Uiso   1.00
C976   C     0.57454   0.76979   0.02056   0.00000  Uiso   1.00
N977   N     0.96486   0.81830   0.39656   0.00000  Uiso   1.00
O978   O     0.98526   0.83867   0.36977   0.00000  Uiso   1.00
O979   O     0.92461   0.82429   0.40047   0.00000  Uiso   1.00
N980   N     0.99857   0.67322   0.60348   0.00000  Uiso   1.00
O981   O     0.52479   0.66372   0.63111   0.00000  Uiso   1.00
O982   O     0.96562   0.64973   0.59791   0.00000  Uiso   1.00
N983   N     0.67322   0.99898   0.39651   0.00000  Uiso   1.00
O984   O     0.66382   0.52531   0.36895   0.00000  Uiso   1.00
O985   O     0.64961   0.96609   0.40198   0.00000  Uiso   1.00
N986   N     0.81818   0.96462   0.60344   0.00000  Uiso   1.00
O987   O     0.83863   0.98496   0.63022   0.00000  Uiso   1.00
O988   O     0.82404   0.92436   0.59953   0.00000  Uiso   1.00
N989   N     0.53514   0.68170   0.39656   0.00000  Uiso   1.00
O990   O     0.51474   0.66132   0.36977   0.00000  Uiso   1.00
O991   O     0.57539   0.67571   0.40047   0.00000  Uiso   1.00
N992   N     0.50143   0.82678   0.60348   0.00000  Uiso   1.00
O993   O     0.97521   0.83628   0.63111   0.00000  Uiso   1.00
O994   O     0.53438   0.85027   0.59791   0.00000  Uiso   1.00
N995   N     0.82678   0.50102   0.39651   0.00000  Uiso   1.00
O996   O     0.83618   0.97469   0.36895   0.00000  Uiso   1.00
O997   O     0.85039   0.53391   0.40198   0.00000  Uiso   1.00
N998   N     0.68182   0.53538   0.60344   0.00000  Uiso   1.00
O999   O     0.66137   0.51504   0.63022   0.00000  Uiso   1.00
O1000  O     0.67597   0.57564   0.59953   0.00000  Uiso   1.00
N1001  N     0.74865   0.57682   0.89662   0.00000  Uiso   1.00
O1002  O     0.77445   0.58618   0.86861   0.00000  Uiso   1.00
O1003  O     0.71614   0.60072   0.90289   0.00000  Uiso   1.00
N1004  N     0.71448   0.93193   0.10346   0.00000  Uiso   1.00
O1005  O     0.73492   0.91128   0.13006   0.00000  Uiso   1.00
O1006  O     0.67413   0.92642   0.09992   0.00000  Uiso   1.00
N1007  N     0.93231   0.71377   0.89653   0.00000  Uiso   1.00
O1008  O     0.91140   0.73404   0.87000   0.00000  Uiso   1.00
O1009  O     0.92728   0.67334   0.89998   0.00000  Uiso   1.00
N1010  N     0.57682   0.74991   0.10342   0.00000  Uiso   1.00
O1011  O     0.58585   0.77607   0.13123   0.00000  Uiso   1.00
O1012  O     0.60108   0.71761   0.09744   0.00000  Uiso   1.00
N1013  N     0.75134   0.92317   0.89662   0.00000  Uiso   1.00
O1014  O     0.72552   0.91382   0.86862   0.00000  Uiso   1.00
O1015  O     0.78386   0.89929   0.90285   0.00000  Uiso   1.00
N1016  N     0.78551   0.56808   0.10347   0.00000  Uiso   1.00
O1017  O     0.76506   0.58873   0.13005   0.00000  Uiso   1.00
O1018  O     0.82588   0.57356   0.09995   0.00000  Uiso   1.00
N1019  N     0.56769   0.78624   0.89653   0.00000  Uiso   1.00
O1020  O     0.58859   0.76598   0.86999   0.00000  Uiso   1.00
O1021  O     0.57274   0.82666   0.90003   0.00000  Uiso   1.00
N1022  N     0.92318   0.75011   0.10341   0.00000  Uiso   1.00
O1023  O     0.91415   0.72398   0.13124   0.00000  Uiso   1.00
O1024  O     0.89890   0.78239   0.09738   0.00000  Uiso   1.00
N1025  N     0.52494   0.63584   0.46026   0.00000  Uiso   1.00
O1026  O     0.99328   0.61777   0.44313   0.00000  Uiso   1.00
O1027  O     0.56004   0.61529   0.46435   0.00000  Uiso   1.00
N1028  N     0.96859   0.86238   0.54033   0.00000  Uiso   1.00
O1029  O     0.93303   0.86250   0.55900   0.00000  Uiso   1.00
O1030  O     0.98925   0.89740   0.53606   0.00000  Uiso   1.00
N1031  N     0.86226   0.96816   0.45968   0.00000  Uiso   1.00
O1032  O     0.86230   0.93255   0.44110   0.00000  Uiso   1.00
O1033  O     0.89734   0.98875   0.46391   0.00000  Uiso   1.00
N1034  N     0.63593   0.52532   0.53974   0.00000  Uiso   1.00
O1035  O     0.61777   0.99372   0.55687   0.00000  Uiso   1.00
O1036  O     0.61549   0.56049   0.53566   0.00000  Uiso   1.00
N1037  N     0.97506   0.86416   0.46026   0.00000  Uiso   1.00
O1038  O     0.50672   0.88223   0.44312   0.00000  Uiso   1.00
O1039  O     0.93996   0.88471   0.46435   0.00000  Uiso   1.00
N1040  N     0.53142   0.63762   0.54033   0.00000  Uiso   1.00
O1041  O     0.56697   0.63750   0.55900   0.00000  Uiso   1.00
O1042  O     0.51075   0.60260   0.53606   0.00000  Uiso   1.00
N1043  N     0.63774   0.53184   0.45968   0.00000  Uiso   1.00
O1044  O     0.63770   0.56745   0.44110   0.00000  Uiso   1.00
O1045  O     0.60266   0.51125   0.46391   0.00000  Uiso   1.00
N1046  N     0.86407   0.97468   0.53974   0.00000  Uiso   1.00
O1047  O     0.88223   0.50628   0.55687   0.00000  Uiso   1.00
O1048  O     0.88452   0.93951   0.53566   0.00000  Uiso   1.00
N1049  N     0.71716   0.88811   0.95956   0.00000  Uiso   1.00
O1050  O     0.68195   0.88883   0.94036   0.00000  Uiso   1.00
O1051  O     0.73699   0.85263   0.96402   0.00000  Uiso   1.00
N1052  N     0.77639   0.61386   0.03965   0.00000  Uiso   1.00
O1053  O     0.74497   0.63261   0.05654   0.00000  Uiso   1.00
O1054  O     0.81190   0.63372   0.03569   0.00000  Uiso   1.00
N1055  N     0.61356   0.77762   0.96034   0.00000  Uiso   1.00
O1056  O     0.63263   0.74637   0.94349   0.00000  Uiso   1.00
O1057  O     0.63305   0.81333   0.96430   0.00000  Uiso   1.00
N1058  N     0.88853   0.71572   0.04042   0.00000  Uiso   1.00
O1059  O     0.88960   0.68036   0.05938   0.00000  Uiso   1.00
O1060  O     0.85285   0.73520   0.03606   0.00000  Uiso   1.00
N1061  N     0.78289   0.61187   0.95955   0.00000  Uiso   1.00
O1062  O     0.81809   0.61112   0.94033   0.00000  Uiso   1.00
O1063  O     0.76309   0.64737   0.96402   0.00000  Uiso   1.00
N1064  N     0.72367   0.88613   0.03966   0.00000  Uiso   1.00
O1065  O     0.75510   0.86742   0.05656   0.00000  Uiso   1.00
O1066  O     0.68818   0.86624   0.03569   0.00000  Uiso   1.00
N1067  N     0.88646   0.72231   0.96035   0.00000  Uiso   1.00
O1068  O     0.86734   0.75354   0.94352   0.00000  Uiso   1.00
O1069  O     0.86701   0.68657   0.96429   0.00000  Uiso   1.00
N1070  N     0.61150   0.78421   0.04041   0.00000  Uiso   1.00
O1071  O     0.61048   0.81959   0.05934   0.00000  Uiso   1.00
O1072  O     0.64715   0.76467   0.03607   0.00000  Uiso   1.00
loop_
_geom_bond_atom_site_label_1
_geom_bond_atom_site_label_2
_geom_bond_distance
_geom_bond_site_symmetry_2
_ccdc_geom_bond_type
Zn1    O596    1.916   1_545 S
Zn1    O17     1.936   .     S
Zn1    O32     1.947   .     S
Zn1    O63     1.916   .     S
Zn2    O18     1.936   .     S
Zn2    O600    1.916   1_545 S
Zn2    O31     1.947   .     S
Zn2    O59     1.916   .     S
Zn3    O54     1.916   .     S
Zn3    O19     1.936   .     S
Zn3    O34     1.947   .     S
Zn3    O329    1.916   1_455 S
Zn4    O321    1.916   1_455 S
Zn4    O20     1.936   .     S
Zn4    O33     1.947   .     S
Zn4    O62     1.916   .     S
Zn5    O603    1.916   1_545 S
Zn5    O17     1.936   .     S
Zn5    O36     1.947   .     S
Zn5    O56     1.916   .     S
Zn6    O591    1.916   1_545 S
Zn6    O35     1.947   .     S
Zn6    O18     1.936   .     S
Zn6    O68     1.916   .     S
Zn7    O65     1.916   .     S
Zn7    O19     1.936   .     S
Zn7    O30     1.947   .     S
Zn7    O326    1.916   1_455 S
Zn8    O57     1.916   .     S
Zn8    O20     1.936   .     S
Zn8    O29     1.947   .     S
Zn8    O334    1.916   1_455 S
Zn9    O47     1.916   .     S
Zn9    O44     1.916   .     S
Zn9    O24     1.947   .     S
Zn9    O288    1.936   .     S
Zn10   O48     1.916   .     S
Zn10   O43     1.916   .     S
Zn10   O23     1.947   .     S
Zn10   O19     1.936   .     S
Zn11   O554    1.936   .     S
Zn11   O26     1.947   .     S
Zn11   O38     1.916   .     S
Zn11   O45     1.916   .     S
Zn12   O37     1.916   .     S
Zn12   O46     1.916   .     S
Zn12   O25     1.947   .     S
Zn12   O17     1.936   .     S
Zn13   O40     1.916   .     S
Zn13   O51     1.916   .     S
Zn13   O28     1.947   .     S
Zn13   O20     1.936   .     S
Zn14   O39     1.916   .     S
Zn14   O52     1.916   .     S
Zn14   O27     1.947   .     S
Zn14   O287    1.936   .     S
Zn15   O22     1.947   .     S
Zn15   O42     1.916   .     S
Zn15   O49     1.916   .     S
Zn15   O18     1.936   .     S
Zn16   O21     1.947   .     S
Zn16   O50     1.916   .     S
Zn16   O553    1.936   .     S
Zn16   O41     1.916   .     S
O17    Zn552   1.936   1_545 S
O18    Zn547   1.936   1_545 S
O19    Zn282   1.936   1_455 S
O20    Zn277   1.936   1_455 S
O21    C605    1.269   .     A
O22    C70     1.270   .     S
O23    C71     1.270   .     S
O24    C340    1.269   .     S
O25    C69     1.269   .     S
O26    C606    1.270   .     A
O27    C339    1.270   .     A
O28    C72     1.269   .     A
O29    C73     1.270   .     A
O30    C74     1.269   .     A
O31    C75     1.269   .     A
O32    C76     1.270   .     S
O33    C73     1.270   .     S
O34    C74     1.269   .     A
O35    C75     1.269   .     A
O36    C76     1.270   .     S
O37    C77     1.276   .     A
O38    C78     1.276   .     A
O39    C79     1.276   .     A
O40    C80     1.276   .     A
O41    C81     1.276   .     A
O42    C82     1.276   .     A
O43    C83     1.276   .     A
O44    C84     1.276   .     A
O45    C85     1.276   .     A
O46    C86     1.276   .     A
O47    C87     1.276   .     A
O48    C88     1.276   .     A
O49    C89     1.276   .     A
O50    C90     1.276   .     A
O51    C91     1.276   .     A
O52    C92     1.276   .     A
O53    Zn272   1.916   .     S
O53    C87     1.276   .     A
O54    C88     1.276   .     A
O55    Zn542   1.916   .     S
O55    C85     1.276   .     A
O56    C86     1.276   .     A
O57    C91     1.276   .     A
O58    C92     1.276   .     A
O58    Zn275   1.916   .     S
O59    C89     1.276   .     A
O60    Zn537   1.916   .     S
O60    C90     1.276   .     A
O61    C79     1.276   .     A
O61    Zn271   1.916   .     S
O62    C80     1.276   .     A
O63    C77     1.276   .     A
O64    Zn538   1.916   .     S
O64    C78     1.276   .     A
O65    C83     1.276   .     A
O66    C84     1.276   .     A
O66    Zn276   1.916   .     S
O67    Zn541   1.916   .     S
O67    C81     1.276   .     A
O68    C82     1.276   .     A
C69    O557    1.269   1_545 A
C69    C127    1.455   .     S
C70    O562    1.270   1_545 A
C70    C128    1.459   .     S
C71    O295    1.270   1_455 A
C71    C125    1.459   .     S
C72    C126    1.455   .     S
C72    O292    1.269   1_455 S
C73    C131    1.459   .     S
C74    C132    1.454   .     S
C75    C129    1.454   .     S
C76    C130    1.459   .     S
C77    C106    1.423   .     S
C78    C105    1.423   .     S
C79    C104    1.423   .     S
C80    C103    1.423   .     S
C81    C102    1.423   .     S
C82    C101    1.423   .     S
C83    C108    1.423   .     S
C84    C107    1.423   .     S
C85    C98     1.423   .     S
C86    C97     1.423   .     S
C87    C96     1.423   .     S
C88    C95     1.423   .     S
C89    C94     1.423   .     S
C90    C93     1.423   .     S
C91    C100    1.423   .     S
C92    C99     1.423   .     S
C93    C108    1.199   .     T
C94    C107    1.199   .     T
C95    C106    1.199   .     T
C96    C105    1.199   .     T
C97    C104    1.199   .     T
C98    C103    1.199   .     T
C99    C102    1.199   .     T
C100   C101    1.199   .     T
C109   N173    1.437   .     S
C109   C137    1.416   .     A
C109   C393    1.400   .     A
C110   C138    1.416   .     A
C110   C126    1.399   .     A
C110   N444    1.438   1_455 S
C111   C139    1.416   .     A
C111   C127    1.399   .     S
C111   N715    1.438   1_545 S
C112   C140    1.416   .     A
C112   N182    1.437   .     S
C112   C664    1.400   .     S
C113   N185    1.437   .     S
C113   C133    1.416   .     A
C113   C125    1.400   .     S
C114   C134    1.416   .     A
C114   C394    1.399   .     S
C114   N456    1.438   .     S
C115   C663    1.399   .     A
C115   C135    1.416   .     A
C115   N727    1.438   .     S
C116   N194    1.437   .     S
C116   C136    1.416   .     A
C116   C128    1.400   .     A
C117   N197    1.438   .     S
C117   C145    1.416   .     A
C117   C129    1.399   .     S
C118   N200    1.437   .     S
C118   C146    1.417   .     A
C118   C666    1.400   .     A
C119   C147    1.416   .     A
C119   N203    1.437   .     S
C119   C399    1.400   .     S
C120   C132    1.399   .     A
C120   N206    1.438   .     S
C120   C148    1.415   .     A
C121   N209    1.438   .     S
C121   C141    1.416   .     A
C121   C665    1.399   .     A
C122   N212    1.437   .     S
C122   C142    1.416   .     A
C122   C130    1.400   .     S
C123   N215    1.437   .     S
C123   C131    1.400   .     A
C123   C143    1.416   .     A
C124   N218    1.438   .     S
C124   C144    1.415   .     A
C124   C400    1.399   .     S
C125   C377    1.400   1_455 A
C126   C382    1.399   1_455 S
C127   C651    1.399   1_545 A
C128   C648    1.400   1_545 S
C129   C657    1.399   1_545 A
C130   C654    1.400   1_545 A
C131   C387    1.400   1_455 S
C132   C392    1.399   1_455 S
C133   C149    1.424   .     A
C133   C157    1.418   .     A
C134   C158    1.416   .     A
C134   C418    1.423   .     S
C135   C159    1.416   .     A
C135   C687    1.423   .     S
C136   C152    1.424   .     A
C136   C160    1.418   .     A
C137   C161    1.418   .     A
C137   C417    1.424   .     S
C138   C150    1.423   .     A
C138   C162    1.416   .     A
C139   C163    1.416   .     A
C139   C151    1.423   .     A
C140   C164    1.418   .     A
C140   C688    1.424   .     S
C141   C165    1.416   .     A
C141   C689    1.422   .     A
C142   C166    1.418   .     A
C142   C154    1.424   .     S
C143   C167    1.418   .     A
C143   C155    1.424   .     A
C144   C168    1.416   .     A
C144   C424    1.423   .     S
C145   C169    1.416   .     A
C145   C153    1.422   .     S
C146   C690    1.424   .     A
C146   C170    1.418   .     A
C147   C171    1.418   .     A
C147   C423    1.424   .     S
C148   C172    1.416   .     A
C148   C156    1.423   .     A
C149   C150    1.417   .     A
C149   C405    1.424   1_455 S
C150   C402    1.423   1_455 S
C151   C152    1.417   .     A
C151   C671    1.423   1_545 S
C152   C676    1.424   1_545 S
C153   C677    1.422   1_545 A
C153   C154    1.417   1_556 S
C154   C682    1.424   1_545 A
C154   C153    1.417   1_554 S
C155   C415    1.424   1_455 S
C155   C156    1.417   1_556 S
C156   C412    1.423   1_455 S
C156   C155    1.417   1_554 S
C157   N221    1.435   .     S
C157   C162    1.401   .     A
C158   C161    1.401   .     A
C158   N224    1.435   .     S
C159   N227    1.435   .     S
C159   C164    1.401   .     A
C160   C163    1.401   .     A
C160   N230    1.435   .     S
C161   N233    1.435   .     S
C162   N236    1.435   .     S
C163   N239    1.435   .     S
C164   N242    1.435   .     S
C165   N245    1.435   .     S
C165   C170    1.401   1_556 S
C166   N248    1.434   .     S
C166   C169    1.401   1_554 S
C167   N251    1.434   .     S
C167   C172    1.401   1_556 S
C168   N254    1.435   .     S
C168   C171    1.401   1_554 S
C169   N257    1.436   .     S
C169   C166    1.401   1_556 S
C170   N260    1.434   .     S
C170   C165    1.401   1_554 S
C171   N263    1.434   .     S
C171   C168    1.401   1_556 S
C172   N266    1.435   .     S
C172   C167    1.401   1_554 S
N173   O174    1.302   .     A
N173   O175    1.301   .     A
N176   O178    1.301   .     A
N176   C378    1.438   .     S
N176   O445    1.301   .     S
O177   N444    1.301   1_455 S
N179   O181    1.301   .     A
N179   C647    1.438   .     S
N179   O716    1.301   .     S
O180   N715    1.301   1_545 S
N182   O183    1.302   .     A
N182   O184    1.301   .     A
N185   O187    1.301   .     A
N185   O186    1.302   .     A
N188   O190    1.301   .     A
N188   C382    1.438   1_455 S
N188   O457    1.301   1_455 S
O189   N456    1.301   .     S
N191   O193    1.301   .     A
N191   C651    1.438   1_545 S
N191   O728    1.301   1_545 S
O192   N727    1.301   .     S
N194   O196    1.301   .     A
N194   O195    1.302   .     A
N197   O199    1.301   .     A
N197   O198    1.302   .     A
N200   O201    1.302   .     A
N200   O202    1.301   .     A
N203   O205    1.301   .     A
N203   O204    1.302   .     A
N206   O207    1.301   .     A
N206   O208    1.301   .     A
N209   O210    1.301   .     A
N209   O211    1.301   .     A
N212   O214    1.301   .     A
N212   O213    1.302   .     A
N215   O217    1.301   .     A
N215   O216    1.302   .     A
N218   O219    1.301   .     A
N218   O220    1.301   .     A
N221   O223    1.301   .     A
N221   O490    1.301   1_455 S
O222   N489    1.301   .     S
N224   O225    1.301   .     A
N224   O226    1.301   .     A
N227   O228    1.301   .     A
N227   O229    1.301   .     A
N230   O232    1.301   .     A
N230   O767    1.301   1_545 S
O231   N766    1.301   .     S
N233   O235    1.301   .     A
N233   O502    1.301   .     S
O234   N501    1.301   1_455 S
N236   O237    1.301   .     A
N236   O238    1.301   .     A
N239   O240    1.301   .     A
N239   O241    1.301   .     A
N242   O244    1.301   .     A
N242   O779    1.301   .     S
O243   N778    1.301   1_545 S
N245   O246    1.301   .     A
N245   O247    1.301   .     A
N248   O250    1.301   .     A
N248   O249    1.301   .     A
N251   O252    1.301   .     A
N251   O253    1.301   .     A
N254   O256    1.301   .     A
N254   O255    1.301   .     A
N257   O258    1.301   .     A
N257   O259    1.301   .     A
N260   O262    1.301   .     A
N260   O261    1.301   .     A
N263   O264    1.301   .     A
N263   O265    1.301   .     A
N266   O268    1.301   .     A
N266   O267    1.301   .     A
Zn269  O864    1.916   1_545 S
Zn269  O285    1.936   .     S
Zn269  O300    1.947   .     S
Zn269  O331    1.916   .     S
Zn270  O286    1.936   .     S
Zn270  O868    1.916   1_545 S
Zn270  O299    1.947   .     S
Zn270  O327    1.916   .     S
Zn271  O322    1.916   .     S
Zn271  O287    1.936   .     S
Zn271  O302    1.947   .     S
Zn272  O288    1.936   .     S
Zn272  O301    1.947   .     S
Zn272  O330    1.916   .     S
Zn273  O871    1.916   1_545 S
Zn273  O285    1.936   .     S
Zn273  O304    1.947   .     S
Zn273  O324    1.916   .     S
Zn274  O859    1.916   1_545 S
Zn274  O303    1.947   .     S
Zn274  O286    1.936   .     S
Zn274  O336    1.916   .     S
Zn275  O333    1.916   .     S
Zn275  O287    1.936   .     S
Zn275  O298    1.947   .     S
Zn276  O325    1.916   .     S
Zn276  O288    1.936   .     S
Zn276  O297    1.947   .     S
Zn277  O315    1.916   .     S
Zn277  O312    1.916   .     S
Zn277  O292    1.947   .     S
Zn277  O20     1.936   1_655 S
Zn278  O316    1.916   .     S
Zn278  O311    1.916   .     S
Zn278  O291    1.947   .     S
Zn278  O287    1.936   .     S
Zn279  O822    1.936   .     S
Zn279  O294    1.947   .     S
Zn279  O306    1.916   .     S
Zn279  O313    1.916   .     S
Zn280  O305    1.916   .     S
Zn280  O314    1.916   .     S
Zn280  O293    1.947   .     S
Zn280  O285    1.936   .     S
Zn281  O308    1.916   .     S
Zn281  O319    1.916   .     S
Zn281  O296    1.947   .     S
Zn281  O288    1.936   .     S
Zn282  O307    1.916   .     S
Zn282  O320    1.916   .     S
Zn282  O295    1.947   .     S
Zn282  O19     1.936   1_655 S
Zn283  O290    1.947   .     S
Zn283  O310    1.916   .     S
Zn283  O317    1.916   .     S
Zn283  O286    1.936   .     S
Zn284  O289    1.947   .     S
Zn284  O318    1.916   .     S
Zn284  O821    1.936   .     S
Zn284  O309    1.916   .     S
O285   Zn820   1.936   1_545 S
O286   Zn815   1.936   1_545 S
O289   C873    1.269   .     A
O290   C338    1.270   .     S
O291   C339    1.270   .     S
O292   C72     1.269   1_655 S
O293   C337    1.269   .     S
O294   C874    1.270   .     A
O295   C71     1.270   1_655 A
O296   C340    1.269   .     A
O297   C341    1.270   .     A
O298   C342    1.269   .     A
O299   C343    1.269   .     A
O300   C344    1.270   .     S
O301   C341    1.270   .     S
O302   C342    1.269   .     A
O303   C343    1.269   .     A
O304   C344    1.270   .     S
O305   C345    1.276   .     A
O306   C346    1.276   .     A
O307   C347    1.276   .     A
O308   C348    1.276   .     A
O309   C349    1.276   .     A
O310   C350    1.276   .     A
O311   C351    1.276   .     A
O312   C352    1.276   .     A
O313   C353    1.276   .     A
O314   C354    1.276   .     A
O315   C355    1.276   .     A
O316   C356    1.276   .     A
O317   C357    1.276   .     A
O318   C358    1.276   .     A
O319   C359    1.276   .     A
O320   C360    1.276   .     A
O321   Zn4     1.916   1_655 S
O321   C355    1.276   .     A
O322   C356    1.276   .     A
O323   Zn810   1.916   .     S
O323   C353    1.276   .     A
O324   C354    1.276   .     A
O325   C359    1.276   .     A
O326   C360    1.276   .     A
O326   Zn7     1.916   1_655 S
O327   C357    1.276   .     A
O328   Zn805   1.916   .     S
O328   C358    1.276   .     A
O329   C347    1.276   .     A
O329   Zn3     1.916   1_655 S
O330   C348    1.276   .     A
O331   C345    1.276   .     A
O332   Zn806   1.916   .     S
O332   C346    1.276   .     A
O333   C351    1.276   .     A
O334   C352    1.276   .     A
O334   Zn8     1.916   1_655 S
O335   Zn809   1.916   .     S
O335   C349    1.276   .     A
O336   C350    1.276   .     A
C337   O825    1.269   1_545 A
C337   C395    1.455   .     S
C338   O830    1.270   1_545 A
C338   C396    1.459   .     S
C339   C393    1.459   .     S
C340   C394    1.455   .     S
C341   C399    1.459   .     S
C342   C400    1.454   .     S
C343   C397    1.454   .     S
C344   C398    1.459   .     S
C345   C374    1.423   .     S
C346   C373    1.423   .     S
C347   C372    1.423   .     S
C348   C371    1.423   .     S
C349   C370    1.423   .     S
C350   C369    1.423   .     S
C351   C376    1.423   .     S
C352   C375    1.423   .     S
C353   C366    1.423   .     S
C354   C365    1.423   .     S
C355   C364    1.423   .     S
C356   C363    1.423   .     S
C357   C362    1.423   .     S
C358   C361    1.423   .     S
C359   C368    1.423   .     S
C360   C367    1.423   .     S
C361   C376    1.199   .     T
C362   C375    1.199   .     T
C363   C374    1.199   .     T
C364   C373    1.199   .     T
C365   C372    1.199   .     T
C366   C371    1.199   .     T
C367   C370    1.199   .     T
C368   C369    1.199   .     T
C377   N441    1.437   .     S
C377   C405    1.416   .     A
C377   C125    1.400   1_655 A
C378   C406    1.416   .     A
C378   C394    1.399   .     A
C379   C407    1.416   .     A
C379   C395    1.399   .     S
C379   N983    1.438   1_545 S
C380   C408    1.416   .     A
C380   N450    1.437   .     S
C380   C932    1.400   .     S
C381   N453    1.437   .     S
C381   C401    1.416   .     A
C381   C393    1.400   .     S
C382   C402    1.416   .     A
C382   C126    1.399   1_655 S
C382   N188    1.438   1_655 S
C383   C931    1.399   .     A
C383   C403    1.416   .     A
C383   N995    1.438   .     S
C384   N462    1.437   .     S
C384   C404    1.416   .     A
C384   C396    1.400   .     A
C385   N465    1.438   .     S
C385   C413    1.416   .     A
C385   C397    1.399   .     S
C386   N468    1.437   .     S
C386   C414    1.417   .     A
C386   C934    1.400   .     A
C387   C415    1.416   .     A
C387   N471    1.437   .     S
C387   C131    1.400   1_655 S
C388   C400    1.399   .     A
C388   N474    1.438   .     S
C388   C416    1.415   .     A
C389   N477    1.438   .     S
C389   C409    1.416   .     A
C389   C933    1.399   .     A
C390   N480    1.437   .     S
C390   C410    1.416   .     A
C390   C398    1.400   .     S
C391   N483    1.437   .     S
C391   C399    1.400   .     A
C391   C411    1.416   .     A
C392   N486    1.438   .     S
C392   C412    1.415   .     A
C392   C132    1.399   1_655 S
C395   C919    1.399   1_545 A
C396   C916    1.400   1_545 S
C397   C925    1.399   1_545 A
C398   C922    1.400   1_545 A
C401   C417    1.424   .     A
C401   C425    1.418   .     A
C402   C426    1.416   .     A
C402   C150    1.423   1_655 S
C403   C427    1.416   .     A
C403   C955    1.423   .     S
C404   C420    1.424   .     A
C404   C428    1.418   .     A
C405   C429    1.418   .     A
C405   C149    1.424   1_655 S
C406   C418    1.423   .     A
C406   C430    1.416   .     A
C407   C431    1.416   .     A
C407   C419    1.423   .     A
C408   C432    1.418   .     A
C408   C956    1.424   .     S
C409   C433    1.416   .     A
C409   C957    1.422   .     A
C410   C434    1.418   .     A
C410   C422    1.424   .     S
C411   C435    1.418   .     A
C411   C423    1.424   .     A
C412   C436    1.416   .     A
C412   C156    1.423   1_655 S
C413   C437    1.416   .     A
C413   C421    1.422   .     S
C414   C958    1.424   .     A
C414   C438    1.418   .     A
C415   C439    1.418   .     A
C415   C155    1.424   1_655 S
C416   C440    1.416   .     A
C416   C424    1.423   .     A
C417   C418    1.417   .     A
C419   C420    1.417   .     A
C419   C939    1.423   1_545 S
C420   C944    1.424   1_545 S
C421   C945    1.422   1_545 A
C421   C422    1.417   1_556 S
C422   C950    1.424   1_545 A
C422   C421    1.417   1_554 S
C423   C424    1.417   1_556 S
C424   C423    1.417   1_554 S
C425   N489    1.435   .     S
C425   C430    1.401   .     A
C426   C429    1.401   .     A
C426   N492    1.435   .     S
C427   N495    1.435   .     S
C427   C432    1.401   .     A
C428   C431    1.401   .     A
C428   N498    1.435   .     S
C429   N501    1.435   .     S
C430   N504    1.435   .     S
C431   N507    1.435   .     S
C432   N510    1.435   .     S
C433   N513    1.435   .     S
C433   C438    1.401   1_556 S
C434   N516    1.434   .     S
C434   C437    1.401   1_554 S
C435   N519    1.434   .     S
C435   C440    1.401   1_556 S
C436   N522    1.435   .     S
C436   C439    1.401   1_554 S
C437   N525    1.436   .     S
C437   C434    1.401   1_556 S
C438   N528    1.434   .     S
C438   C433    1.401   1_554 S
C439   N531    1.434   .     S
C439   C436    1.401   1_556 S
C440   N534    1.435   .     S
C440   C435    1.401   1_554 S
N441   O442    1.302   .     A
N441   O443    1.301   .     A
N444   O446    1.301   .     A
N444   C110    1.438   1_655 S
N444   O177    1.301   1_655 S
N447   O449    1.301   .     A
N447   C915    1.438   .     S
N447   O984    1.301   .     S
O448   N983    1.301   1_545 S
N450   O451    1.302   .     A
N450   O452    1.301   .     A
N453   O455    1.301   .     A
N453   O454    1.302   .     A
N456   O458    1.301   .     A
O457   N188    1.301   1_655 S
N459   O461    1.301   .     A
N459   C919    1.438   1_545 S
N459   O996    1.301   1_545 S
O460   N995    1.301   .     S
N462   O464    1.301   .     A
N462   O463    1.302   .     A
N465   O467    1.301   .     A
N465   O466    1.302   .     A
N468   O469    1.302   .     A
N468   O470    1.301   .     A
N471   O473    1.301   .     A
N471   O472    1.302   .     A
N474   O475    1.301   .     A
N474   O476    1.301   .     A
N477   O478    1.301   .     A
N477   O479    1.301   .     A
N480   O482    1.301   .     A
N480   O481    1.302   .     A
N483   O485    1.301   .     A
N483   O484    1.302   .     A
N486   O487    1.301   .     A
N486   O488    1.301   .     A
N489   O491    1.301   .     A
O490   N221    1.301   1_655 S
N492   O493    1.301   .     A
N492   O494    1.301   .     A
N495   O496    1.301   .     A
N495   O497    1.301   .     A
N498   O500    1.301   .     A
N498   O1035   1.301   1_545 S
O499   N1034   1.301   .     S
N501   O503    1.301   .     A
N501   O234    1.301   1_655 S
N504   O505    1.301   .     A
N504   O506    1.301   .     A
N507   O508    1.301   .     A
N507   O509    1.301   .     A
N510   O512    1.301   .     A
N510   O1047   1.301   .     S
O511   N1046   1.301   1_545 S
N513   O514    1.301   .     A
N513   O515    1.301   .     A
N516   O518    1.301   .     A
N516   O517    1.301   .     A
N519   O520    1.301   .     A
N519   O521    1.301   .     A
N522   O524    1.301   .     A
N522   O523    1.301   .     A
N525   O526    1.301   .     A
N525   O527    1.301   .     A
N528   O530    1.301   .     A
N528   O529    1.301   .     A
N531   O532    1.301   .     A
N531   O533    1.301   .     A
N534   O536    1.301   .     A
N534   O535    1.301   .     A
Zn537  O553    1.936   .     S
Zn537  O568    1.947   .     S
Zn537  O599    1.916   .     S
Zn538  O554    1.936   .     S
Zn538  O567    1.947   .     S
Zn538  O595    1.916   .     S
Zn539  O590    1.916   .     S
Zn539  O555    1.936   .     S
Zn539  O570    1.947   .     S
Zn539  O865    1.916   1_455 S
Zn540  O857    1.916   1_455 S
Zn540  O556    1.936   .     S
Zn540  O569    1.947   .     S
Zn540  O598    1.916   .     S
Zn541  O553    1.936   .     S
Zn541  O572    1.947   .     S
Zn541  O592    1.916   .     S
Zn542  O571    1.947   .     S
Zn542  O554    1.936   .     S
Zn542  O604    1.916   .     S
Zn543  O601    1.916   .     S
Zn543  O555    1.936   .     S
Zn543  O566    1.947   .     S
Zn543  O862    1.916   1_455 S
Zn544  O593    1.916   .     S
Zn544  O556    1.936   .     S
Zn544  O565    1.947   .     S
Zn544  O870    1.916   1_455 S
Zn545  O583    1.916   .     S
Zn545  O580    1.916   .     S
Zn545  O560    1.947   .     S
Zn545  O824    1.936   .     S
Zn546  O584    1.916   .     S
Zn546  O579    1.916   .     S
Zn546  O559    1.947   .     S
Zn546  O555    1.936   .     S
Zn547  O18     1.936   1_565 S
Zn547  O562    1.947   .     S
Zn547  O574    1.916   .     S
Zn547  O581    1.916   .     S
Zn548  O573    1.916   .     S
Zn548  O582    1.916   .     S
Zn548  O561    1.947   .     S
Zn548  O553    1.936   .     S
Zn549  O576    1.916   .     S
Zn549  O587    1.916   .     S
Zn549  O564    1.947   .     S
Zn549  O556    1.936   .     S
Zn550  O575    1.916   .     S
Zn550  O588    1.916   .     S
Zn550  O563    1.947   .     S
Zn550  O823    1.936   .     S
Zn551  O558    1.947   .     S
Zn551  O578    1.916   .     S
Zn551  O585    1.916   .     S
Zn551  O554    1.936   .     S
Zn552  O557    1.947   .     S
Zn552  O586    1.916   .     S
Zn552  O17     1.936   1_565 S
Zn552  O577    1.916   .     S
O555   Zn818   1.936   1_455 S
O556   Zn813   1.936   1_455 S
O557   C69     1.269   1_565 A
O558   C606    1.270   .     S
O559   C607    1.270   .     S
O560   C876    1.269   .     S
O561   C605    1.269   .     S
O562   C70     1.270   1_565 A
O563   C875    1.270   .     A
O564   C608    1.269   .     A
O565   C609    1.270   .     A
O566   C610    1.269   .     A
O567   C611    1.269   .     A
O568   C612    1.270   .     S
O569   C609    1.270   .     S
O570   C610    1.269   .     A
O571   C611    1.269   .     A
O572   C612    1.270   .     S
O573   C613    1.276   .     A
O574   C614    1.276   .     A
O575   C615    1.276   .     A
O576   C616    1.276   .     A
O577   C617    1.276   .     A
O578   C618    1.276   .     A
O579   C619    1.276   .     A
O580   C620    1.276   .     A
O581   C621    1.276   .     A
O582   C622    1.276   .     A
O583   C623    1.276   .     A
O584   C624    1.276   .     A
O585   C625    1.276   .     A
O586   C626    1.276   .     A
O587   C627    1.276   .     A
O588   C628    1.276   .     A
O589   Zn808   1.916   .     S
O589   C623    1.276   .     A
O590   C624    1.276   .     A
O591   Zn6     1.916   1_565 S
O591   C621    1.276   .     A
O592   C622    1.276   .     A
O593   C627    1.276   .     A
O594   C628    1.276   .     A
O594   Zn811   1.916   .     S
O595   C625    1.276   .     A
O596   Zn1     1.916   1_565 S
O596   C626    1.276   .     A
O597   C615    1.276   .     A
O597   Zn807   1.916   .     S
O598   C616    1.276   .     A
O599   C613    1.276   .     A
O600   Zn2     1.916   1_565 S
O600   C614    1.276   .     A
O601   C619    1.276   .     A
O602   C620    1.276   .     A
O602   Zn812   1.916   .     S
O603   Zn5     1.916   1_565 S
O603   C617    1.276   .     A
O604   C618    1.276   .     A
C605   C663    1.455   .     S
C606   C664    1.459   .     S
C607   O831    1.270   1_455 A
C607   C661    1.459   .     S
C608   C662    1.455   .     S
C608   O828    1.269   1_455 S
C609   C667    1.459   .     S
C610   C668    1.454   .     S
C611   C665    1.454   .     S
C612   C666    1.459   .     S
C613   C642    1.423   .     S
C614   C641    1.423   .     S
C615   C640    1.423   .     S
C616   C639    1.423   .     S
C617   C638    1.423   .     S
C618   C637    1.423   .     S
C619   C644    1.423   .     S
C620   C643    1.423   .     S
C621   C634    1.423   .     S
C622   C633    1.423   .     S
C623   C632    1.423   .     S
C624   C631    1.423   .     S
C625   C630    1.423   .     S
C626   C629    1.423   .     S
C627   C636    1.423   .     S
C628   C635    1.423   .     S
C629   C644    1.199   .     T
C630   C643    1.199   .     T
C631   C642    1.199   .     T
C632   C641    1.199   .     T
C633   C640    1.199   .     T
C634   C639    1.199   .     T
C635   C638    1.199   .     T
C636   C637    1.199   .     T
C645   N709    1.437   .     S
C645   C673    1.416   .     A
C645   C929    1.400   .     A
C646   C674    1.416   .     A
C646   C662    1.399   .     A
C646   N980    1.438   1_455 S
C647   C675    1.416   .     A
C647   C663    1.399   .     S
C648   C676    1.416   .     A
C648   N718    1.437   .     S
C648   C128    1.400   1_565 S
C649   N721    1.437   .     S
C649   C669    1.416   .     A
C649   C661    1.400   .     S
C650   C670    1.416   .     A
C650   C930    1.399   .     S
C650   N992    1.438   .     S
C651   C127    1.399   1_565 A
C651   C671    1.416   .     A
C651   N191    1.438   1_565 S
C652   N730    1.437   .     S
C652   C672    1.416   .     A
C652   C664    1.400   .     A
C653   N733    1.438   .     S
C653   C681    1.416   .     A
C653   C665    1.399   .     S
C654   N736    1.437   .     S
C654   C682    1.417   .     A
C654   C130    1.400   1_565 A
C655   C683    1.416   .     A
C655   N739    1.437   .     S
C655   C935    1.400   .     S
C656   C668    1.399   .     A
C656   N742    1.438   .     S
C656   C684    1.415   .     A
C657   N745    1.438   .     S
C657   C677    1.416   .     A
C657   C129    1.399   1_565 A
C658   N748    1.437   .     S
C658   C678    1.416   .     A
C658   C666    1.400   .     S
C659   N751    1.437   .     S
C659   C667    1.400   .     A
C659   C679    1.416   .     A
C660   N754    1.438   .     S
C660   C680    1.415   .     A
C660   C936    1.399   .     S
C661   C913    1.400   1_455 A
C662   C918    1.399   1_455 S
C667   C923    1.400   1_455 S
C668   C928    1.399   1_455 S
C669   C685    1.424   .     A
C669   C693    1.418   .     A
C670   C694    1.416   .     A
C670   C954    1.423   .     S
C671   C695    1.416   .     A
C671   C151    1.423   1_565 S
C672   C688    1.424   .     A
C672   C696    1.418   .     A
C673   C697    1.418   .     A
C673   C953    1.424   .     S
C674   C686    1.423   .     A
C674   C698    1.416   .     A
C675   C699    1.416   .     A
C675   C687    1.423   .     A
C676   C700    1.418   .     A
C676   C152    1.424   1_565 S
C677   C701    1.416   .     A
C677   C153    1.422   1_565 A
C678   C702    1.418   .     A
C678   C690    1.424   .     S
C679   C703    1.418   .     A
C679   C691    1.424   .     A
C680   C704    1.416   .     A
C680   C960    1.423   .     S
C681   C705    1.416   .     A
C681   C689    1.422   .     S
C682   C154    1.424   1_565 A
C682   C706    1.418   .     A
C683   C707    1.418   .     A
C683   C959    1.424   .     S
C684   C708    1.416   .     A
C684   C692    1.423   .     A
C685   C686    1.417   .     A
C685   C941    1.424   1_455 S
C686   C938    1.423   1_455 S
C687   C688    1.417   .     A
C689   C690    1.417   1_556 S
C690   C689    1.417   1_554 S
C691   C951    1.424   1_455 S
C691   C692    1.417   1_556 S
C692   C948    1.423   1_455 S
C692   C691    1.417   1_554 S
C693   N757    1.435   .     S
C693   C698    1.401   .     A
C694   C697    1.401   .     A
C694   N760    1.435   .     S
C695   N763    1.435   .     S
C695   C700    1.401   .     A
C696   C699    1.401   .     A
C696   N766    1.435   .     S
C697   N769    1.435   .     S
C698   N772    1.435   .     S
C699   N775    1.435   .     S
C700   N778    1.435   .     S
C701   N781    1.435   .     S
C701   C706    1.401   1_556 S
C702   N784    1.434   .     S
C702   C705    1.401   1_554 S
C703   N787    1.434   .     S
C703   C708    1.401   1_556 S
C704   N790    1.435   .     S
C704   C707    1.401   1_554 S
C705   N793    1.436   .     S
C705   C702    1.401   1_556 S
C706   N796    1.434   .     S
C706   C701    1.401   1_554 S
C707   N799    1.434   .     S
C707   C704    1.401   1_556 S
C708   N802    1.435   .     S
C708   C703    1.401   1_554 S
N709   O710    1.302   .     A
N709   O711    1.301   .     A
N712   O714    1.301   .     A
N712   C914    1.438   .     S
N712   O981    1.301   .     S
O713   N980    1.301   1_455 S
N715   O717    1.301   .     A
N715   C111    1.438   1_565 S
N715   O180    1.301   1_565 S
N718   O719    1.302   .     A
N718   O720    1.301   .     A
N721   O723    1.301   .     A
N721   O722    1.302   .     A
N724   O726    1.301   .     A
N724   C918    1.438   1_455 S
N724   O993    1.301   1_455 S
O725   N992    1.301   .     S
N727   O729    1.301   .     A
O728   N191    1.301   1_565 S
N730   O732    1.301   .     A
N730   O731    1.302   .     A
N733   O735    1.301   .     A
N733   O734    1.302   .     A
N736   O737    1.302   .     A
N736   O738    1.301   .     A
N739   O741    1.301   .     A
N739   O740    1.302   .     A
N742   O743    1.301   .     A
N742   O744    1.301   .     A
N745   O746    1.301   .     A
N745   O747    1.301   .     A
N748   O750    1.301   .     A
N748   O749    1.302   .     A
N751   O753    1.301   .     A
N751   O752    1.302   .     A
N754   O755    1.301   .     A
N754   O756    1.301   .     A
N757   O759    1.301   .     A
N757   O1026   1.301   1_455 S
O758   N1025   1.301   .     S
N760   O761    1.301   .     A
N760   O762    1.301   .     A
N763   O764    1.301   .     A
N763   O765    1.301   .     A
N766   O768    1.301   .     A
O767   N230    1.301   1_565 S
N769   O771    1.301   .     A
N769   O1038   1.301   .     S
O770   N1037   1.301   1_455 S
N772   O773    1.301   .     A
N772   O774    1.301   .     A
N775   O776    1.301   .     A
N775   O777    1.301   .     A
N778   O780    1.301   .     A
N778   O243    1.301   1_565 S
N781   O782    1.301   .     A
N781   O783    1.301   .     A
N784   O786    1.301   .     A
N784   O785    1.301   .     A
N787   O788    1.301   .     A
N787   O789    1.301   .     A
N790   O792    1.301   .     A
N790   O791    1.301   .     A
N793   O794    1.301   .     A
N793   O795    1.301   .     A
N796   O798    1.301   .     A
N796   O797    1.301   .     A
N799   O800    1.301   .     A
N799   O801    1.301   .     A
N802   O804    1.301   .     A
N802   O803    1.301   .     A
Zn805  O821    1.936   .     S
Zn805  O836    1.947   .     S
Zn805  O867    1.916   .     S
Zn806  O822    1.936   .     S
Zn806  O835    1.947   .     S
Zn806  O863    1.916   .     S
Zn807  O858    1.916   .     S
Zn807  O823    1.936   .     S
Zn807  O838    1.947   .     S
Zn808  O824    1.936   .     S
Zn808  O837    1.947   .     S
Zn808  O866    1.916   .     S
Zn809  O821    1.936   .     S
Zn809  O840    1.947   .     S
Zn809  O860    1.916   .     S
Zn810  O839    1.947   .     S
Zn810  O822    1.936   .     S
Zn810  O872    1.916   .     S
Zn811  O869    1.916   .     S
Zn811  O823    1.936   .     S
Zn811  O834    1.947   .     S
Zn812  O861    1.916   .     S
Zn812  O824    1.936   .     S
Zn812  O833    1.947   .     S
Zn813  O851    1.916   .     S
Zn813  O848    1.916   .     S
Zn813  O828    1.947   .     S
Zn813  O556    1.936   1_655 S
Zn814  O852    1.916   .     S
Zn814  O847    1.916   .     S
Zn814  O827    1.947   .     S
Zn814  O823    1.936   .     S
Zn815  O286    1.936   1_565 S
Zn815  O830    1.947   .     S
Zn815  O842    1.916   .     S
Zn815  O849    1.916   .     S
Zn816  O841    1.916   .     S
Zn816  O850    1.916   .     S
Zn816  O829    1.947   .     S
Zn816  O821    1.936   .     S
Zn817  O844    1.916   .     S
Zn817  O855    1.916   .     S
Zn817  O832    1.947   .     S
Zn817  O824    1.936   .     S
Zn818  O843    1.916   .     S
Zn818  O856    1.916   .     S
Zn818  O831    1.947   .     S
Zn818  O555    1.936   1_655 S
Zn819  O826    1.947   .     S
Zn819  O846    1.916   .     S
Zn819  O853    1.916   .     S
Zn819  O822    1.936   .     S
Zn820  O825    1.947   .     S
Zn820  O854    1.916   .     S
Zn820  O285    1.936   1_565 S
Zn820  O845    1.916   .     S
O825   C337    1.269   1_565 A
O826   C874    1.270   .     S
O827   C875    1.270   .     S
O828   C608    1.269   1_655 S
O829   C873    1.269   .     S
O830   C338    1.270   1_565 A
O831   C607    1.270   1_655 A
O832   C876    1.269   .     A
O833   C877    1.270   .     A
O834   C878    1.269   .     A
O835   C879    1.269   .     A
O836   C880    1.270   .     S
O837   C877    1.270   .     S
O838   C878    1.269   .     A
O839   C879    1.269   .     A
O840   C880    1.270   .     S
O841   C881    1.276   .     A
O842   C882    1.276   .     A
O843   C883    1.276   .     A
O844   C884    1.276   .     A
O845   C885    1.276   .     A
O846   C886    1.276   .     A
O847   C887    1.276   .     A
O848   C888    1.276   .     A
O849   C889    1.276   .     A
O850   C890    1.276   .     A
O851   C891    1.276   .     A
O852   C892    1.276   .     A
O853   C893    1.276   .     A
O854   C894    1.276   .     A
O855   C895    1.276   .     A
O856   C896    1.276   .     A
O857   Zn540   1.916   1_655 S
O857   C891    1.276   .     A
O858   C892    1.276   .     A
O859   Zn274   1.916   1_565 S
O859   C889    1.276   .     A
O860   C890    1.276   .     A
O861   C895    1.276   .     A
O862   C896    1.276   .     A
O862   Zn543   1.916   1_655 S
O863   C893    1.276   .     A
O864   Zn269   1.916   1_565 S
O864   C894    1.276   .     A
O865   C883    1.276   .     A
O865   Zn539   1.916   1_655 S
O866   C884    1.276   .     A
O867   C881    1.276   .     A
O868   Zn270   1.916   1_565 S
O868   C882    1.276   .     A
O869   C887    1.276   .     A
O870   C888    1.276   .     A
O870   Zn544   1.916   1_655 S
O871   Zn273   1.916   1_565 S
O871   C885    1.276   .     A
O872   C886    1.276   .     A
C873   C931    1.455   .     S
C874   C932    1.459   .     S
C875   C929    1.459   .     S
C876   C930    1.455   .     S
C877   C935    1.459   .     S
C878   C936    1.454   .     S
C879   C933    1.454   .     S
C880   C934    1.459   .     S
C881   C910    1.423   .     S
C882   C909    1.423   .     S
C883   C908    1.423   .     S
C884   C907    1.423   .     S
C885   C906    1.423   .     S
C886   C905    1.423   .     S
C887   C912    1.423   .     S
C888   C911    1.423   .     S
C889   C902    1.423   .     S
C890   C901    1.423   .     S
C891   C900    1.423   .     S
C892   C899    1.423   .     S
C893   C898    1.423   .     S
C894   C897    1.423   .     S
C895   C904    1.423   .     S
C896   C903    1.423   .     S
C897   C912    1.199   .     T
C898   C911    1.199   .     T
C899   C910    1.199   .     T
C900   C909    1.199   .     T
C901   C908    1.199   .     T
C902   C907    1.199   .     T
C903   C906    1.199   .     T
C904   C905    1.199   .     T
C913   N977    1.437   .     S
C913   C941    1.416   .     A
C913   C661    1.400   1_655 A
C914   C942    1.416   .     A
C914   C930    1.399   .     A
C915   C943    1.416   .     A
C915   C931    1.399   .     S
C916   C944    1.416   .     A
C916   N986    1.437   .     S
C916   C396    1.400   1_565 S
C917   N989    1.437   .     S
C917   C937    1.416   .     A
C917   C929    1.400   .     S
C918   C938    1.416   .     A
C918   C662    1.399   1_655 S
C918   N724    1.438   1_655 S
C919   C395    1.399   1_565 A
C919   C939    1.416   .     A
C919   N459    1.438   1_565 S
C920   N998    1.437   .     S
C920   C940    1.416   .     A
C920   C932    1.400   .     A
C921   N1001   1.438   .     S
C921   C949    1.416   .     A
C921   C933    1.399   .     S
C922   N1004   1.437   .     S
C922   C950    1.417   .     A
C922   C398    1.400   1_565 A
C923   C951    1.416   .     A
C923   N1007   1.437   .     S
C923   C667    1.400   1_655 S
C924   C936    1.399   .     A
C924   N1010   1.438   .     S
C924   C952    1.415   .     A
C925   N1013   1.438   .     S
C925   C945    1.416   .     A
C925   C397    1.399   1_565 A
C926   N1016   1.437   .     S
C926   C946    1.416   .     A
C926   C934    1.400   .     S
C927   N1019   1.437   .     S
C927   C935    1.400   .     A
C927   C947    1.416   .     A
C928   N1022   1.438   .     S
C928   C948    1.415   .     A
C928   C668    1.399   1_655 S
C937   C953    1.424   .     A
C937   C961    1.418   .     A
C938   C962    1.416   .     A
C938   C686    1.423   1_655 S
C939   C963    1.416   .     A
C939   C419    1.423   1_565 S
C940   C956    1.424   .     A
C940   C964    1.418   .     A
C941   C965    1.418   .     A
C941   C685    1.424   1_655 S
C942   C954    1.423   .     A
C942   C966    1.416   .     A
C943   C967    1.416   .     A
C943   C955    1.423   .     A
C944   C968    1.418   .     A
C944   C420    1.424   1_565 S
C945   C969    1.416   .     A
C945   C421    1.422   1_565 A
C946   C970    1.418   .     A
C946   C958    1.424   .     S
C947   C971    1.418   .     A
C947   C959    1.424   .     A
C948   C972    1.416   .     A
C948   C692    1.423   1_655 S
C949   C973    1.416   .     A
C949   C957    1.422   .     S
C950   C422    1.424   1_565 A
C950   C974    1.418   .     A
C951   C975    1.418   .     A
C951   C691    1.424   1_655 S
C952   C976    1.416   .     A
C952   C960    1.423   .     A
C953   C954    1.417   .     A
C955   C956    1.417   .     A
C957   C958    1.417   1_556 S
C958   C957    1.417   1_554 S
C959   C960    1.417   1_556 S
C960   C959    1.417   1_554 S
C961   N1025   1.435   .     S
C961   C966    1.401   .     A
C962   C965    1.401   .     A
C962   N1028   1.435   .     S
C963   N1031   1.435   .     S
C963   C968    1.401   .     A
C964   C967    1.401   .     A
C964   N1034   1.435   .     S
C965   N1037   1.435   .     S
C966   N1040   1.435   .     S
C967   N1043   1.435   .     S
C968   N1046   1.435   .     S
C969   N1049   1.435   .     S
C969   C974    1.401   1_556 S
C970   N1052   1.434   .     S
C970   C973    1.401   1_554 S
C971   N1055   1.434   .     S
C971   C976    1.401   1_556 S
C972   N1058   1.435   .     S
C972   C975    1.401   1_554 S
C973   N1061   1.436   .     S
C973   C970    1.401   1_556 S
C974   N1064   1.434   .     S
C974   C969    1.401   1_554 S
C975   N1067   1.434   .     S
C975   C972    1.401   1_556 S
C976   N1070   1.435   .     S
C976   C971    1.401   1_554 S
N977   O978    1.302   .     A
N977   O979    1.301   .     A
N980   O982    1.301   .     A
N980   C646    1.438   1_655 S
N980   O713    1.301   1_655 S
N983   O985    1.301   .     A
N983   C379    1.438   1_565 S
N983   O448    1.301   1_565 S
N986   O987    1.302   .     A
N986   O988    1.301   .     A
N989   O991    1.301   .     A
N989   O990    1.302   .     A
N992   O994    1.301   .     A
O993   N724    1.301   1_655 S
N995   O997    1.301   .     A
O996   N459    1.301   1_565 S
N998   O1000   1.301   .     A
N998   O999    1.302   .     A
N1001  O1003   1.301   .     A
N1001  O1002   1.302   .     A
N1004  O1005   1.302   .     A
N1004  O1006   1.301   .     A
N1007  O1009   1.301   .     A
N1007  O1008   1.302   .     A
N1010  O1011   1.301   .     A
N1010  O1012   1.301   .     A
N1013  O1014   1.301   .     A
N1013  O1015   1.301   .     A
N1016  O1018   1.301   .     A
N1016  O1017   1.302   .     A
N1019  O1021   1.301   .     A
N1019  O1020   1.302   .     A
N1022  O1023   1.301   .     A
N1022  O1024   1.301   .     A
N1025  O1027   1.301   .     A
O1026  N757    1.301   1_655 S
N1028  O1029   1.301   .     A
N1028  O1030   1.301   .     A
N1031  O1032   1.301   .     A
N1031  O1033   1.301   .     A
N1034  O1036   1.301   .     A
O1035  N498    1.301   1_565 S
N1037  O1039   1.301   .     A
N1037  O770    1.301   1_655 S
N1040  O1041   1.301   .     A
N1040  O1042   1.301   .     A
N1043  O1044   1.301   .     A
N1043  O1045   1.301   .     A
N1046  O1048   1.301   .     A
N1046  O511    1.301   1_565 S
N1049  O1050   1.301   .     A
N1049  O1051   1.301   .     A
N1052  O1054   1.301   .     A
N1052  O1053   1.301   .     A
N1055  O1056   1.301   .     A
N1055  O1057   1.301   .     A
N1058  O1060   1.301   .     A
N1058  O1059   1.301   .     A
N1061  O1062   1.301   .     A
N1061  O1063   1.301   .     A
N1064  O1066   1.301   .     A
N1064  O1065   1.301   .     A
N1067  O1068   1.301   .     A
N1067  O1069   1.301   .     A
N1070  O1072   1.301   .     A
N1070  O1071   1.301   .     A
