data_str_m1_o10_o18_pcu_sym.64
_audit_creation_date              2020-01-03
_audit_creation_method            'Materials Studio'
_symmetry_space_group_name_H-M    'P1'
_symmetry_Int_Tables_number       1
_symmetry_cell_setting            triclinic
loop_
_symmetry_equiv_pos_as_xyz
  x,y,z
_cell_length_a                    32.5871
_cell_length_b                    32.5017
_cell_length_c                    35.7901
_cell_angle_alpha                 98.0184
_cell_angle_beta                  72.6229
_cell_angle_gamma                 98.5571
loop_
_atom_site_label
_atom_site_type_symbol
_atom_site_fract_x
_atom_site_fract_y
_atom_site_fract_z
_atom_site_U_iso_or_equiv
_atom_site_adp_type
_atom_site_occupancy
Zn1    Zn    0.19244   0.14090   0.28278   0.00000  Uiso   1.00
Zn2    Zn    0.13459   0.12378   0.22258   0.00000  Uiso   1.00
Zn3    Zn    0.21166   0.19664   0.21188   0.00000  Uiso   1.00
Zn4    Zn    0.12798   0.20535   0.28277   0.00000  Uiso   1.00
O5     O     0.16667   0.16667   0.25000   0.00000  Uiso   1.00
O6     O     0.06990   0.18960   0.27820   0.00000  Uiso   1.00
O7     O     0.25440   0.15277   0.26768   0.00000  Uiso   1.00
O8     O     0.13800   0.06903   0.23607   0.00000  Uiso   1.00
O9     O     0.20437   0.25527   0.21806   0.00000  Uiso   1.00
O10    O     0.15693   0.12393   0.16625   0.00000  Uiso   1.00
O11    O     0.12687   0.20646   0.33749   0.00000  Uiso   1.00
O12    O     0.21088   0.17493   0.15877   0.00000  Uiso   1.00
O13    O     0.17198   0.16135   0.33749   0.00000  Uiso   1.00
O14    O     0.17849   0.08101   0.27821   0.00000  Uiso   1.00
O15    O     0.14581   0.26136   0.26767   0.00000  Uiso   1.00
O16    O     0.07452   0.13251   0.23607   0.00000  Uiso   1.00
O17    O     0.26785   0.19179   0.21806   0.00000  Uiso   1.00
C18    C     0.05239   0.15975   0.25932   0.00000  Uiso   1.00
C19    C     0.28125   0.17306   0.24054   0.00000  Uiso   1.00
C20    C     0.15596   0.05617   0.25890   0.00000  Uiso   1.00
C21    C     0.17690   0.27772   0.24131   0.00000  Uiso   1.00
C22    C     0.18834   0.14546   0.14403   0.00000  Uiso   1.00
C23    C     0.14525   0.18761   0.35625   0.00000  Uiso   1.00
C24    C     0.13115   0.19097   0.39973   0.00000  Uiso   1.00
C25    C     0.19816   0.13741   0.10149   0.00000  Uiso   1.00
C26    C     0.07375   0.19483   0.46129   0.00000  Uiso   1.00
C27    C     0.08794   0.19702   0.42068   0.00000  Uiso   1.00
C28    C     0.15980   0.18365   0.42038   0.00000  Uiso   1.00
C29    C     0.14322   0.17421   0.46002   0.00000  Uiso   1.00
C30    C     0.10063   0.18291   0.48088   0.00000  Uiso   1.00
C31    C     0.16772   0.15700   0.47981   0.00000  Uiso   1.00
C32    C     0.15310   0.15682   0.02143   0.00000  Uiso   1.00
C33    C     0.11114   0.16788   0.04139   0.00000  Uiso   1.00
C34    C     0.08506   0.17951   0.02119   0.00000  Uiso   1.00
C35    C     0.20428   0.13659   0.45894   0.00000  Uiso   1.00
C36    C     0.22998   0.12283   0.47818   0.00000  Uiso   1.00
C37    C     0.22026   0.12878   0.01920   0.00000  Uiso   1.00
C38    C     0.18052   0.14444   0.04137   0.00000  Uiso   1.00
C39    C     0.24876   0.11818   0.03865   0.00000  Uiso   1.00
C40    C     0.23715   0.12259   0.07973   0.00000  Uiso   1.00
C41    C     0.17020   0.14823   0.08275   0.00000  Uiso   1.00
H42    H     0.05254   0.18634   0.03739   0.00000  Uiso   1.00
H43    H     0.14173   0.16153   0.10140   0.00000  Uiso   1.00
H44    H     0.25913   0.11545   0.09484   0.00000  Uiso   1.00
H45    H     0.25741   0.10715   0.46038   0.00000  Uiso   1.00
H46    H     0.04089   0.20081   0.47725   0.00000  Uiso   1.00
H47    H     0.09654   0.16597   0.07244   0.00000  Uiso   1.00
H48    H     0.21248   0.12902   0.42749   0.00000  Uiso   1.00
C49    C     0.32779   0.17461   0.23505   0.00000  Uiso   1.00
C50    C     0.00734   0.15928   0.26214   0.00000  Uiso   1.00
H51    H     0.31754   0.14762   0.28829   0.00000  Uiso   1.00
C52    C     0.18098   0.32223   0.23800   0.00000  Uiso   1.00
H53    H     0.20812   0.00286   0.21574   0.00000  Uiso   1.00
C54    C     0.15161   0.01212   0.26217   0.00000  Uiso   1.00
H55    H     0.12412   0.33225   0.28453   0.00000  Uiso   1.00
N56    N     0.29026   0.10472   0.01743   0.00000  Uiso   1.00
O57    O     0.30482   0.07585   0.03014   0.00000  Uiso   1.00
O58    O     0.31670   0.12639   0.49028   0.00000  Uiso   1.00
N59    N     0.02491   0.19180   0.20092   0.00000  Uiso   1.00
O60    O     0.01555   0.18714   0.16758   0.00000  Uiso   1.00
O61    O     0.06044   0.21472   0.20359   0.00000  Uiso   1.00
N62    N     0.05805   0.20484   0.40085   0.00000  Uiso   1.00
H63    H     0.04646   0.23346   0.41322   0.00000  Uiso   1.00
H64    H     0.03182   0.18147   0.40624   0.00000  Uiso   1.00
N65    N     0.20579   0.19229   0.40350   0.00000  Uiso   1.00
H66    H     0.21251   0.22203   0.39363   0.00000  Uiso   1.00
H67    H     0.21677   0.17038   0.37964   0.00000  Uiso   1.00
Zn68   Zn    0.52577   0.14090   0.28278   0.00000  Uiso   1.00
Zn69   Zn    0.46792   0.12378   0.22258   0.00000  Uiso   1.00
Zn70   Zn    0.54500   0.19664   0.21188   0.00000  Uiso   1.00
Zn71   Zn    0.46131   0.20535   0.28277   0.00000  Uiso   1.00
O72    O     0.50000   0.16667   0.25000   0.00000  Uiso   1.00
O73    O     0.40323   0.18960   0.27820   0.00000  Uiso   1.00
O74    O     0.58773   0.15277   0.26768   0.00000  Uiso   1.00
O75    O     0.47133   0.06903   0.23607   0.00000  Uiso   1.00
O76    O     0.53771   0.25527   0.21806   0.00000  Uiso   1.00
O77    O     0.49027   0.12393   0.16625   0.00000  Uiso   1.00
O78    O     0.46020   0.20646   0.33749   0.00000  Uiso   1.00
O79    O     0.54421   0.17493   0.15877   0.00000  Uiso   1.00
O80    O     0.50532   0.16135   0.33749   0.00000  Uiso   1.00
O81    O     0.51182   0.08101   0.27821   0.00000  Uiso   1.00
O82    O     0.47914   0.26136   0.26767   0.00000  Uiso   1.00
O83    O     0.40785   0.13251   0.23607   0.00000  Uiso   1.00
O84    O     0.60119   0.19179   0.21806   0.00000  Uiso   1.00
C85    C     0.38572   0.15975   0.25932   0.00000  Uiso   1.00
C86    C     0.61458   0.17306   0.24054   0.00000  Uiso   1.00
C87    C     0.48929   0.05617   0.25890   0.00000  Uiso   1.00
C88    C     0.51023   0.27772   0.24131   0.00000  Uiso   1.00
C89    C     0.52167   0.14546   0.14403   0.00000  Uiso   1.00
C90    C     0.47859   0.18761   0.35625   0.00000  Uiso   1.00
C91    C     0.46449   0.19097   0.39973   0.00000  Uiso   1.00
C92    C     0.53150   0.13741   0.10149   0.00000  Uiso   1.00
C93    C     0.40708   0.19483   0.46129   0.00000  Uiso   1.00
C94    C     0.42127   0.19702   0.42068   0.00000  Uiso   1.00
C95    C     0.49313   0.18365   0.42038   0.00000  Uiso   1.00
C96    C     0.47655   0.17421   0.46002   0.00000  Uiso   1.00
C97    C     0.43396   0.18291   0.48088   0.00000  Uiso   1.00
C98    C     0.50105   0.15700   0.47981   0.00000  Uiso   1.00
C99    C     0.48643   0.15682   0.02143   0.00000  Uiso   1.00
C100   C     0.44448   0.16788   0.04139   0.00000  Uiso   1.00
C101   C     0.41840   0.17951   0.02119   0.00000  Uiso   1.00
C102   C     0.53761   0.13659   0.45894   0.00000  Uiso   1.00
C103   C     0.56331   0.12283   0.47818   0.00000  Uiso   1.00
C104   C     0.55360   0.12878   0.01920   0.00000  Uiso   1.00
C105   C     0.51385   0.14444   0.04137   0.00000  Uiso   1.00
C106   C     0.58209   0.11818   0.03865   0.00000  Uiso   1.00
C107   C     0.57048   0.12259   0.07973   0.00000  Uiso   1.00
C108   C     0.50353   0.14823   0.08275   0.00000  Uiso   1.00
H109   H     0.38587   0.18634   0.03739   0.00000  Uiso   1.00
H110   H     0.47506   0.16153   0.10140   0.00000  Uiso   1.00
H111   H     0.59246   0.11545   0.09484   0.00000  Uiso   1.00
H112   H     0.59074   0.10715   0.46038   0.00000  Uiso   1.00
H113   H     0.37422   0.20081   0.47725   0.00000  Uiso   1.00
H114   H     0.42987   0.16597   0.07244   0.00000  Uiso   1.00
H115   H     0.54581   0.12902   0.42749   0.00000  Uiso   1.00
C116   C     0.66112   0.17461   0.23505   0.00000  Uiso   1.00
C117   C     0.34067   0.15928   0.26214   0.00000  Uiso   1.00
H118   H     0.65087   0.14762   0.28829   0.00000  Uiso   1.00
C119   C     0.51431   0.32223   0.23800   0.00000  Uiso   1.00
H120   H     0.54145   0.00286   0.21574   0.00000  Uiso   1.00
C121   C     0.48494   0.01212   0.26217   0.00000  Uiso   1.00
H122   H     0.45745   0.33225   0.28453   0.00000  Uiso   1.00
N123   N     0.62359   0.10472   0.01743   0.00000  Uiso   1.00
O124   O     0.63815   0.07585   0.03014   0.00000  Uiso   1.00
O125   O     0.65004   0.12639   0.49028   0.00000  Uiso   1.00
N126   N     0.35824   0.19180   0.20092   0.00000  Uiso   1.00
O127   O     0.34888   0.18714   0.16758   0.00000  Uiso   1.00
O128   O     0.39377   0.21472   0.20359   0.00000  Uiso   1.00
N129   N     0.39138   0.20484   0.40085   0.00000  Uiso   1.00
H130   H     0.37980   0.23346   0.41322   0.00000  Uiso   1.00
H131   H     0.36515   0.18147   0.40624   0.00000  Uiso   1.00
N132   N     0.53912   0.19229   0.40350   0.00000  Uiso   1.00
H133   H     0.54584   0.22203   0.39363   0.00000  Uiso   1.00
H134   H     0.55010   0.17038   0.37964   0.00000  Uiso   1.00
Zn135  Zn    0.85910   0.14090   0.28278   0.00000  Uiso   1.00
Zn136  Zn    0.80125   0.12378   0.22258   0.00000  Uiso   1.00
Zn137  Zn    0.87833   0.19664   0.21188   0.00000  Uiso   1.00
Zn138  Zn    0.79465   0.20535   0.28277   0.00000  Uiso   1.00
O139   O     0.83333   0.16667   0.25000   0.00000  Uiso   1.00
O140   O     0.73656   0.18960   0.27820   0.00000  Uiso   1.00
O141   O     0.92106   0.15277   0.26768   0.00000  Uiso   1.00
O142   O     0.80467   0.06903   0.23607   0.00000  Uiso   1.00
O143   O     0.87104   0.25527   0.21806   0.00000  Uiso   1.00
O144   O     0.82360   0.12393   0.16625   0.00000  Uiso   1.00
O145   O     0.79354   0.20646   0.33749   0.00000  Uiso   1.00
O146   O     0.87755   0.17493   0.15877   0.00000  Uiso   1.00
O147   O     0.83865   0.16135   0.33749   0.00000  Uiso   1.00
O148   O     0.84515   0.08101   0.27821   0.00000  Uiso   1.00
O149   O     0.81247   0.26136   0.26767   0.00000  Uiso   1.00
O150   O     0.74119   0.13251   0.23607   0.00000  Uiso   1.00
O151   O     0.93452   0.19179   0.21806   0.00000  Uiso   1.00
C152   C     0.71906   0.15975   0.25932   0.00000  Uiso   1.00
C153   C     0.94791   0.17306   0.24054   0.00000  Uiso   1.00
C154   C     0.82263   0.05617   0.25890   0.00000  Uiso   1.00
C155   C     0.84356   0.27772   0.24131   0.00000  Uiso   1.00
C156   C     0.85501   0.14546   0.14403   0.00000  Uiso   1.00
C157   C     0.81192   0.18761   0.35625   0.00000  Uiso   1.00
C158   C     0.79782   0.19097   0.39973   0.00000  Uiso   1.00
C159   C     0.86483   0.13741   0.10149   0.00000  Uiso   1.00
C160   C     0.74041   0.19483   0.46129   0.00000  Uiso   1.00
C161   C     0.75461   0.19702   0.42068   0.00000  Uiso   1.00
C162   C     0.82647   0.18365   0.42038   0.00000  Uiso   1.00
C163   C     0.80989   0.17421   0.46002   0.00000  Uiso   1.00
C164   C     0.76729   0.18291   0.48088   0.00000  Uiso   1.00
C165   C     0.83439   0.15700   0.47981   0.00000  Uiso   1.00
C166   C     0.81976   0.15682   0.02143   0.00000  Uiso   1.00
C167   C     0.77781   0.16788   0.04139   0.00000  Uiso   1.00
C168   C     0.75173   0.17951   0.02119   0.00000  Uiso   1.00
C169   C     0.87094   0.13659   0.45894   0.00000  Uiso   1.00
C170   C     0.89665   0.12283   0.47818   0.00000  Uiso   1.00
C171   C     0.88693   0.12878   0.01920   0.00000  Uiso   1.00
C172   C     0.84719   0.14444   0.04137   0.00000  Uiso   1.00
C173   C     0.91542   0.11818   0.03865   0.00000  Uiso   1.00
C174   C     0.90381   0.12259   0.07973   0.00000  Uiso   1.00
C175   C     0.83686   0.14823   0.08275   0.00000  Uiso   1.00
H176   H     0.71920   0.18634   0.03739   0.00000  Uiso   1.00
H177   H     0.80840   0.16153   0.10140   0.00000  Uiso   1.00
H178   H     0.92580   0.11545   0.09484   0.00000  Uiso   1.00
H179   H     0.92407   0.10715   0.46038   0.00000  Uiso   1.00
H180   H     0.70756   0.20081   0.47725   0.00000  Uiso   1.00
H181   H     0.76320   0.16597   0.07244   0.00000  Uiso   1.00
H182   H     0.87914   0.12902   0.42749   0.00000  Uiso   1.00
C183   C     0.99445   0.17461   0.23505   0.00000  Uiso   1.00
C184   C     0.67401   0.15928   0.26214   0.00000  Uiso   1.00
H185   H     0.98421   0.14762   0.28829   0.00000  Uiso   1.00
C186   C     0.84765   0.32223   0.23800   0.00000  Uiso   1.00
H187   H     0.87478   0.00286   0.21574   0.00000  Uiso   1.00
C188   C     0.81828   0.01212   0.26217   0.00000  Uiso   1.00
H189   H     0.79078   0.33225   0.28453   0.00000  Uiso   1.00
N190   N     0.95692   0.10472   0.01743   0.00000  Uiso   1.00
O191   O     0.97149   0.07585   0.03014   0.00000  Uiso   1.00
O192   O     0.98337   0.12639   0.49028   0.00000  Uiso   1.00
N193   N     0.69157   0.19180   0.20092   0.00000  Uiso   1.00
O194   O     0.68222   0.18714   0.16758   0.00000  Uiso   1.00
O195   O     0.72710   0.21472   0.20359   0.00000  Uiso   1.00
N196   N     0.72472   0.20484   0.40085   0.00000  Uiso   1.00
H197   H     0.71313   0.23346   0.41322   0.00000  Uiso   1.00
H198   H     0.69848   0.18147   0.40624   0.00000  Uiso   1.00
N199   N     0.87246   0.19229   0.40350   0.00000  Uiso   1.00
H200   H     0.87918   0.22203   0.39363   0.00000  Uiso   1.00
H201   H     0.88343   0.17038   0.37964   0.00000  Uiso   1.00
Zn202  Zn    0.19244   0.47423   0.28278   0.00000  Uiso   1.00
Zn203  Zn    0.13459   0.45711   0.22258   0.00000  Uiso   1.00
Zn204  Zn    0.21166   0.52997   0.21188   0.00000  Uiso   1.00
Zn205  Zn    0.12798   0.53868   0.28277   0.00000  Uiso   1.00
O206   O     0.16667   0.50000   0.25000   0.00000  Uiso   1.00
O207   O     0.06990   0.52293   0.27820   0.00000  Uiso   1.00
O208   O     0.25440   0.48610   0.26768   0.00000  Uiso   1.00
O209   O     0.13800   0.40236   0.23607   0.00000  Uiso   1.00
O210   O     0.20437   0.58860   0.21806   0.00000  Uiso   1.00
O211   O     0.15693   0.45726   0.16625   0.00000  Uiso   1.00
O212   O     0.12687   0.53979   0.33749   0.00000  Uiso   1.00
O213   O     0.21088   0.50826   0.15877   0.00000  Uiso   1.00
O214   O     0.17198   0.49468   0.33749   0.00000  Uiso   1.00
O215   O     0.17849   0.41434   0.27821   0.00000  Uiso   1.00
O216   O     0.14581   0.59469   0.26767   0.00000  Uiso   1.00
O217   O     0.07452   0.46584   0.23607   0.00000  Uiso   1.00
O218   O     0.26785   0.52512   0.21806   0.00000  Uiso   1.00
C219   C     0.05239   0.49308   0.25932   0.00000  Uiso   1.00
C220   C     0.28125   0.50640   0.24054   0.00000  Uiso   1.00
C221   C     0.15596   0.38950   0.25890   0.00000  Uiso   1.00
C222   C     0.17690   0.61106   0.24131   0.00000  Uiso   1.00
C223   C     0.18834   0.47880   0.14403   0.00000  Uiso   1.00
C224   C     0.14525   0.52095   0.35625   0.00000  Uiso   1.00
C225   C     0.13115   0.52431   0.39973   0.00000  Uiso   1.00
C226   C     0.19816   0.47074   0.10149   0.00000  Uiso   1.00
C227   C     0.07375   0.52817   0.46129   0.00000  Uiso   1.00
C228   C     0.08794   0.53035   0.42068   0.00000  Uiso   1.00
C229   C     0.15980   0.51698   0.42038   0.00000  Uiso   1.00
C230   C     0.14322   0.50754   0.46002   0.00000  Uiso   1.00
C231   C     0.10063   0.51624   0.48088   0.00000  Uiso   1.00
C232   C     0.16772   0.49033   0.47981   0.00000  Uiso   1.00
C233   C     0.15310   0.49015   0.02143   0.00000  Uiso   1.00
C234   C     0.11114   0.50122   0.04139   0.00000  Uiso   1.00
C235   C     0.08506   0.51285   0.02119   0.00000  Uiso   1.00
C236   C     0.20428   0.46993   0.45894   0.00000  Uiso   1.00
C237   C     0.22998   0.45616   0.47818   0.00000  Uiso   1.00
C238   C     0.22026   0.46211   0.01920   0.00000  Uiso   1.00
C239   C     0.18052   0.47777   0.04137   0.00000  Uiso   1.00
C240   C     0.24876   0.45151   0.03865   0.00000  Uiso   1.00
C241   C     0.23715   0.45592   0.07973   0.00000  Uiso   1.00
C242   C     0.17020   0.48157   0.08275   0.00000  Uiso   1.00
H243   H     0.05254   0.51968   0.03739   0.00000  Uiso   1.00
H244   H     0.14173   0.49486   0.10140   0.00000  Uiso   1.00
H245   H     0.25913   0.44879   0.09484   0.00000  Uiso   1.00
H246   H     0.25741   0.44048   0.46038   0.00000  Uiso   1.00
H247   H     0.04089   0.53415   0.47725   0.00000  Uiso   1.00
H248   H     0.09654   0.49930   0.07244   0.00000  Uiso   1.00
H249   H     0.21248   0.46235   0.42749   0.00000  Uiso   1.00
C250   C     0.32779   0.50795   0.23505   0.00000  Uiso   1.00
C251   C     0.00734   0.49262   0.26214   0.00000  Uiso   1.00
H252   H     0.31754   0.48095   0.28829   0.00000  Uiso   1.00
C253   C     0.18098   0.65556   0.23800   0.00000  Uiso   1.00
H254   H     0.20812   0.33620   0.21574   0.00000  Uiso   1.00
C255   C     0.15161   0.34546   0.26217   0.00000  Uiso   1.00
H256   H     0.12412   0.66558   0.28453   0.00000  Uiso   1.00
N257   N     0.29026   0.43805   0.01743   0.00000  Uiso   1.00
O258   O     0.30482   0.40918   0.03014   0.00000  Uiso   1.00
O259   O     0.31670   0.45972   0.49028   0.00000  Uiso   1.00
N260   N     0.02491   0.52513   0.20092   0.00000  Uiso   1.00
O261   O     0.01555   0.52048   0.16758   0.00000  Uiso   1.00
O262   O     0.06044   0.54805   0.20359   0.00000  Uiso   1.00
N263   N     0.05805   0.53817   0.40085   0.00000  Uiso   1.00
H264   H     0.04646   0.56680   0.41322   0.00000  Uiso   1.00
H265   H     0.03182   0.51480   0.40624   0.00000  Uiso   1.00
N266   N     0.20579   0.52562   0.40350   0.00000  Uiso   1.00
H267   H     0.21251   0.55536   0.39363   0.00000  Uiso   1.00
H268   H     0.21677   0.50371   0.37964   0.00000  Uiso   1.00
Zn269  Zn    0.52577   0.47423   0.28278   0.00000  Uiso   1.00
Zn270  Zn    0.46792   0.45711   0.22258   0.00000  Uiso   1.00
Zn271  Zn    0.54500   0.52997   0.21188   0.00000  Uiso   1.00
Zn272  Zn    0.46131   0.53868   0.28277   0.00000  Uiso   1.00
O273   O     0.50000   0.50000   0.25000   0.00000  Uiso   1.00
O274   O     0.40323   0.52293   0.27820   0.00000  Uiso   1.00
O275   O     0.58773   0.48610   0.26768   0.00000  Uiso   1.00
O276   O     0.47133   0.40236   0.23607   0.00000  Uiso   1.00
O277   O     0.53771   0.58860   0.21806   0.00000  Uiso   1.00
O278   O     0.49027   0.45726   0.16625   0.00000  Uiso   1.00
O279   O     0.46020   0.53979   0.33749   0.00000  Uiso   1.00
O280   O     0.54421   0.50826   0.15877   0.00000  Uiso   1.00
O281   O     0.50532   0.49468   0.33749   0.00000  Uiso   1.00
O282   O     0.51182   0.41434   0.27821   0.00000  Uiso   1.00
O283   O     0.47914   0.59469   0.26767   0.00000  Uiso   1.00
O284   O     0.40785   0.46584   0.23607   0.00000  Uiso   1.00
O285   O     0.60119   0.52512   0.21806   0.00000  Uiso   1.00
C286   C     0.38572   0.49308   0.25932   0.00000  Uiso   1.00
C287   C     0.61458   0.50640   0.24054   0.00000  Uiso   1.00
C288   C     0.48929   0.38950   0.25890   0.00000  Uiso   1.00
C289   C     0.51023   0.61106   0.24131   0.00000  Uiso   1.00
C290   C     0.52167   0.47880   0.14403   0.00000  Uiso   1.00
C291   C     0.47859   0.52095   0.35625   0.00000  Uiso   1.00
C292   C     0.46449   0.52431   0.39973   0.00000  Uiso   1.00
C293   C     0.53150   0.47074   0.10149   0.00000  Uiso   1.00
C294   C     0.40708   0.52817   0.46129   0.00000  Uiso   1.00
C295   C     0.42127   0.53035   0.42068   0.00000  Uiso   1.00
C296   C     0.49313   0.51698   0.42038   0.00000  Uiso   1.00
C297   C     0.47655   0.50754   0.46002   0.00000  Uiso   1.00
C298   C     0.43396   0.51624   0.48088   0.00000  Uiso   1.00
C299   C     0.50105   0.49033   0.47981   0.00000  Uiso   1.00
C300   C     0.48643   0.49015   0.02143   0.00000  Uiso   1.00
C301   C     0.44448   0.50122   0.04139   0.00000  Uiso   1.00
C302   C     0.41840   0.51285   0.02119   0.00000  Uiso   1.00
C303   C     0.53761   0.46993   0.45894   0.00000  Uiso   1.00
C304   C     0.56331   0.45616   0.47818   0.00000  Uiso   1.00
C305   C     0.55360   0.46211   0.01920   0.00000  Uiso   1.00
C306   C     0.51385   0.47777   0.04137   0.00000  Uiso   1.00
C307   C     0.58209   0.45151   0.03865   0.00000  Uiso   1.00
C308   C     0.57048   0.45592   0.07973   0.00000  Uiso   1.00
C309   C     0.50353   0.48157   0.08275   0.00000  Uiso   1.00
H310   H     0.38587   0.51968   0.03739   0.00000  Uiso   1.00
H311   H     0.47506   0.49486   0.10140   0.00000  Uiso   1.00
H312   H     0.59246   0.44879   0.09484   0.00000  Uiso   1.00
H313   H     0.59074   0.44048   0.46038   0.00000  Uiso   1.00
H314   H     0.37422   0.53415   0.47725   0.00000  Uiso   1.00
H315   H     0.42987   0.49930   0.07244   0.00000  Uiso   1.00
H316   H     0.54581   0.46235   0.42749   0.00000  Uiso   1.00
C317   C     0.66112   0.50795   0.23505   0.00000  Uiso   1.00
C318   C     0.34067   0.49262   0.26214   0.00000  Uiso   1.00
H319   H     0.65087   0.48095   0.28829   0.00000  Uiso   1.00
C320   C     0.51431   0.65556   0.23800   0.00000  Uiso   1.00
H321   H     0.54145   0.33620   0.21574   0.00000  Uiso   1.00
C322   C     0.48494   0.34546   0.26217   0.00000  Uiso   1.00
H323   H     0.45745   0.66558   0.28453   0.00000  Uiso   1.00
N324   N     0.62359   0.43805   0.01743   0.00000  Uiso   1.00
O325   O     0.63815   0.40918   0.03014   0.00000  Uiso   1.00
O326   O     0.65004   0.45972   0.49028   0.00000  Uiso   1.00
N327   N     0.35824   0.52513   0.20092   0.00000  Uiso   1.00
O328   O     0.34888   0.52048   0.16758   0.00000  Uiso   1.00
O329   O     0.39377   0.54805   0.20359   0.00000  Uiso   1.00
N330   N     0.39138   0.53817   0.40085   0.00000  Uiso   1.00
H331   H     0.37980   0.56680   0.41322   0.00000  Uiso   1.00
H332   H     0.36515   0.51480   0.40624   0.00000  Uiso   1.00
N333   N     0.53912   0.52562   0.40350   0.00000  Uiso   1.00
H334   H     0.54584   0.55536   0.39363   0.00000  Uiso   1.00
H335   H     0.55010   0.50371   0.37964   0.00000  Uiso   1.00
Zn336  Zn    0.85910   0.47423   0.28278   0.00000  Uiso   1.00
Zn337  Zn    0.80125   0.45711   0.22258   0.00000  Uiso   1.00
Zn338  Zn    0.87833   0.52997   0.21188   0.00000  Uiso   1.00
Zn339  Zn    0.79465   0.53868   0.28277   0.00000  Uiso   1.00
O340   O     0.83333   0.50000   0.25000   0.00000  Uiso   1.00
O341   O     0.73656   0.52293   0.27820   0.00000  Uiso   1.00
O342   O     0.92106   0.48610   0.26768   0.00000  Uiso   1.00
O343   O     0.80467   0.40236   0.23607   0.00000  Uiso   1.00
O344   O     0.87104   0.58860   0.21806   0.00000  Uiso   1.00
O345   O     0.82360   0.45726   0.16625   0.00000  Uiso   1.00
O346   O     0.79354   0.53979   0.33749   0.00000  Uiso   1.00
O347   O     0.87755   0.50826   0.15877   0.00000  Uiso   1.00
O348   O     0.83865   0.49468   0.33749   0.00000  Uiso   1.00
O349   O     0.84515   0.41434   0.27821   0.00000  Uiso   1.00
O350   O     0.81247   0.59469   0.26767   0.00000  Uiso   1.00
O351   O     0.74119   0.46584   0.23607   0.00000  Uiso   1.00
O352   O     0.93452   0.52512   0.21806   0.00000  Uiso   1.00
C353   C     0.71906   0.49308   0.25932   0.00000  Uiso   1.00
C354   C     0.94791   0.50640   0.24054   0.00000  Uiso   1.00
C355   C     0.82263   0.38950   0.25890   0.00000  Uiso   1.00
C356   C     0.84356   0.61106   0.24131   0.00000  Uiso   1.00
C357   C     0.85501   0.47880   0.14403   0.00000  Uiso   1.00
C358   C     0.81192   0.52095   0.35625   0.00000  Uiso   1.00
C359   C     0.79782   0.52431   0.39973   0.00000  Uiso   1.00
C360   C     0.86483   0.47074   0.10149   0.00000  Uiso   1.00
C361   C     0.74041   0.52817   0.46129   0.00000  Uiso   1.00
C362   C     0.75461   0.53035   0.42068   0.00000  Uiso   1.00
C363   C     0.82647   0.51698   0.42038   0.00000  Uiso   1.00
C364   C     0.80989   0.50754   0.46002   0.00000  Uiso   1.00
C365   C     0.76729   0.51624   0.48088   0.00000  Uiso   1.00
C366   C     0.83439   0.49033   0.47981   0.00000  Uiso   1.00
C367   C     0.81976   0.49015   0.02143   0.00000  Uiso   1.00
C368   C     0.77781   0.50122   0.04139   0.00000  Uiso   1.00
C369   C     0.75173   0.51285   0.02119   0.00000  Uiso   1.00
C370   C     0.87094   0.46993   0.45894   0.00000  Uiso   1.00
C371   C     0.89665   0.45616   0.47818   0.00000  Uiso   1.00
C372   C     0.88693   0.46211   0.01920   0.00000  Uiso   1.00
C373   C     0.84719   0.47777   0.04137   0.00000  Uiso   1.00
C374   C     0.91542   0.45151   0.03865   0.00000  Uiso   1.00
C375   C     0.90381   0.45592   0.07973   0.00000  Uiso   1.00
C376   C     0.83686   0.48157   0.08275   0.00000  Uiso   1.00
H377   H     0.71920   0.51968   0.03739   0.00000  Uiso   1.00
H378   H     0.80840   0.49486   0.10140   0.00000  Uiso   1.00
H379   H     0.92580   0.44879   0.09484   0.00000  Uiso   1.00
H380   H     0.92407   0.44048   0.46038   0.00000  Uiso   1.00
H381   H     0.70756   0.53415   0.47725   0.00000  Uiso   1.00
H382   H     0.76320   0.49930   0.07244   0.00000  Uiso   1.00
H383   H     0.87914   0.46235   0.42749   0.00000  Uiso   1.00
C384   C     0.99445   0.50795   0.23505   0.00000  Uiso   1.00
C385   C     0.67401   0.49262   0.26214   0.00000  Uiso   1.00
H386   H     0.98421   0.48095   0.28829   0.00000  Uiso   1.00
C387   C     0.84765   0.65556   0.23800   0.00000  Uiso   1.00
H388   H     0.87478   0.33620   0.21574   0.00000  Uiso   1.00
C389   C     0.81828   0.34546   0.26217   0.00000  Uiso   1.00
H390   H     0.79078   0.66558   0.28453   0.00000  Uiso   1.00
N391   N     0.95692   0.43805   0.01743   0.00000  Uiso   1.00
O392   O     0.97149   0.40918   0.03014   0.00000  Uiso   1.00
O393   O     0.98337   0.45972   0.49028   0.00000  Uiso   1.00
N394   N     0.69157   0.52513   0.20092   0.00000  Uiso   1.00
O395   O     0.68222   0.52048   0.16758   0.00000  Uiso   1.00
O396   O     0.72710   0.54805   0.20359   0.00000  Uiso   1.00
N397   N     0.72472   0.53817   0.40085   0.00000  Uiso   1.00
H398   H     0.71313   0.56680   0.41322   0.00000  Uiso   1.00
H399   H     0.69848   0.51480   0.40624   0.00000  Uiso   1.00
N400   N     0.87246   0.52562   0.40350   0.00000  Uiso   1.00
H401   H     0.87918   0.55536   0.39363   0.00000  Uiso   1.00
H402   H     0.88343   0.50371   0.37964   0.00000  Uiso   1.00
Zn403  Zn    0.19244   0.80756   0.28278   0.00000  Uiso   1.00
Zn404  Zn    0.13459   0.79044   0.22258   0.00000  Uiso   1.00
Zn405  Zn    0.21166   0.86331   0.21188   0.00000  Uiso   1.00
Zn406  Zn    0.12798   0.87202   0.28277   0.00000  Uiso   1.00
O407   O     0.16667   0.83333   0.25000   0.00000  Uiso   1.00
O408   O     0.06990   0.85627   0.27820   0.00000  Uiso   1.00
O409   O     0.25440   0.81944   0.26768   0.00000  Uiso   1.00
O410   O     0.13800   0.73570   0.23607   0.00000  Uiso   1.00
O411   O     0.20437   0.92193   0.21806   0.00000  Uiso   1.00
O412   O     0.15693   0.79060   0.16625   0.00000  Uiso   1.00
O413   O     0.12687   0.87313   0.33749   0.00000  Uiso   1.00
O414   O     0.21088   0.84159   0.15877   0.00000  Uiso   1.00
O415   O     0.17198   0.82802   0.33749   0.00000  Uiso   1.00
O416   O     0.17849   0.74768   0.27821   0.00000  Uiso   1.00
O417   O     0.14581   0.92803   0.26767   0.00000  Uiso   1.00
O418   O     0.07452   0.79917   0.23607   0.00000  Uiso   1.00
O419   O     0.26785   0.85845   0.21806   0.00000  Uiso   1.00
C420   C     0.05239   0.82642   0.25932   0.00000  Uiso   1.00
C421   C     0.28125   0.83973   0.24054   0.00000  Uiso   1.00
C422   C     0.15596   0.72283   0.25890   0.00000  Uiso   1.00
C423   C     0.17690   0.94439   0.24131   0.00000  Uiso   1.00
C424   C     0.18834   0.81213   0.14403   0.00000  Uiso   1.00
C425   C     0.14525   0.85428   0.35625   0.00000  Uiso   1.00
C426   C     0.13115   0.85764   0.39973   0.00000  Uiso   1.00
C427   C     0.19816   0.80408   0.10149   0.00000  Uiso   1.00
C428   C     0.07375   0.86150   0.46129   0.00000  Uiso   1.00
C429   C     0.08794   0.86369   0.42068   0.00000  Uiso   1.00
C430   C     0.15980   0.85032   0.42038   0.00000  Uiso   1.00
C431   C     0.14322   0.84088   0.46002   0.00000  Uiso   1.00
C432   C     0.10063   0.84958   0.48088   0.00000  Uiso   1.00
C433   C     0.16772   0.82367   0.47981   0.00000  Uiso   1.00
C434   C     0.15310   0.82348   0.02143   0.00000  Uiso   1.00
C435   C     0.11114   0.83455   0.04139   0.00000  Uiso   1.00
C436   C     0.08506   0.84618   0.02119   0.00000  Uiso   1.00
C437   C     0.20428   0.80326   0.45894   0.00000  Uiso   1.00
C438   C     0.22998   0.78950   0.47818   0.00000  Uiso   1.00
C439   C     0.22026   0.79544   0.01920   0.00000  Uiso   1.00
C440   C     0.18052   0.81110   0.04137   0.00000  Uiso   1.00
C441   C     0.24876   0.78485   0.03865   0.00000  Uiso   1.00
C442   C     0.23715   0.78925   0.07973   0.00000  Uiso   1.00
C443   C     0.17020   0.81490   0.08275   0.00000  Uiso   1.00
H444   H     0.05254   0.85301   0.03739   0.00000  Uiso   1.00
H445   H     0.14173   0.82819   0.10140   0.00000  Uiso   1.00
H446   H     0.25913   0.78212   0.09484   0.00000  Uiso   1.00
H447   H     0.25741   0.77382   0.46038   0.00000  Uiso   1.00
H448   H     0.04089   0.86748   0.47725   0.00000  Uiso   1.00
H449   H     0.09654   0.83263   0.07244   0.00000  Uiso   1.00
H450   H     0.21248   0.79569   0.42749   0.00000  Uiso   1.00
C451   C     0.32779   0.84128   0.23505   0.00000  Uiso   1.00
C452   C     0.00734   0.82595   0.26214   0.00000  Uiso   1.00
H453   H     0.31754   0.81428   0.28829   0.00000  Uiso   1.00
C454   C     0.18098   0.98889   0.23800   0.00000  Uiso   1.00
H455   H     0.20812   0.66953   0.21574   0.00000  Uiso   1.00
C456   C     0.15161   0.67879   0.26217   0.00000  Uiso   1.00
H457   H     0.12412   0.99891   0.28453   0.00000  Uiso   1.00
N458   N     0.29026   0.77138   0.01743   0.00000  Uiso   1.00
O459   O     0.30482   0.74251   0.03014   0.00000  Uiso   1.00
O460   O     0.31670   0.79306   0.49028   0.00000  Uiso   1.00
N461   N     0.02491   0.85847   0.20092   0.00000  Uiso   1.00
O462   O     0.01555   0.85381   0.16758   0.00000  Uiso   1.00
O463   O     0.06044   0.88139   0.20359   0.00000  Uiso   1.00
N464   N     0.05805   0.87151   0.40085   0.00000  Uiso   1.00
H465   H     0.04646   0.90013   0.41322   0.00000  Uiso   1.00
H466   H     0.03182   0.84813   0.40624   0.00000  Uiso   1.00
N467   N     0.20579   0.85895   0.40350   0.00000  Uiso   1.00
H468   H     0.21251   0.88870   0.39363   0.00000  Uiso   1.00
H469   H     0.21677   0.83705   0.37964   0.00000  Uiso   1.00
Zn470  Zn    0.52577   0.80756   0.28278   0.00000  Uiso   1.00
Zn471  Zn    0.46792   0.79044   0.22258   0.00000  Uiso   1.00
Zn472  Zn    0.54500   0.86331   0.21188   0.00000  Uiso   1.00
Zn473  Zn    0.46131   0.87202   0.28277   0.00000  Uiso   1.00
O474   O     0.50000   0.83333   0.25000   0.00000  Uiso   1.00
O475   O     0.40323   0.85627   0.27820   0.00000  Uiso   1.00
O476   O     0.58773   0.81944   0.26768   0.00000  Uiso   1.00
O477   O     0.47133   0.73570   0.23607   0.00000  Uiso   1.00
O478   O     0.53771   0.92193   0.21806   0.00000  Uiso   1.00
O479   O     0.49027   0.79060   0.16625   0.00000  Uiso   1.00
O480   O     0.46020   0.87313   0.33749   0.00000  Uiso   1.00
O481   O     0.54421   0.84159   0.15877   0.00000  Uiso   1.00
O482   O     0.50532   0.82802   0.33749   0.00000  Uiso   1.00
O483   O     0.51182   0.74768   0.27821   0.00000  Uiso   1.00
O484   O     0.47914   0.92803   0.26767   0.00000  Uiso   1.00
O485   O     0.40785   0.79917   0.23607   0.00000  Uiso   1.00
O486   O     0.60119   0.85845   0.21806   0.00000  Uiso   1.00
C487   C     0.38572   0.82642   0.25932   0.00000  Uiso   1.00
C488   C     0.61458   0.83973   0.24054   0.00000  Uiso   1.00
C489   C     0.48929   0.72283   0.25890   0.00000  Uiso   1.00
C490   C     0.51023   0.94439   0.24131   0.00000  Uiso   1.00
C491   C     0.52167   0.81213   0.14403   0.00000  Uiso   1.00
C492   C     0.47859   0.85428   0.35625   0.00000  Uiso   1.00
C493   C     0.46449   0.85764   0.39973   0.00000  Uiso   1.00
C494   C     0.53150   0.80408   0.10149   0.00000  Uiso   1.00
C495   C     0.40708   0.86150   0.46129   0.00000  Uiso   1.00
C496   C     0.42127   0.86369   0.42068   0.00000  Uiso   1.00
C497   C     0.49313   0.85032   0.42038   0.00000  Uiso   1.00
C498   C     0.47655   0.84088   0.46002   0.00000  Uiso   1.00
C499   C     0.43396   0.84958   0.48088   0.00000  Uiso   1.00
C500   C     0.50105   0.82367   0.47981   0.00000  Uiso   1.00
C501   C     0.48643   0.82348   0.02143   0.00000  Uiso   1.00
C502   C     0.44448   0.83455   0.04139   0.00000  Uiso   1.00
C503   C     0.41840   0.84618   0.02119   0.00000  Uiso   1.00
C504   C     0.53761   0.80326   0.45894   0.00000  Uiso   1.00
C505   C     0.56331   0.78950   0.47818   0.00000  Uiso   1.00
C506   C     0.55360   0.79544   0.01920   0.00000  Uiso   1.00
C507   C     0.51385   0.81110   0.04137   0.00000  Uiso   1.00
C508   C     0.58209   0.78485   0.03865   0.00000  Uiso   1.00
C509   C     0.57048   0.78925   0.07973   0.00000  Uiso   1.00
C510   C     0.50353   0.81490   0.08275   0.00000  Uiso   1.00
H511   H     0.38587   0.85301   0.03739   0.00000  Uiso   1.00
H512   H     0.47506   0.82819   0.10140   0.00000  Uiso   1.00
H513   H     0.59246   0.78212   0.09484   0.00000  Uiso   1.00
H514   H     0.59074   0.77382   0.46038   0.00000  Uiso   1.00
H515   H     0.37422   0.86748   0.47725   0.00000  Uiso   1.00
H516   H     0.42987   0.83263   0.07244   0.00000  Uiso   1.00
H517   H     0.54581   0.79569   0.42749   0.00000  Uiso   1.00
C518   C     0.66112   0.84128   0.23505   0.00000  Uiso   1.00
C519   C     0.34067   0.82595   0.26214   0.00000  Uiso   1.00
H520   H     0.65087   0.81428   0.28829   0.00000  Uiso   1.00
C521   C     0.51431   0.98889   0.23800   0.00000  Uiso   1.00
H522   H     0.54145   0.66953   0.21574   0.00000  Uiso   1.00
C523   C     0.48494   0.67879   0.26217   0.00000  Uiso   1.00
H524   H     0.45745   0.99891   0.28453   0.00000  Uiso   1.00
N525   N     0.62359   0.77138   0.01743   0.00000  Uiso   1.00
O526   O     0.63815   0.74251   0.03014   0.00000  Uiso   1.00
O527   O     0.65004   0.79306   0.49028   0.00000  Uiso   1.00
N528   N     0.35824   0.85847   0.20092   0.00000  Uiso   1.00
O529   O     0.34888   0.85381   0.16758   0.00000  Uiso   1.00
O530   O     0.39377   0.88139   0.20359   0.00000  Uiso   1.00
N531   N     0.39138   0.87151   0.40085   0.00000  Uiso   1.00
H532   H     0.37980   0.90013   0.41322   0.00000  Uiso   1.00
H533   H     0.36515   0.84813   0.40624   0.00000  Uiso   1.00
N534   N     0.53912   0.85895   0.40350   0.00000  Uiso   1.00
H535   H     0.54584   0.88870   0.39363   0.00000  Uiso   1.00
H536   H     0.55010   0.83705   0.37964   0.00000  Uiso   1.00
Zn537  Zn    0.85910   0.80756   0.28278   0.00000  Uiso   1.00
Zn538  Zn    0.80125   0.79044   0.22258   0.00000  Uiso   1.00
Zn539  Zn    0.87833   0.86331   0.21188   0.00000  Uiso   1.00
Zn540  Zn    0.79465   0.87202   0.28277   0.00000  Uiso   1.00
O541   O     0.83333   0.83333   0.25000   0.00000  Uiso   1.00
O542   O     0.73656   0.85627   0.27820   0.00000  Uiso   1.00
O543   O     0.92106   0.81944   0.26768   0.00000  Uiso   1.00
O544   O     0.80467   0.73570   0.23607   0.00000  Uiso   1.00
O545   O     0.87104   0.92193   0.21806   0.00000  Uiso   1.00
O546   O     0.82360   0.79060   0.16625   0.00000  Uiso   1.00
O547   O     0.79354   0.87313   0.33749   0.00000  Uiso   1.00
O548   O     0.87755   0.84159   0.15877   0.00000  Uiso   1.00
O549   O     0.83865   0.82802   0.33749   0.00000  Uiso   1.00
O550   O     0.84515   0.74768   0.27821   0.00000  Uiso   1.00
O551   O     0.81247   0.92803   0.26767   0.00000  Uiso   1.00
O552   O     0.74119   0.79917   0.23607   0.00000  Uiso   1.00
O553   O     0.93452   0.85845   0.21806   0.00000  Uiso   1.00
C554   C     0.71906   0.82642   0.25932   0.00000  Uiso   1.00
C555   C     0.94791   0.83973   0.24054   0.00000  Uiso   1.00
C556   C     0.82263   0.72283   0.25890   0.00000  Uiso   1.00
C557   C     0.84356   0.94439   0.24131   0.00000  Uiso   1.00
C558   C     0.85501   0.81213   0.14403   0.00000  Uiso   1.00
C559   C     0.81192   0.85428   0.35625   0.00000  Uiso   1.00
C560   C     0.79782   0.85764   0.39973   0.00000  Uiso   1.00
C561   C     0.86483   0.80408   0.10149   0.00000  Uiso   1.00
C562   C     0.74041   0.86150   0.46129   0.00000  Uiso   1.00
C563   C     0.75461   0.86369   0.42068   0.00000  Uiso   1.00
C564   C     0.82647   0.85032   0.42038   0.00000  Uiso   1.00
C565   C     0.80989   0.84088   0.46002   0.00000  Uiso   1.00
C566   C     0.76729   0.84958   0.48088   0.00000  Uiso   1.00
C567   C     0.83439   0.82367   0.47981   0.00000  Uiso   1.00
C568   C     0.81976   0.82348   0.02143   0.00000  Uiso   1.00
C569   C     0.77781   0.83455   0.04139   0.00000  Uiso   1.00
C570   C     0.75173   0.84618   0.02119   0.00000  Uiso   1.00
C571   C     0.87094   0.80326   0.45894   0.00000  Uiso   1.00
C572   C     0.89665   0.78950   0.47818   0.00000  Uiso   1.00
C573   C     0.88693   0.79544   0.01920   0.00000  Uiso   1.00
C574   C     0.84719   0.81110   0.04137   0.00000  Uiso   1.00
C575   C     0.91542   0.78485   0.03865   0.00000  Uiso   1.00
C576   C     0.90381   0.78925   0.07973   0.00000  Uiso   1.00
C577   C     0.83686   0.81490   0.08275   0.00000  Uiso   1.00
H578   H     0.71920   0.85301   0.03739   0.00000  Uiso   1.00
H579   H     0.80840   0.82819   0.10140   0.00000  Uiso   1.00
H580   H     0.92580   0.78212   0.09484   0.00000  Uiso   1.00
H581   H     0.92407   0.77382   0.46038   0.00000  Uiso   1.00
H582   H     0.70756   0.86748   0.47725   0.00000  Uiso   1.00
H583   H     0.76320   0.83263   0.07244   0.00000  Uiso   1.00
H584   H     0.87914   0.79569   0.42749   0.00000  Uiso   1.00
C585   C     0.99445   0.84128   0.23505   0.00000  Uiso   1.00
C586   C     0.67401   0.82595   0.26214   0.00000  Uiso   1.00
H587   H     0.98421   0.81428   0.28829   0.00000  Uiso   1.00
C588   C     0.84765   0.98889   0.23800   0.00000  Uiso   1.00
H589   H     0.87478   0.66953   0.21574   0.00000  Uiso   1.00
C590   C     0.81828   0.67879   0.26217   0.00000  Uiso   1.00
H591   H     0.79078   0.99891   0.28453   0.00000  Uiso   1.00
N592   N     0.95692   0.77138   0.01743   0.00000  Uiso   1.00
O593   O     0.97149   0.74251   0.03014   0.00000  Uiso   1.00
O594   O     0.98337   0.79306   0.49028   0.00000  Uiso   1.00
N595   N     0.69157   0.85847   0.20092   0.00000  Uiso   1.00
O596   O     0.68222   0.85381   0.16758   0.00000  Uiso   1.00
O597   O     0.72710   0.88139   0.20359   0.00000  Uiso   1.00
N598   N     0.72472   0.87151   0.40085   0.00000  Uiso   1.00
H599   H     0.71313   0.90013   0.41322   0.00000  Uiso   1.00
H600   H     0.69848   0.84813   0.40624   0.00000  Uiso   1.00
N601   N     0.87246   0.85895   0.40350   0.00000  Uiso   1.00
H602   H     0.87918   0.88870   0.39363   0.00000  Uiso   1.00
H603   H     0.88343   0.83705   0.37964   0.00000  Uiso   1.00
Zn604  Zn    0.19244   0.14090   0.78278   0.00000  Uiso   1.00
Zn605  Zn    0.13459   0.12378   0.72258   0.00000  Uiso   1.00
Zn606  Zn    0.21166   0.19664   0.71188   0.00000  Uiso   1.00
Zn607  Zn    0.12798   0.20535   0.78277   0.00000  Uiso   1.00
O608   O     0.16667   0.16667   0.75000   0.00000  Uiso   1.00
O609   O     0.06990   0.18960   0.77820   0.00000  Uiso   1.00
O610   O     0.25440   0.15277   0.76768   0.00000  Uiso   1.00
O611   O     0.13800   0.06903   0.73607   0.00000  Uiso   1.00
O612   O     0.20437   0.25527   0.71806   0.00000  Uiso   1.00
O613   O     0.15693   0.12393   0.66625   0.00000  Uiso   1.00
O614   O     0.12687   0.20646   0.83749   0.00000  Uiso   1.00
O615   O     0.21088   0.17493   0.65877   0.00000  Uiso   1.00
O616   O     0.17198   0.16135   0.83749   0.00000  Uiso   1.00
O617   O     0.17849   0.08101   0.77821   0.00000  Uiso   1.00
O618   O     0.14581   0.26136   0.76767   0.00000  Uiso   1.00
O619   O     0.07452   0.13251   0.73607   0.00000  Uiso   1.00
O620   O     0.26785   0.19179   0.71806   0.00000  Uiso   1.00
C621   C     0.05239   0.15975   0.75932   0.00000  Uiso   1.00
C622   C     0.28125   0.17306   0.74054   0.00000  Uiso   1.00
C623   C     0.15596   0.05617   0.75890   0.00000  Uiso   1.00
C624   C     0.17690   0.27772   0.74131   0.00000  Uiso   1.00
C625   C     0.18834   0.14546   0.64403   0.00000  Uiso   1.00
C626   C     0.14525   0.18761   0.85625   0.00000  Uiso   1.00
C627   C     0.13115   0.19097   0.89973   0.00000  Uiso   1.00
C628   C     0.19816   0.13741   0.60149   0.00000  Uiso   1.00
C629   C     0.07375   0.19483   0.96129   0.00000  Uiso   1.00
C630   C     0.08794   0.19702   0.92068   0.00000  Uiso   1.00
C631   C     0.15980   0.18365   0.92038   0.00000  Uiso   1.00
C632   C     0.14322   0.17421   0.96002   0.00000  Uiso   1.00
C633   C     0.10063   0.18291   0.98088   0.00000  Uiso   1.00
C634   C     0.16772   0.15700   0.97981   0.00000  Uiso   1.00
C635   C     0.15310   0.15682   0.52143   0.00000  Uiso   1.00
C636   C     0.11114   0.16788   0.54139   0.00000  Uiso   1.00
C637   C     0.08506   0.17951   0.52119   0.00000  Uiso   1.00
C638   C     0.20428   0.13659   0.95894   0.00000  Uiso   1.00
C639   C     0.22998   0.12283   0.97818   0.00000  Uiso   1.00
C640   C     0.22026   0.12878   0.51920   0.00000  Uiso   1.00
C641   C     0.18052   0.14444   0.54137   0.00000  Uiso   1.00
C642   C     0.24876   0.11818   0.53865   0.00000  Uiso   1.00
C643   C     0.23715   0.12259   0.57973   0.00000  Uiso   1.00
C644   C     0.17020   0.14823   0.58275   0.00000  Uiso   1.00
H645   H     0.05254   0.18634   0.53739   0.00000  Uiso   1.00
H646   H     0.14173   0.16153   0.60140   0.00000  Uiso   1.00
H647   H     0.25913   0.11545   0.59484   0.00000  Uiso   1.00
H648   H     0.25741   0.10715   0.96038   0.00000  Uiso   1.00
H649   H     0.04089   0.20081   0.97725   0.00000  Uiso   1.00
H650   H     0.09654   0.16597   0.57244   0.00000  Uiso   1.00
H651   H     0.21248   0.12902   0.92749   0.00000  Uiso   1.00
C652   C     0.32779   0.17461   0.73505   0.00000  Uiso   1.00
C653   C     0.00734   0.15928   0.76214   0.00000  Uiso   1.00
H654   H     0.31754   0.14762   0.78829   0.00000  Uiso   1.00
C655   C     0.18098   0.32223   0.73800   0.00000  Uiso   1.00
H656   H     0.20812   0.00286   0.71574   0.00000  Uiso   1.00
C657   C     0.15161   0.01212   0.76217   0.00000  Uiso   1.00
H658   H     0.12412   0.33225   0.78453   0.00000  Uiso   1.00
N659   N     0.29026   0.10472   0.51743   0.00000  Uiso   1.00
O660   O     0.30482   0.07585   0.53014   0.00000  Uiso   1.00
O661   O     0.31670   0.12639   0.99028   0.00000  Uiso   1.00
N662   N     0.02491   0.19180   0.70092   0.00000  Uiso   1.00
O663   O     0.01555   0.18714   0.66758   0.00000  Uiso   1.00
O664   O     0.06044   0.21472   0.70359   0.00000  Uiso   1.00
N665   N     0.05805   0.20484   0.90085   0.00000  Uiso   1.00
H666   H     0.04646   0.23346   0.91322   0.00000  Uiso   1.00
H667   H     0.03182   0.18147   0.90624   0.00000  Uiso   1.00
N668   N     0.20579   0.19229   0.90350   0.00000  Uiso   1.00
H669   H     0.21251   0.22203   0.89363   0.00000  Uiso   1.00
H670   H     0.21677   0.17038   0.87964   0.00000  Uiso   1.00
Zn671  Zn    0.52577   0.14090   0.78278   0.00000  Uiso   1.00
Zn672  Zn    0.46792   0.12378   0.72258   0.00000  Uiso   1.00
Zn673  Zn    0.54500   0.19664   0.71188   0.00000  Uiso   1.00
Zn674  Zn    0.46131   0.20535   0.78277   0.00000  Uiso   1.00
O675   O     0.50000   0.16667   0.75000   0.00000  Uiso   1.00
O676   O     0.40323   0.18960   0.77820   0.00000  Uiso   1.00
O677   O     0.58773   0.15277   0.76768   0.00000  Uiso   1.00
O678   O     0.47133   0.06903   0.73607   0.00000  Uiso   1.00
O679   O     0.53771   0.25527   0.71806   0.00000  Uiso   1.00
O680   O     0.49027   0.12393   0.66625   0.00000  Uiso   1.00
O681   O     0.46020   0.20646   0.83749   0.00000  Uiso   1.00
O682   O     0.54421   0.17493   0.65877   0.00000  Uiso   1.00
O683   O     0.50532   0.16135   0.83749   0.00000  Uiso   1.00
O684   O     0.51182   0.08101   0.77821   0.00000  Uiso   1.00
O685   O     0.47914   0.26136   0.76767   0.00000  Uiso   1.00
O686   O     0.40785   0.13251   0.73607   0.00000  Uiso   1.00
O687   O     0.60119   0.19179   0.71806   0.00000  Uiso   1.00
C688   C     0.38572   0.15975   0.75932   0.00000  Uiso   1.00
C689   C     0.61458   0.17306   0.74054   0.00000  Uiso   1.00
C690   C     0.48929   0.05617   0.75890   0.00000  Uiso   1.00
C691   C     0.51023   0.27772   0.74131   0.00000  Uiso   1.00
C692   C     0.52167   0.14546   0.64403   0.00000  Uiso   1.00
C693   C     0.47859   0.18761   0.85625   0.00000  Uiso   1.00
C694   C     0.46449   0.19097   0.89973   0.00000  Uiso   1.00
C695   C     0.53150   0.13741   0.60149   0.00000  Uiso   1.00
C696   C     0.40708   0.19483   0.96129   0.00000  Uiso   1.00
C697   C     0.42127   0.19702   0.92068   0.00000  Uiso   1.00
C698   C     0.49313   0.18365   0.92038   0.00000  Uiso   1.00
C699   C     0.47655   0.17421   0.96002   0.00000  Uiso   1.00
C700   C     0.43396   0.18291   0.98088   0.00000  Uiso   1.00
C701   C     0.50105   0.15700   0.97981   0.00000  Uiso   1.00
C702   C     0.48643   0.15682   0.52143   0.00000  Uiso   1.00
C703   C     0.44448   0.16788   0.54139   0.00000  Uiso   1.00
C704   C     0.41840   0.17951   0.52119   0.00000  Uiso   1.00
C705   C     0.53761   0.13659   0.95894   0.00000  Uiso   1.00
C706   C     0.56331   0.12283   0.97818   0.00000  Uiso   1.00
C707   C     0.55360   0.12878   0.51920   0.00000  Uiso   1.00
C708   C     0.51385   0.14444   0.54137   0.00000  Uiso   1.00
C709   C     0.58209   0.11818   0.53865   0.00000  Uiso   1.00
C710   C     0.57048   0.12259   0.57973   0.00000  Uiso   1.00
C711   C     0.50353   0.14823   0.58275   0.00000  Uiso   1.00
H712   H     0.38587   0.18634   0.53739   0.00000  Uiso   1.00
H713   H     0.47506   0.16153   0.60140   0.00000  Uiso   1.00
H714   H     0.59246   0.11545   0.59484   0.00000  Uiso   1.00
H715   H     0.59074   0.10715   0.96038   0.00000  Uiso   1.00
H716   H     0.37422   0.20081   0.97725   0.00000  Uiso   1.00
H717   H     0.42987   0.16597   0.57244   0.00000  Uiso   1.00
H718   H     0.54581   0.12902   0.92749   0.00000  Uiso   1.00
C719   C     0.66112   0.17461   0.73505   0.00000  Uiso   1.00
C720   C     0.34067   0.15928   0.76214   0.00000  Uiso   1.00
H721   H     0.65087   0.14762   0.78829   0.00000  Uiso   1.00
C722   C     0.51431   0.32223   0.73800   0.00000  Uiso   1.00
H723   H     0.54145   0.00286   0.71574   0.00000  Uiso   1.00
C724   C     0.48494   0.01212   0.76217   0.00000  Uiso   1.00
H725   H     0.45745   0.33225   0.78453   0.00000  Uiso   1.00
N726   N     0.62359   0.10472   0.51743   0.00000  Uiso   1.00
O727   O     0.63815   0.07585   0.53014   0.00000  Uiso   1.00
O728   O     0.65004   0.12639   0.99028   0.00000  Uiso   1.00
N729   N     0.35824   0.19180   0.70092   0.00000  Uiso   1.00
O730   O     0.34888   0.18714   0.66758   0.00000  Uiso   1.00
O731   O     0.39377   0.21472   0.70359   0.00000  Uiso   1.00
N732   N     0.39138   0.20484   0.90085   0.00000  Uiso   1.00
H733   H     0.37980   0.23346   0.91322   0.00000  Uiso   1.00
H734   H     0.36515   0.18147   0.90624   0.00000  Uiso   1.00
N735   N     0.53912   0.19229   0.90350   0.00000  Uiso   1.00
H736   H     0.54584   0.22203   0.89363   0.00000  Uiso   1.00
H737   H     0.55010   0.17038   0.87964   0.00000  Uiso   1.00
Zn738  Zn    0.85910   0.14090   0.78278   0.00000  Uiso   1.00
Zn739  Zn    0.80125   0.12378   0.72258   0.00000  Uiso   1.00
Zn740  Zn    0.87833   0.19664   0.71188   0.00000  Uiso   1.00
Zn741  Zn    0.79465   0.20535   0.78277   0.00000  Uiso   1.00
O742   O     0.83333   0.16667   0.75000   0.00000  Uiso   1.00
O743   O     0.73656   0.18960   0.77820   0.00000  Uiso   1.00
O744   O     0.92106   0.15277   0.76768   0.00000  Uiso   1.00
O745   O     0.80467   0.06903   0.73607   0.00000  Uiso   1.00
O746   O     0.87104   0.25527   0.71806   0.00000  Uiso   1.00
O747   O     0.82360   0.12393   0.66625   0.00000  Uiso   1.00
O748   O     0.79354   0.20646   0.83749   0.00000  Uiso   1.00
O749   O     0.87755   0.17493   0.65877   0.00000  Uiso   1.00
O750   O     0.83865   0.16135   0.83749   0.00000  Uiso   1.00
O751   O     0.84515   0.08101   0.77821   0.00000  Uiso   1.00
O752   O     0.81247   0.26136   0.76767   0.00000  Uiso   1.00
O753   O     0.74119   0.13251   0.73607   0.00000  Uiso   1.00
O754   O     0.93452   0.19179   0.71806   0.00000  Uiso   1.00
C755   C     0.71906   0.15975   0.75932   0.00000  Uiso   1.00
C756   C     0.94791   0.17306   0.74054   0.00000  Uiso   1.00
C757   C     0.82263   0.05617   0.75890   0.00000  Uiso   1.00
C758   C     0.84356   0.27772   0.74131   0.00000  Uiso   1.00
C759   C     0.85501   0.14546   0.64403   0.00000  Uiso   1.00
C760   C     0.81192   0.18761   0.85625   0.00000  Uiso   1.00
C761   C     0.79782   0.19097   0.89973   0.00000  Uiso   1.00
C762   C     0.86483   0.13741   0.60149   0.00000  Uiso   1.00
C763   C     0.74041   0.19483   0.96129   0.00000  Uiso   1.00
C764   C     0.75461   0.19702   0.92068   0.00000  Uiso   1.00
C765   C     0.82647   0.18365   0.92038   0.00000  Uiso   1.00
C766   C     0.80989   0.17421   0.96002   0.00000  Uiso   1.00
C767   C     0.76729   0.18291   0.98088   0.00000  Uiso   1.00
C768   C     0.83439   0.15700   0.97981   0.00000  Uiso   1.00
C769   C     0.81976   0.15682   0.52143   0.00000  Uiso   1.00
C770   C     0.77781   0.16788   0.54139   0.00000  Uiso   1.00
C771   C     0.75173   0.17951   0.52119   0.00000  Uiso   1.00
C772   C     0.87094   0.13659   0.95894   0.00000  Uiso   1.00
C773   C     0.89665   0.12283   0.97818   0.00000  Uiso   1.00
C774   C     0.88693   0.12878   0.51920   0.00000  Uiso   1.00
C775   C     0.84719   0.14444   0.54137   0.00000  Uiso   1.00
C776   C     0.91542   0.11818   0.53865   0.00000  Uiso   1.00
C777   C     0.90381   0.12259   0.57973   0.00000  Uiso   1.00
C778   C     0.83686   0.14823   0.58275   0.00000  Uiso   1.00
H779   H     0.71920   0.18634   0.53739   0.00000  Uiso   1.00
H780   H     0.80840   0.16153   0.60140   0.00000  Uiso   1.00
H781   H     0.92580   0.11545   0.59484   0.00000  Uiso   1.00
H782   H     0.92407   0.10715   0.96038   0.00000  Uiso   1.00
H783   H     0.70756   0.20081   0.97725   0.00000  Uiso   1.00
H784   H     0.76320   0.16597   0.57244   0.00000  Uiso   1.00
H785   H     0.87914   0.12902   0.92749   0.00000  Uiso   1.00
C786   C     0.99445   0.17461   0.73505   0.00000  Uiso   1.00
C787   C     0.67401   0.15928   0.76214   0.00000  Uiso   1.00
H788   H     0.98421   0.14762   0.78829   0.00000  Uiso   1.00
C789   C     0.84765   0.32223   0.73800   0.00000  Uiso   1.00
H790   H     0.87478   0.00286   0.71574   0.00000  Uiso   1.00
C791   C     0.81828   0.01212   0.76217   0.00000  Uiso   1.00
H792   H     0.79078   0.33225   0.78453   0.00000  Uiso   1.00
N793   N     0.95692   0.10472   0.51743   0.00000  Uiso   1.00
O794   O     0.97149   0.07585   0.53014   0.00000  Uiso   1.00
O795   O     0.98337   0.12639   0.99028   0.00000  Uiso   1.00
N796   N     0.69157   0.19180   0.70092   0.00000  Uiso   1.00
O797   O     0.68222   0.18714   0.66758   0.00000  Uiso   1.00
O798   O     0.72710   0.21472   0.70359   0.00000  Uiso   1.00
N799   N     0.72472   0.20484   0.90085   0.00000  Uiso   1.00
H800   H     0.71313   0.23346   0.91322   0.00000  Uiso   1.00
H801   H     0.69848   0.18147   0.90624   0.00000  Uiso   1.00
N802   N     0.87246   0.19229   0.90350   0.00000  Uiso   1.00
H803   H     0.87918   0.22203   0.89363   0.00000  Uiso   1.00
H804   H     0.88343   0.17038   0.87964   0.00000  Uiso   1.00
Zn805  Zn    0.19244   0.47423   0.78278   0.00000  Uiso   1.00
Zn806  Zn    0.13459   0.45711   0.72258   0.00000  Uiso   1.00
Zn807  Zn    0.21166   0.52997   0.71188   0.00000  Uiso   1.00
Zn808  Zn    0.12798   0.53868   0.78277   0.00000  Uiso   1.00
O809   O     0.16667   0.50000   0.75000   0.00000  Uiso   1.00
O810   O     0.06990   0.52293   0.77820   0.00000  Uiso   1.00
O811   O     0.25440   0.48610   0.76768   0.00000  Uiso   1.00
O812   O     0.13800   0.40236   0.73607   0.00000  Uiso   1.00
O813   O     0.20437   0.58860   0.71806   0.00000  Uiso   1.00
O814   O     0.15693   0.45726   0.66625   0.00000  Uiso   1.00
O815   O     0.12687   0.53979   0.83749   0.00000  Uiso   1.00
O816   O     0.21088   0.50826   0.65877   0.00000  Uiso   1.00
O817   O     0.17198   0.49468   0.83749   0.00000  Uiso   1.00
O818   O     0.17849   0.41434   0.77821   0.00000  Uiso   1.00
O819   O     0.14581   0.59469   0.76767   0.00000  Uiso   1.00
O820   O     0.07452   0.46584   0.73607   0.00000  Uiso   1.00
O821   O     0.26785   0.52512   0.71806   0.00000  Uiso   1.00
C822   C     0.05239   0.49308   0.75932   0.00000  Uiso   1.00
C823   C     0.28125   0.50640   0.74054   0.00000  Uiso   1.00
C824   C     0.15596   0.38950   0.75890   0.00000  Uiso   1.00
C825   C     0.17690   0.61106   0.74131   0.00000  Uiso   1.00
C826   C     0.18834   0.47880   0.64403   0.00000  Uiso   1.00
C827   C     0.14525   0.52095   0.85625   0.00000  Uiso   1.00
C828   C     0.13115   0.52431   0.89973   0.00000  Uiso   1.00
C829   C     0.19816   0.47074   0.60149   0.00000  Uiso   1.00
C830   C     0.07375   0.52817   0.96129   0.00000  Uiso   1.00
C831   C     0.08794   0.53035   0.92068   0.00000  Uiso   1.00
C832   C     0.15980   0.51698   0.92038   0.00000  Uiso   1.00
C833   C     0.14322   0.50754   0.96002   0.00000  Uiso   1.00
C834   C     0.10063   0.51624   0.98088   0.00000  Uiso   1.00
C835   C     0.16772   0.49033   0.97981   0.00000  Uiso   1.00
C836   C     0.15310   0.49015   0.52143   0.00000  Uiso   1.00
C837   C     0.11114   0.50122   0.54139   0.00000  Uiso   1.00
C838   C     0.08506   0.51285   0.52119   0.00000  Uiso   1.00
C839   C     0.20428   0.46993   0.95894   0.00000  Uiso   1.00
C840   C     0.22998   0.45616   0.97818   0.00000  Uiso   1.00
C841   C     0.22026   0.46211   0.51920   0.00000  Uiso   1.00
C842   C     0.18052   0.47777   0.54137   0.00000  Uiso   1.00
C843   C     0.24876   0.45151   0.53865   0.00000  Uiso   1.00
C844   C     0.23715   0.45592   0.57973   0.00000  Uiso   1.00
C845   C     0.17020   0.48157   0.58275   0.00000  Uiso   1.00
H846   H     0.05254   0.51968   0.53739   0.00000  Uiso   1.00
H847   H     0.14173   0.49486   0.60140   0.00000  Uiso   1.00
H848   H     0.25913   0.44879   0.59484   0.00000  Uiso   1.00
H849   H     0.25741   0.44048   0.96038   0.00000  Uiso   1.00
H850   H     0.04089   0.53415   0.97725   0.00000  Uiso   1.00
H851   H     0.09654   0.49930   0.57244   0.00000  Uiso   1.00
H852   H     0.21248   0.46235   0.92749   0.00000  Uiso   1.00
C853   C     0.32779   0.50795   0.73505   0.00000  Uiso   1.00
C854   C     0.00734   0.49262   0.76214   0.00000  Uiso   1.00
H855   H     0.31754   0.48095   0.78829   0.00000  Uiso   1.00
C856   C     0.18098   0.65556   0.73800   0.00000  Uiso   1.00
H857   H     0.20812   0.33620   0.71574   0.00000  Uiso   1.00
C858   C     0.15161   0.34546   0.76217   0.00000  Uiso   1.00
H859   H     0.12412   0.66558   0.78453   0.00000  Uiso   1.00
N860   N     0.29026   0.43805   0.51743   0.00000  Uiso   1.00
O861   O     0.30482   0.40918   0.53014   0.00000  Uiso   1.00
O862   O     0.31670   0.45972   0.99028   0.00000  Uiso   1.00
N863   N     0.02491   0.52513   0.70092   0.00000  Uiso   1.00
O864   O     0.01555   0.52048   0.66758   0.00000  Uiso   1.00
O865   O     0.06044   0.54805   0.70359   0.00000  Uiso   1.00
N866   N     0.05805   0.53817   0.90085   0.00000  Uiso   1.00
H867   H     0.04646   0.56680   0.91322   0.00000  Uiso   1.00
H868   H     0.03182   0.51480   0.90624   0.00000  Uiso   1.00
N869   N     0.20579   0.52562   0.90350   0.00000  Uiso   1.00
H870   H     0.21251   0.55536   0.89363   0.00000  Uiso   1.00
H871   H     0.21677   0.50371   0.87964   0.00000  Uiso   1.00
Zn872  Zn    0.52577   0.47423   0.78278   0.00000  Uiso   1.00
Zn873  Zn    0.46792   0.45711   0.72258   0.00000  Uiso   1.00
Zn874  Zn    0.54500   0.52997   0.71188   0.00000  Uiso   1.00
Zn875  Zn    0.46131   0.53868   0.78277   0.00000  Uiso   1.00
O876   O     0.50000   0.50000   0.75000   0.00000  Uiso   1.00
O877   O     0.40323   0.52293   0.77820   0.00000  Uiso   1.00
O878   O     0.58773   0.48610   0.76768   0.00000  Uiso   1.00
O879   O     0.47133   0.40236   0.73607   0.00000  Uiso   1.00
O880   O     0.53771   0.58860   0.71806   0.00000  Uiso   1.00
O881   O     0.49027   0.45726   0.66625   0.00000  Uiso   1.00
O882   O     0.46020   0.53979   0.83749   0.00000  Uiso   1.00
O883   O     0.54421   0.50826   0.65877   0.00000  Uiso   1.00
O884   O     0.50532   0.49468   0.83749   0.00000  Uiso   1.00
O885   O     0.51182   0.41434   0.77821   0.00000  Uiso   1.00
O886   O     0.47914   0.59469   0.76767   0.00000  Uiso   1.00
O887   O     0.40785   0.46584   0.73607   0.00000  Uiso   1.00
O888   O     0.60119   0.52512   0.71806   0.00000  Uiso   1.00
C889   C     0.38572   0.49308   0.75932   0.00000  Uiso   1.00
C890   C     0.61458   0.50640   0.74054   0.00000  Uiso   1.00
C891   C     0.48929   0.38950   0.75890   0.00000  Uiso   1.00
C892   C     0.51023   0.61106   0.74131   0.00000  Uiso   1.00
C893   C     0.52167   0.47880   0.64403   0.00000  Uiso   1.00
C894   C     0.47859   0.52095   0.85625   0.00000  Uiso   1.00
C895   C     0.46449   0.52431   0.89973   0.00000  Uiso   1.00
C896   C     0.53150   0.47074   0.60149   0.00000  Uiso   1.00
C897   C     0.40708   0.52817   0.96129   0.00000  Uiso   1.00
C898   C     0.42127   0.53035   0.92068   0.00000  Uiso   1.00
C899   C     0.49313   0.51698   0.92038   0.00000  Uiso   1.00
C900   C     0.47655   0.50754   0.96002   0.00000  Uiso   1.00
C901   C     0.43396   0.51624   0.98088   0.00000  Uiso   1.00
C902   C     0.50105   0.49033   0.97981   0.00000  Uiso   1.00
C903   C     0.48643   0.49015   0.52143   0.00000  Uiso   1.00
C904   C     0.44448   0.50122   0.54139   0.00000  Uiso   1.00
C905   C     0.41840   0.51285   0.52119   0.00000  Uiso   1.00
C906   C     0.53761   0.46993   0.95894   0.00000  Uiso   1.00
C907   C     0.56331   0.45616   0.97818   0.00000  Uiso   1.00
C908   C     0.55360   0.46211   0.51920   0.00000  Uiso   1.00
C909   C     0.51385   0.47777   0.54137   0.00000  Uiso   1.00
C910   C     0.58209   0.45151   0.53865   0.00000  Uiso   1.00
C911   C     0.57048   0.45592   0.57973   0.00000  Uiso   1.00
C912   C     0.50353   0.48157   0.58275   0.00000  Uiso   1.00
H913   H     0.38587   0.51968   0.53739   0.00000  Uiso   1.00
H914   H     0.47506   0.49486   0.60140   0.00000  Uiso   1.00
H915   H     0.59246   0.44879   0.59484   0.00000  Uiso   1.00
H916   H     0.59074   0.44048   0.96038   0.00000  Uiso   1.00
H917   H     0.37422   0.53415   0.97725   0.00000  Uiso   1.00
H918   H     0.42987   0.49930   0.57244   0.00000  Uiso   1.00
H919   H     0.54581   0.46235   0.92749   0.00000  Uiso   1.00
C920   C     0.66112   0.50795   0.73505   0.00000  Uiso   1.00
C921   C     0.34067   0.49262   0.76214   0.00000  Uiso   1.00
H922   H     0.65087   0.48095   0.78829   0.00000  Uiso   1.00
C923   C     0.51431   0.65556   0.73800   0.00000  Uiso   1.00
H924   H     0.54145   0.33620   0.71574   0.00000  Uiso   1.00
C925   C     0.48494   0.34546   0.76217   0.00000  Uiso   1.00
H926   H     0.45745   0.66558   0.78453   0.00000  Uiso   1.00
N927   N     0.62359   0.43805   0.51743   0.00000  Uiso   1.00
O928   O     0.63815   0.40918   0.53014   0.00000  Uiso   1.00
O929   O     0.65004   0.45972   0.99028   0.00000  Uiso   1.00
N930   N     0.35824   0.52513   0.70092   0.00000  Uiso   1.00
O931   O     0.34888   0.52048   0.66758   0.00000  Uiso   1.00
O932   O     0.39377   0.54805   0.70359   0.00000  Uiso   1.00
N933   N     0.39138   0.53817   0.90085   0.00000  Uiso   1.00
H934   H     0.37980   0.56680   0.91322   0.00000  Uiso   1.00
H935   H     0.36515   0.51480   0.90624   0.00000  Uiso   1.00
N936   N     0.53912   0.52562   0.90350   0.00000  Uiso   1.00
H937   H     0.54584   0.55536   0.89363   0.00000  Uiso   1.00
H938   H     0.55010   0.50371   0.87964   0.00000  Uiso   1.00
Zn939  Zn    0.85910   0.47423   0.78278   0.00000  Uiso   1.00
Zn940  Zn    0.80125   0.45711   0.72258   0.00000  Uiso   1.00
Zn941  Zn    0.87833   0.52997   0.71188   0.00000  Uiso   1.00
Zn942  Zn    0.79465   0.53868   0.78277   0.00000  Uiso   1.00
O943   O     0.83333   0.50000   0.75000   0.00000  Uiso   1.00
O944   O     0.73656   0.52293   0.77820   0.00000  Uiso   1.00
O945   O     0.92106   0.48610   0.76768   0.00000  Uiso   1.00
O946   O     0.80467   0.40236   0.73607   0.00000  Uiso   1.00
O947   O     0.87104   0.58860   0.71806   0.00000  Uiso   1.00
O948   O     0.82360   0.45726   0.66625   0.00000  Uiso   1.00
O949   O     0.79354   0.53979   0.83749   0.00000  Uiso   1.00
O950   O     0.87755   0.50826   0.65877   0.00000  Uiso   1.00
O951   O     0.83865   0.49468   0.83749   0.00000  Uiso   1.00
O952   O     0.84515   0.41434   0.77821   0.00000  Uiso   1.00
O953   O     0.81247   0.59469   0.76767   0.00000  Uiso   1.00
O954   O     0.74119   0.46584   0.73607   0.00000  Uiso   1.00
O955   O     0.93452   0.52512   0.71806   0.00000  Uiso   1.00
C956   C     0.71906   0.49308   0.75932   0.00000  Uiso   1.00
C957   C     0.94791   0.50640   0.74054   0.00000  Uiso   1.00
C958   C     0.82263   0.38950   0.75890   0.00000  Uiso   1.00
C959   C     0.84356   0.61106   0.74131   0.00000  Uiso   1.00
C960   C     0.85501   0.47880   0.64403   0.00000  Uiso   1.00
C961   C     0.81192   0.52095   0.85625   0.00000  Uiso   1.00
C962   C     0.79782   0.52431   0.89973   0.00000  Uiso   1.00
C963   C     0.86483   0.47074   0.60149   0.00000  Uiso   1.00
C964   C     0.74041   0.52817   0.96129   0.00000  Uiso   1.00
C965   C     0.75461   0.53035   0.92068   0.00000  Uiso   1.00
C966   C     0.82647   0.51698   0.92038   0.00000  Uiso   1.00
C967   C     0.80989   0.50754   0.96002   0.00000  Uiso   1.00
C968   C     0.76729   0.51624   0.98088   0.00000  Uiso   1.00
C969   C     0.83439   0.49033   0.97981   0.00000  Uiso   1.00
C970   C     0.81976   0.49015   0.52143   0.00000  Uiso   1.00
C971   C     0.77781   0.50122   0.54139   0.00000  Uiso   1.00
C972   C     0.75173   0.51285   0.52119   0.00000  Uiso   1.00
C973   C     0.87094   0.46993   0.95894   0.00000  Uiso   1.00
C974   C     0.89665   0.45616   0.97818   0.00000  Uiso   1.00
C975   C     0.88693   0.46211   0.51920   0.00000  Uiso   1.00
C976   C     0.84719   0.47777   0.54137   0.00000  Uiso   1.00
C977   C     0.91542   0.45151   0.53865   0.00000  Uiso   1.00
C978   C     0.90381   0.45592   0.57973   0.00000  Uiso   1.00
C979   C     0.83686   0.48157   0.58275   0.00000  Uiso   1.00
H980   H     0.71920   0.51968   0.53739   0.00000  Uiso   1.00
H981   H     0.80840   0.49486   0.60140   0.00000  Uiso   1.00
H982   H     0.92580   0.44879   0.59484   0.00000  Uiso   1.00
H983   H     0.92407   0.44048   0.96038   0.00000  Uiso   1.00
H984   H     0.70756   0.53415   0.97725   0.00000  Uiso   1.00
H985   H     0.76320   0.49930   0.57244   0.00000  Uiso   1.00
H986   H     0.87914   0.46235   0.92749   0.00000  Uiso   1.00
C987   C     0.99445   0.50795   0.73505   0.00000  Uiso   1.00
C988   C     0.67401   0.49262   0.76214   0.00000  Uiso   1.00
H989   H     0.98421   0.48095   0.78829   0.00000  Uiso   1.00
C990   C     0.84765   0.65556   0.73800   0.00000  Uiso   1.00
H991   H     0.87478   0.33620   0.71574   0.00000  Uiso   1.00
C992   C     0.81828   0.34546   0.76217   0.00000  Uiso   1.00
H993   H     0.79078   0.66558   0.78453   0.00000  Uiso   1.00
N994   N     0.95692   0.43805   0.51743   0.00000  Uiso   1.00
O995   O     0.97149   0.40918   0.53014   0.00000  Uiso   1.00
O996   O     0.98337   0.45972   0.99028   0.00000  Uiso   1.00
N997   N     0.69157   0.52513   0.70092   0.00000  Uiso   1.00
O998   O     0.68222   0.52048   0.66758   0.00000  Uiso   1.00
O999   O     0.72710   0.54805   0.70359   0.00000  Uiso   1.00
N1000  N     0.72472   0.53817   0.90085   0.00000  Uiso   1.00
H1001  H     0.71313   0.56680   0.91322   0.00000  Uiso   1.00
H1002  H     0.69848   0.51480   0.90624   0.00000  Uiso   1.00
N1003  N     0.87246   0.52562   0.90350   0.00000  Uiso   1.00
H1004  H     0.87918   0.55536   0.89363   0.00000  Uiso   1.00
H1005  H     0.88343   0.50371   0.87964   0.00000  Uiso   1.00
Zn1006 Zn    0.19244   0.80756   0.78278   0.00000  Uiso   1.00
Zn1007 Zn    0.13459   0.79044   0.72258   0.00000  Uiso   1.00
Zn1008 Zn    0.21166   0.86331   0.71188   0.00000  Uiso   1.00
Zn1009 Zn    0.12798   0.87202   0.78277   0.00000  Uiso   1.00
O1010  O     0.16667   0.83333   0.75000   0.00000  Uiso   1.00
O1011  O     0.06990   0.85627   0.77820   0.00000  Uiso   1.00
O1012  O     0.25440   0.81944   0.76768   0.00000  Uiso   1.00
O1013  O     0.13800   0.73570   0.73607   0.00000  Uiso   1.00
O1014  O     0.20437   0.92193   0.71806   0.00000  Uiso   1.00
O1015  O     0.15693   0.79060   0.66625   0.00000  Uiso   1.00
O1016  O     0.12687   0.87313   0.83749   0.00000  Uiso   1.00
O1017  O     0.21088   0.84159   0.65877   0.00000  Uiso   1.00
O1018  O     0.17198   0.82802   0.83749   0.00000  Uiso   1.00
O1019  O     0.17849   0.74768   0.77821   0.00000  Uiso   1.00
O1020  O     0.14581   0.92803   0.76767   0.00000  Uiso   1.00
O1021  O     0.07452   0.79917   0.73607   0.00000  Uiso   1.00
O1022  O     0.26785   0.85845   0.71806   0.00000  Uiso   1.00
C1023  C     0.05239   0.82642   0.75932   0.00000  Uiso   1.00
C1024  C     0.28125   0.83973   0.74054   0.00000  Uiso   1.00
C1025  C     0.15596   0.72283   0.75890   0.00000  Uiso   1.00
C1026  C     0.17690   0.94439   0.74131   0.00000  Uiso   1.00
C1027  C     0.18834   0.81213   0.64403   0.00000  Uiso   1.00
C1028  C     0.14525   0.85428   0.85625   0.00000  Uiso   1.00
C1029  C     0.13115   0.85764   0.89973   0.00000  Uiso   1.00
C1030  C     0.19816   0.80408   0.60149   0.00000  Uiso   1.00
C1031  C     0.07375   0.86150   0.96129   0.00000  Uiso   1.00
C1032  C     0.08794   0.86369   0.92068   0.00000  Uiso   1.00
C1033  C     0.15980   0.85032   0.92038   0.00000  Uiso   1.00
C1034  C     0.14322   0.84088   0.96002   0.00000  Uiso   1.00
C1035  C     0.10063   0.84958   0.98088   0.00000  Uiso   1.00
C1036  C     0.16772   0.82367   0.97981   0.00000  Uiso   1.00
C1037  C     0.15310   0.82348   0.52143   0.00000  Uiso   1.00
C1038  C     0.11114   0.83455   0.54139   0.00000  Uiso   1.00
C1039  C     0.08506   0.84618   0.52119   0.00000  Uiso   1.00
C1040  C     0.20428   0.80326   0.95894   0.00000  Uiso   1.00
C1041  C     0.22998   0.78950   0.97818   0.00000  Uiso   1.00
C1042  C     0.22026   0.79544   0.51920   0.00000  Uiso   1.00
C1043  C     0.18052   0.81110   0.54137   0.00000  Uiso   1.00
C1044  C     0.24876   0.78485   0.53865   0.00000  Uiso   1.00
C1045  C     0.23715   0.78925   0.57973   0.00000  Uiso   1.00
C1046  C     0.17020   0.81490   0.58275   0.00000  Uiso   1.00
H1047  H     0.05254   0.85301   0.53739   0.00000  Uiso   1.00
H1048  H     0.14173   0.82819   0.60140   0.00000  Uiso   1.00
H1049  H     0.25913   0.78212   0.59484   0.00000  Uiso   1.00
H1050  H     0.25741   0.77382   0.96038   0.00000  Uiso   1.00
H1051  H     0.04089   0.86748   0.97725   0.00000  Uiso   1.00
H1052  H     0.09654   0.83263   0.57244   0.00000  Uiso   1.00
H1053  H     0.21248   0.79569   0.92749   0.00000  Uiso   1.00
C1054  C     0.32779   0.84128   0.73505   0.00000  Uiso   1.00
C1055  C     0.00734   0.82595   0.76214   0.00000  Uiso   1.00
H1056  H     0.31754   0.81428   0.78829   0.00000  Uiso   1.00
C1057  C     0.18098   0.98889   0.73800   0.00000  Uiso   1.00
H1058  H     0.20812   0.66953   0.71574   0.00000  Uiso   1.00
C1059  C     0.15161   0.67879   0.76217   0.00000  Uiso   1.00
H1060  H     0.12412   0.99891   0.78453   0.00000  Uiso   1.00
N1061  N     0.29026   0.77138   0.51743   0.00000  Uiso   1.00
O1062  O     0.30482   0.74251   0.53014   0.00000  Uiso   1.00
O1063  O     0.31670   0.79306   0.99028   0.00000  Uiso   1.00
N1064  N     0.02491   0.85847   0.70092   0.00000  Uiso   1.00
O1065  O     0.01555   0.85381   0.66758   0.00000  Uiso   1.00
O1066  O     0.06044   0.88139   0.70359   0.00000  Uiso   1.00
N1067  N     0.05805   0.87151   0.90085   0.00000  Uiso   1.00
H1068  H     0.04646   0.90013   0.91322   0.00000  Uiso   1.00
H1069  H     0.03182   0.84813   0.90624   0.00000  Uiso   1.00
N1070  N     0.20579   0.85895   0.90350   0.00000  Uiso   1.00
H1071  H     0.21251   0.88870   0.89363   0.00000  Uiso   1.00
H1072  H     0.21677   0.83705   0.87964   0.00000  Uiso   1.00
Zn1073 Zn    0.52577   0.80756   0.78278   0.00000  Uiso   1.00
Zn1074 Zn    0.46792   0.79044   0.72258   0.00000  Uiso   1.00
Zn1075 Zn    0.54500   0.86331   0.71188   0.00000  Uiso   1.00
Zn1076 Zn    0.46131   0.87202   0.78277   0.00000  Uiso   1.00
O1077  O     0.50000   0.83333   0.75000   0.00000  Uiso   1.00
O1078  O     0.40323   0.85627   0.77820   0.00000  Uiso   1.00
O1079  O     0.58773   0.81944   0.76768   0.00000  Uiso   1.00
O1080  O     0.47133   0.73570   0.73607   0.00000  Uiso   1.00
O1081  O     0.53771   0.92193   0.71806   0.00000  Uiso   1.00
O1082  O     0.49027   0.79060   0.66625   0.00000  Uiso   1.00
O1083  O     0.46020   0.87313   0.83749   0.00000  Uiso   1.00
O1084  O     0.54421   0.84159   0.65877   0.00000  Uiso   1.00
O1085  O     0.50532   0.82802   0.83749   0.00000  Uiso   1.00
O1086  O     0.51182   0.74768   0.77821   0.00000  Uiso   1.00
O1087  O     0.47914   0.92803   0.76767   0.00000  Uiso   1.00
O1088  O     0.40785   0.79917   0.73607   0.00000  Uiso   1.00
O1089  O     0.60119   0.85845   0.71806   0.00000  Uiso   1.00
C1090  C     0.38572   0.82642   0.75932   0.00000  Uiso   1.00
C1091  C     0.61458   0.83973   0.74054   0.00000  Uiso   1.00
C1092  C     0.48929   0.72283   0.75890   0.00000  Uiso   1.00
C1093  C     0.51023   0.94439   0.74131   0.00000  Uiso   1.00
C1094  C     0.52167   0.81213   0.64403   0.00000  Uiso   1.00
C1095  C     0.47859   0.85428   0.85625   0.00000  Uiso   1.00
C1096  C     0.46449   0.85764   0.89973   0.00000  Uiso   1.00
C1097  C     0.53150   0.80408   0.60149   0.00000  Uiso   1.00
C1098  C     0.40708   0.86150   0.96129   0.00000  Uiso   1.00
C1099  C     0.42127   0.86369   0.92068   0.00000  Uiso   1.00
C1100  C     0.49313   0.85032   0.92038   0.00000  Uiso   1.00
C1101  C     0.47655   0.84088   0.96002   0.00000  Uiso   1.00
C1102  C     0.43396   0.84958   0.98088   0.00000  Uiso   1.00
C1103  C     0.50105   0.82367   0.97981   0.00000  Uiso   1.00
C1104  C     0.48643   0.82348   0.52143   0.00000  Uiso   1.00
C1105  C     0.44448   0.83455   0.54139   0.00000  Uiso   1.00
C1106  C     0.41840   0.84618   0.52119   0.00000  Uiso   1.00
C1107  C     0.53761   0.80326   0.95894   0.00000  Uiso   1.00
C1108  C     0.56331   0.78950   0.97818   0.00000  Uiso   1.00
C1109  C     0.55360   0.79544   0.51920   0.00000  Uiso   1.00
C1110  C     0.51385   0.81110   0.54137   0.00000  Uiso   1.00
C1111  C     0.58209   0.78485   0.53865   0.00000  Uiso   1.00
C1112  C     0.57048   0.78925   0.57973   0.00000  Uiso   1.00
C1113  C     0.50353   0.81490   0.58275   0.00000  Uiso   1.00
H1114  H     0.38587   0.85301   0.53739   0.00000  Uiso   1.00
H1115  H     0.47506   0.82819   0.60140   0.00000  Uiso   1.00
H1116  H     0.59246   0.78212   0.59484   0.00000  Uiso   1.00
H1117  H     0.59074   0.77382   0.96038   0.00000  Uiso   1.00
H1118  H     0.37422   0.86748   0.97725   0.00000  Uiso   1.00
H1119  H     0.42987   0.83263   0.57244   0.00000  Uiso   1.00
H1120  H     0.54581   0.79569   0.92749   0.00000  Uiso   1.00
C1121  C     0.66112   0.84128   0.73505   0.00000  Uiso   1.00
C1122  C     0.34067   0.82595   0.76214   0.00000  Uiso   1.00
H1123  H     0.65087   0.81428   0.78829   0.00000  Uiso   1.00
C1124  C     0.51431   0.98889   0.73800   0.00000  Uiso   1.00
H1125  H     0.54145   0.66953   0.71574   0.00000  Uiso   1.00
C1126  C     0.48494   0.67879   0.76217   0.00000  Uiso   1.00
H1127  H     0.45745   0.99891   0.78453   0.00000  Uiso   1.00
N1128  N     0.62359   0.77138   0.51743   0.00000  Uiso   1.00
O1129  O     0.63815   0.74251   0.53014   0.00000  Uiso   1.00
O1130  O     0.65004   0.79306   0.99028   0.00000  Uiso   1.00
N1131  N     0.35824   0.85847   0.70092   0.00000  Uiso   1.00
O1132  O     0.34888   0.85381   0.66758   0.00000  Uiso   1.00
O1133  O     0.39377   0.88139   0.70359   0.00000  Uiso   1.00
N1134  N     0.39138   0.87151   0.90085   0.00000  Uiso   1.00
H1135  H     0.37980   0.90013   0.91322   0.00000  Uiso   1.00
H1136  H     0.36515   0.84813   0.90624   0.00000  Uiso   1.00
N1137  N     0.53912   0.85895   0.90350   0.00000  Uiso   1.00
H1138  H     0.54584   0.88870   0.89363   0.00000  Uiso   1.00
H1139  H     0.55010   0.83705   0.87964   0.00000  Uiso   1.00
Zn1140 Zn    0.85910   0.80756   0.78278   0.00000  Uiso   1.00
Zn1141 Zn    0.80125   0.79044   0.72258   0.00000  Uiso   1.00
Zn1142 Zn    0.87833   0.86331   0.71188   0.00000  Uiso   1.00
Zn1143 Zn    0.79465   0.87202   0.78277   0.00000  Uiso   1.00
O1144  O     0.83333   0.83333   0.75000   0.00000  Uiso   1.00
O1145  O     0.73656   0.85627   0.77820   0.00000  Uiso   1.00
O1146  O     0.92106   0.81944   0.76768   0.00000  Uiso   1.00
O1147  O     0.80467   0.73570   0.73607   0.00000  Uiso   1.00
O1148  O     0.87104   0.92193   0.71806   0.00000  Uiso   1.00
O1149  O     0.82360   0.79060   0.66625   0.00000  Uiso   1.00
O1150  O     0.79354   0.87313   0.83749   0.00000  Uiso   1.00
O1151  O     0.87755   0.84159   0.65877   0.00000  Uiso   1.00
O1152  O     0.83865   0.82802   0.83749   0.00000  Uiso   1.00
O1153  O     0.84515   0.74768   0.77821   0.00000  Uiso   1.00
O1154  O     0.81247   0.92803   0.76767   0.00000  Uiso   1.00
O1155  O     0.74119   0.79917   0.73607   0.00000  Uiso   1.00
O1156  O     0.93452   0.85845   0.71806   0.00000  Uiso   1.00
C1157  C     0.71906   0.82642   0.75932   0.00000  Uiso   1.00
C1158  C     0.94791   0.83973   0.74054   0.00000  Uiso   1.00
C1159  C     0.82263   0.72283   0.75890   0.00000  Uiso   1.00
C1160  C     0.84356   0.94439   0.74131   0.00000  Uiso   1.00
C1161  C     0.85501   0.81213   0.64403   0.00000  Uiso   1.00
C1162  C     0.81192   0.85428   0.85625   0.00000  Uiso   1.00
C1163  C     0.79782   0.85764   0.89973   0.00000  Uiso   1.00
C1164  C     0.86483   0.80408   0.60149   0.00000  Uiso   1.00
C1165  C     0.74041   0.86150   0.96129   0.00000  Uiso   1.00
C1166  C     0.75461   0.86369   0.92068   0.00000  Uiso   1.00
C1167  C     0.82647   0.85032   0.92038   0.00000  Uiso   1.00
C1168  C     0.80989   0.84088   0.96002   0.00000  Uiso   1.00
C1169  C     0.76729   0.84958   0.98088   0.00000  Uiso   1.00
C1170  C     0.83439   0.82367   0.97981   0.00000  Uiso   1.00
C1171  C     0.81976   0.82348   0.52143   0.00000  Uiso   1.00
C1172  C     0.77781   0.83455   0.54139   0.00000  Uiso   1.00
C1173  C     0.75173   0.84618   0.52119   0.00000  Uiso   1.00
C1174  C     0.87094   0.80326   0.95894   0.00000  Uiso   1.00
C1175  C     0.89665   0.78950   0.97818   0.00000  Uiso   1.00
C1176  C     0.88693   0.79544   0.51920   0.00000  Uiso   1.00
C1177  C     0.84719   0.81110   0.54137   0.00000  Uiso   1.00
C1178  C     0.91542   0.78485   0.53865   0.00000  Uiso   1.00
C1179  C     0.90381   0.78925   0.57973   0.00000  Uiso   1.00
C1180  C     0.83686   0.81490   0.58275   0.00000  Uiso   1.00
H1181  H     0.71920   0.85301   0.53739   0.00000  Uiso   1.00
H1182  H     0.80840   0.82819   0.60140   0.00000  Uiso   1.00
H1183  H     0.92580   0.78212   0.59484   0.00000  Uiso   1.00
H1184  H     0.92407   0.77382   0.96038   0.00000  Uiso   1.00
H1185  H     0.70756   0.86748   0.97725   0.00000  Uiso   1.00
H1186  H     0.76320   0.83263   0.57244   0.00000  Uiso   1.00
H1187  H     0.87914   0.79569   0.92749   0.00000  Uiso   1.00
C1188  C     0.99445   0.84128   0.73505   0.00000  Uiso   1.00
C1189  C     0.67401   0.82595   0.76214   0.00000  Uiso   1.00
H1190  H     0.98421   0.81428   0.78829   0.00000  Uiso   1.00
C1191  C     0.84765   0.98889   0.73800   0.00000  Uiso   1.00
H1192  H     0.87478   0.66953   0.71574   0.00000  Uiso   1.00
C1193  C     0.81828   0.67879   0.76217   0.00000  Uiso   1.00
H1194  H     0.79078   0.99891   0.78453   0.00000  Uiso   1.00
N1195  N     0.95692   0.77138   0.51743   0.00000  Uiso   1.00
O1196  O     0.97149   0.74251   0.53014   0.00000  Uiso   1.00
O1197  O     0.98337   0.79306   0.99028   0.00000  Uiso   1.00
N1198  N     0.69157   0.85847   0.70092   0.00000  Uiso   1.00
O1199  O     0.68222   0.85381   0.66758   0.00000  Uiso   1.00
O1200  O     0.72710   0.88139   0.70359   0.00000  Uiso   1.00
N1201  N     0.72472   0.87151   0.90085   0.00000  Uiso   1.00
H1202  H     0.71313   0.90013   0.91322   0.00000  Uiso   1.00
H1203  H     0.69848   0.84813   0.90624   0.00000  Uiso   1.00
N1204  N     0.87246   0.85895   0.90350   0.00000  Uiso   1.00
H1205  H     0.87918   0.88870   0.89363   0.00000  Uiso   1.00
H1206  H     0.88343   0.83705   0.87964   0.00000  Uiso   1.00
loop_
_geom_bond_atom_site_label_1
_geom_bond_atom_site_label_2
_geom_bond_distance
_geom_bond_site_symmetry_2
_ccdc_geom_bond_type
Zn1    O14     1.927   .     S
Zn1    O5      1.963   .     S
Zn1    O13     1.926   .     S
Zn1    O7      1.922   .     S
Zn2    O8      1.935   .     S
Zn2    O16     1.925   .     S
Zn2    O5      1.949   .     S
Zn2    O10     1.928   .     S
Zn3    O9      1.929   .     S
Zn3    O17     1.940   .     S
Zn3    O12     1.939   .     S
Zn3    O5      1.926   .     S
Zn4    O15     1.928   .     S
Zn4    O11     1.943   .     S
Zn4    O6      1.935   .     S
Zn4    O5      1.929   .     S
O6     C18     1.267   .     A
O7     C19     1.282   .     A
O8     C20     1.280   .     A
O9     C21     1.268   .     A
O10    C22     1.275   .     A
O11    C23     1.284   .     A
O12    C22     1.271   .     A
O13    C23     1.285   .     A
O14    C20     1.280   .     A
O15    C21     1.268   .     A
O16    C18     1.274   .     A
O17    C19     1.278   .     A
C18    C50     1.439   .     S
C19    C49     1.464   .     S
C20    C54     1.435   .     S
C21    C52     1.451   .     S
C22    C25     1.453   .     S
C23    C24     1.478   .     S
C24    C27     1.412   .     A
C24    C28     1.415   .     A
C25    C40     1.392   .     A
C25    C41     1.389   .     A
C26    C30     1.397   .     A
C26    C27     1.396   .     A
C26    H46     1.084   .     S
C27    N62     1.433   .     S
C28    C29     1.419   .     A
C28    N65     1.439   .     S
C29    C30     1.415   .     A
C29    C31     1.426   .     A
C30    C637    1.393   .     S
C31    C35     1.408   .     A
C31    C635    1.422   .     S
C32    C38     1.428   .     A
C32    C33     1.414   .     A
C32    C634    1.422   1_554 S
C33    C34     1.388   .     A
C33    H47     1.077   .     S
C34    H42     1.084   .     S
C34    C633    1.393   1_554 S
C35    H48     1.078   .     S
C35    C36     1.385   .     A
C36    H45     1.081   .     S
C36    C640    1.398   .     S
C37    C38     1.427   .     A
C37    C39     1.419   .     A
C37    C639    1.398   1_554 S
C38    C41     1.409   .     A
C39    N56     1.438   .     S
C39    C40     1.396   .     A
C40    H44     1.084   .     S
C41    H43     1.078   .     S
C49    C117    1.344   .     S
C49    N126    1.446   .     S
C50    C183    1.344   1_455 S
C50    H185    1.086   1_455 S
H51    C117    1.086   .     S
C52    H254    1.088   .     S
C52    C255    1.331   .     S
H53    C454    1.088   1_545 S
C54    C454    1.331   1_545 S
C54    H457    1.086   1_545 S
H55    C255    1.086   .     S
N56    O57     1.301   .     A
N56    O661    1.301   1_554 S
O58    N659    1.301   .     S
N59    O60     1.301   .     A
N59    O61     1.302   .     A
N59    C183    1.446   1_455 S
N62    H64     1.046   .     S
N62    H63     1.046   .     S
N65    H66     1.046   .     S
N65    H67     1.043   .     S
Zn68   O81     1.927   .     S
Zn68   O72     1.963   .     S
Zn68   O80     1.926   .     S
Zn68   O74     1.922   .     S
Zn69   O75     1.935   .     S
Zn69   O83     1.925   .     S
Zn69   O72     1.949   .     S
Zn69   O77     1.928   .     S
Zn70   O76     1.929   .     S
Zn70   O84     1.940   .     S
Zn70   O79     1.939   .     S
Zn70   O72     1.926   .     S
Zn71   O82     1.928   .     S
Zn71   O78     1.943   .     S
Zn71   O73     1.935   .     S
Zn71   O72     1.929   .     S
O73    C85     1.267   .     A
O74    C86     1.282   .     A
O75    C87     1.280   .     A
O76    C88     1.268   .     A
O77    C89     1.275   .     A
O78    C90     1.284   .     A
O79    C89     1.271   .     A
O80    C90     1.285   .     A
O81    C87     1.280   .     A
O82    C88     1.268   .     A
O83    C85     1.274   .     A
O84    C86     1.278   .     A
C85    C117    1.439   .     S
C86    C116    1.464   .     S
C87    C121    1.435   .     S
C88    C119    1.451   .     S
C89    C92     1.453   .     S
C90    C91     1.478   .     S
C91    C94     1.412   .     A
C91    C95     1.415   .     A
C92    C107    1.392   .     A
C92    C108    1.389   .     A
C93    C97     1.397   .     A
C93    C94     1.396   .     A
C93    H113    1.084   .     S
C94    N129    1.433   .     S
C95    C96     1.419   .     A
C95    N132    1.439   .     S
C96    C97     1.415   .     A
C96    C98     1.426   .     A
C97    C704    1.393   .     S
C98    C102    1.408   .     A
C98    C702    1.422   .     S
C99    C105    1.428   .     A
C99    C100    1.414   .     A
C99    C701    1.422   1_554 S
C100   C101    1.388   .     A
C100   H114    1.077   .     S
C101   H109    1.084   .     S
C101   C700    1.393   1_554 S
C102   H115    1.078   .     S
C102   C103    1.385   .     A
C103   H112    1.081   .     S
C103   C707    1.398   .     S
C104   C105    1.427   .     A
C104   C106    1.419   .     A
C104   C706    1.398   1_554 S
C105   C108    1.409   .     A
C106   N123    1.438   .     S
C106   C107    1.396   .     A
C107   H111    1.084   .     S
C108   H110    1.078   .     S
C116   C184    1.344   .     S
C116   N193    1.446   .     S
H118   C184    1.086   .     S
C119   H321    1.088   .     S
C119   C322    1.331   .     S
H120   C521    1.088   1_545 S
C121   C521    1.331   1_545 S
C121   H524    1.086   1_545 S
H122   C322    1.086   .     S
N123   O124    1.301   .     A
N123   O728    1.301   1_554 S
O125   N726    1.301   .     S
N126   O127    1.301   .     A
N126   O128    1.302   .     A
N129   H131    1.046   .     S
N129   H130    1.046   .     S
N132   H133    1.046   .     S
N132   H134    1.043   .     S
Zn135  O148    1.927   .     S
Zn135  O139    1.963   .     S
Zn135  O147    1.926   .     S
Zn135  O141    1.922   .     S
Zn136  O142    1.935   .     S
Zn136  O150    1.925   .     S
Zn136  O139    1.949   .     S
Zn136  O144    1.928   .     S
Zn137  O143    1.929   .     S
Zn137  O151    1.940   .     S
Zn137  O146    1.939   .     S
Zn137  O139    1.926   .     S
Zn138  O149    1.928   .     S
Zn138  O145    1.943   .     S
Zn138  O140    1.935   .     S
Zn138  O139    1.929   .     S
O140   C152    1.267   .     A
O141   C153    1.282   .     A
O142   C154    1.280   .     A
O143   C155    1.268   .     A
O144   C156    1.275   .     A
O145   C157    1.284   .     A
O146   C156    1.271   .     A
O147   C157    1.285   .     A
O148   C154    1.280   .     A
O149   C155    1.268   .     A
O150   C152    1.274   .     A
O151   C153    1.278   .     A
C152   C184    1.439   .     S
C153   C183    1.464   .     S
C154   C188    1.435   .     S
C155   C186    1.451   .     S
C156   C159    1.453   .     S
C157   C158    1.478   .     S
C158   C161    1.412   .     A
C158   C162    1.415   .     A
C159   C174    1.392   .     A
C159   C175    1.389   .     A
C160   C164    1.397   .     A
C160   C161    1.396   .     A
C160   H180    1.084   .     S
C161   N196    1.433   .     S
C162   C163    1.419   .     A
C162   N199    1.439   .     S
C163   C164    1.415   .     A
C163   C165    1.426   .     A
C164   C771    1.393   .     S
C165   C169    1.408   .     A
C165   C769    1.422   .     S
C166   C172    1.428   .     A
C166   C167    1.414   .     A
C166   C768    1.422   1_554 S
C167   C168    1.388   .     A
C167   H181    1.077   .     S
C168   H176    1.084   .     S
C168   C767    1.393   1_554 S
C169   H182    1.078   .     S
C169   C170    1.385   .     A
C170   H179    1.081   .     S
C170   C774    1.398   .     S
C171   C172    1.427   .     A
C171   C173    1.419   .     A
C171   C773    1.398   1_554 S
C172   C175    1.409   .     A
C173   N190    1.438   .     S
C173   C174    1.396   .     A
C174   H178    1.084   .     S
C175   H177    1.078   .     S
C183   C50     1.344   1_655 S
C183   N59     1.446   1_655 S
H185   C50     1.086   1_655 S
C186   H388    1.088   .     S
C186   C389    1.331   .     S
H187   C588    1.088   1_545 S
C188   C588    1.331   1_545 S
C188   H591    1.086   1_545 S
H189   C389    1.086   .     S
N190   O191    1.301   .     A
N190   O795    1.301   1_554 S
O192   N793    1.301   .     S
N193   O194    1.301   .     A
N193   O195    1.302   .     A
N196   H198    1.046   .     S
N196   H197    1.046   .     S
N199   H200    1.046   .     S
N199   H201    1.043   .     S
Zn202  O215    1.927   .     S
Zn202  O206    1.963   .     S
Zn202  O214    1.926   .     S
Zn202  O208    1.922   .     S
Zn203  O209    1.935   .     S
Zn203  O217    1.925   .     S
Zn203  O206    1.949   .     S
Zn203  O211    1.928   .     S
Zn204  O210    1.929   .     S
Zn204  O218    1.940   .     S
Zn204  O213    1.939   .     S
Zn204  O206    1.926   .     S
Zn205  O216    1.928   .     S
Zn205  O212    1.943   .     S
Zn205  O207    1.935   .     S
Zn205  O206    1.929   .     S
O207   C219    1.267   .     A
O208   C220    1.282   .     A
O209   C221    1.280   .     A
O210   C222    1.268   .     A
O211   C223    1.275   .     A
O212   C224    1.284   .     A
O213   C223    1.271   .     A
O214   C224    1.285   .     A
O215   C221    1.280   .     A
O216   C222    1.268   .     A
O217   C219    1.274   .     A
O218   C220    1.278   .     A
C219   C251    1.439   .     S
C220   C250    1.464   .     S
C221   C255    1.435   .     S
C222   C253    1.451   .     S
C223   C226    1.453   .     S
C224   C225    1.478   .     S
C225   C228    1.412   .     A
C225   C229    1.415   .     A
C226   C241    1.392   .     A
C226   C242    1.389   .     A
C227   C231    1.397   .     A
C227   C228    1.396   .     A
C227   H247    1.084   .     S
C228   N263    1.433   .     S
C229   C230    1.419   .     A
C229   N266    1.439   .     S
C230   C231    1.415   .     A
C230   C232    1.426   .     A
C231   C838    1.393   .     S
C232   C236    1.408   .     A
C232   C836    1.422   .     S
C233   C239    1.428   .     A
C233   C234    1.414   .     A
C233   C835    1.422   1_554 S
C234   C235    1.388   .     A
C234   H248    1.077   .     S
C235   H243    1.084   .     S
C235   C834    1.393   1_554 S
C236   H249    1.078   .     S
C236   C237    1.385   .     A
C237   H246    1.081   .     S
C237   C841    1.398   .     S
C238   C239    1.427   .     A
C238   C240    1.419   .     A
C238   C840    1.398   1_554 S
C239   C242    1.409   .     A
C240   N257    1.438   .     S
C240   C241    1.396   .     A
C241   H245    1.084   .     S
C242   H244    1.078   .     S
C250   C318    1.344   .     S
C250   N327    1.446   .     S
C251   C384    1.344   1_455 S
C251   H386    1.086   1_455 S
H252   C318    1.086   .     S
C253   H455    1.088   .     S
C253   C456    1.331   .     S
H256   C456    1.086   .     S
N257   O258    1.301   .     A
N257   O862    1.301   1_554 S
O259   N860    1.301   .     S
N260   O261    1.301   .     A
N260   O262    1.302   .     A
N260   C384    1.446   1_455 S
N263   H265    1.046   .     S
N263   H264    1.046   .     S
N266   H267    1.046   .     S
N266   H268    1.043   .     S
Zn269  O282    1.927   .     S
Zn269  O273    1.963   .     S
Zn269  O281    1.926   .     S
Zn269  O275    1.922   .     S
Zn270  O276    1.935   .     S
Zn270  O284    1.925   .     S
Zn270  O273    1.949   .     S
Zn270  O278    1.928   .     S
Zn271  O277    1.929   .     S
Zn271  O285    1.940   .     S
Zn271  O280    1.939   .     S
Zn271  O273    1.926   .     S
Zn272  O283    1.928   .     S
Zn272  O279    1.943   .     S
Zn272  O274    1.935   .     S
Zn272  O273    1.929   .     S
O274   C286    1.267   .     A
O275   C287    1.282   .     A
O276   C288    1.280   .     A
O277   C289    1.268   .     A
O278   C290    1.275   .     A
O279   C291    1.284   .     A
O280   C290    1.271   .     A
O281   C291    1.285   .     A
O282   C288    1.280   .     A
O283   C289    1.268   .     A
O284   C286    1.274   .     A
O285   C287    1.278   .     A
C286   C318    1.439   .     S
C287   C317    1.464   .     S
C288   C322    1.435   .     S
C289   C320    1.451   .     S
C290   C293    1.453   .     S
C291   C292    1.478   .     S
C292   C295    1.412   .     A
C292   C296    1.415   .     A
C293   C308    1.392   .     A
C293   C309    1.389   .     A
C294   C298    1.397   .     A
C294   C295    1.396   .     A
C294   H314    1.084   .     S
C295   N330    1.433   .     S
C296   C297    1.419   .     A
C296   N333    1.439   .     S
C297   C298    1.415   .     A
C297   C299    1.426   .     A
C298   C905    1.393   .     S
C299   C303    1.408   .     A
C299   C903    1.422   .     S
C300   C306    1.428   .     A
C300   C301    1.414   .     A
C300   C902    1.422   1_554 S
C301   C302    1.388   .     A
C301   H315    1.077   .     S
C302   H310    1.084   .     S
C302   C901    1.393   1_554 S
C303   H316    1.078   .     S
C303   C304    1.385   .     A
C304   H313    1.081   .     S
C304   C908    1.398   .     S
C305   C306    1.427   .     A
C305   C307    1.419   .     A
C305   C907    1.398   1_554 S
C306   C309    1.409   .     A
C307   N324    1.438   .     S
C307   C308    1.396   .     A
C308   H312    1.084   .     S
C309   H311    1.078   .     S
C317   C385    1.344   .     S
C317   N394    1.446   .     S
H319   C385    1.086   .     S
C320   H522    1.088   .     S
C320   C523    1.331   .     S
H323   C523    1.086   .     S
N324   O325    1.301   .     A
N324   O929    1.301   1_554 S
O326   N927    1.301   .     S
N327   O328    1.301   .     A
N327   O329    1.302   .     A
N330   H332    1.046   .     S
N330   H331    1.046   .     S
N333   H334    1.046   .     S
N333   H335    1.043   .     S
Zn336  O349    1.927   .     S
Zn336  O340    1.963   .     S
Zn336  O348    1.926   .     S
Zn336  O342    1.922   .     S
Zn337  O343    1.935   .     S
Zn337  O351    1.925   .     S
Zn337  O340    1.949   .     S
Zn337  O345    1.928   .     S
Zn338  O344    1.929   .     S
Zn338  O352    1.940   .     S
Zn338  O347    1.939   .     S
Zn338  O340    1.926   .     S
Zn339  O350    1.928   .     S
Zn339  O346    1.943   .     S
Zn339  O341    1.935   .     S
Zn339  O340    1.929   .     S
O341   C353    1.267   .     A
O342   C354    1.282   .     A
O343   C355    1.280   .     A
O344   C356    1.268   .     A
O345   C357    1.275   .     A
O346   C358    1.284   .     A
O347   C357    1.271   .     A
O348   C358    1.285   .     A
O349   C355    1.280   .     A
O350   C356    1.268   .     A
O351   C353    1.274   .     A
O352   C354    1.278   .     A
C353   C385    1.439   .     S
C354   C384    1.464   .     S
C355   C389    1.435   .     S
C356   C387    1.451   .     S
C357   C360    1.453   .     S
C358   C359    1.478   .     S
C359   C362    1.412   .     A
C359   C363    1.415   .     A
C360   C375    1.392   .     A
C360   C376    1.389   .     A
C361   C365    1.397   .     A
C361   C362    1.396   .     A
C361   H381    1.084   .     S
C362   N397    1.433   .     S
C363   C364    1.419   .     A
C363   N400    1.439   .     S
C364   C365    1.415   .     A
C364   C366    1.426   .     A
C365   C972    1.393   .     S
C366   C370    1.408   .     A
C366   C970    1.422   .     S
C367   C373    1.428   .     A
C367   C368    1.414   .     A
C367   C969    1.422   1_554 S
C368   C369    1.388   .     A
C368   H382    1.077   .     S
C369   H377    1.084   .     S
C369   C968    1.393   1_554 S
C370   H383    1.078   .     S
C370   C371    1.385   .     A
C371   H380    1.081   .     S
C371   C975    1.398   .     S
C372   C373    1.427   .     A
C372   C374    1.419   .     A
C372   C974    1.398   1_554 S
C373   C376    1.409   .     A
C374   N391    1.438   .     S
C374   C375    1.396   .     A
C375   H379    1.084   .     S
C376   H378    1.078   .     S
C384   C251    1.344   1_655 S
C384   N260    1.446   1_655 S
H386   C251    1.086   1_655 S
C387   H589    1.088   .     S
C387   C590    1.331   .     S
H390   C590    1.086   .     S
N391   O392    1.301   .     A
N391   O996    1.301   1_554 S
O393   N994    1.301   .     S
N394   O395    1.301   .     A
N394   O396    1.302   .     A
N397   H399    1.046   .     S
N397   H398    1.046   .     S
N400   H401    1.046   .     S
N400   H402    1.043   .     S
Zn403  O416    1.927   .     S
Zn403  O407    1.963   .     S
Zn403  O415    1.926   .     S
Zn403  O409    1.922   .     S
Zn404  O410    1.935   .     S
Zn404  O418    1.925   .     S
Zn404  O407    1.949   .     S
Zn404  O412    1.928   .     S
Zn405  O411    1.929   .     S
Zn405  O419    1.940   .     S
Zn405  O414    1.939   .     S
Zn405  O407    1.926   .     S
Zn406  O417    1.928   .     S
Zn406  O413    1.943   .     S
Zn406  O408    1.935   .     S
Zn406  O407    1.929   .     S
O408   C420    1.267   .     A
O409   C421    1.282   .     A
O410   C422    1.280   .     A
O411   C423    1.268   .     A
O412   C424    1.275   .     A
O413   C425    1.284   .     A
O414   C424    1.271   .     A
O415   C425    1.285   .     A
O416   C422    1.280   .     A
O417   C423    1.268   .     A
O418   C420    1.274   .     A
O419   C421    1.278   .     A
C420   C452    1.439   .     S
C421   C451    1.464   .     S
C422   C456    1.435   .     S
C423   C454    1.451   .     S
C424   C427    1.453   .     S
C425   C426    1.478   .     S
C426   C429    1.412   .     A
C426   C430    1.415   .     A
C427   C442    1.392   .     A
C427   C443    1.389   .     A
C428   C432    1.397   .     A
C428   C429    1.396   .     A
C428   H448    1.084   .     S
C429   N464    1.433   .     S
C430   C431    1.419   .     A
C430   N467    1.439   .     S
C431   C432    1.415   .     A
C431   C433    1.426   .     A
C432   C1039   1.393   .     S
C433   C437    1.408   .     A
C433   C1037   1.422   .     S
C434   C440    1.428   .     A
C434   C435    1.414   .     A
C434   C1036   1.422   1_554 S
C435   C436    1.388   .     A
C435   H449    1.077   .     S
C436   H444    1.084   .     S
C436   C1035   1.393   1_554 S
C437   H450    1.078   .     S
C437   C438    1.385   .     A
C438   H447    1.081   .     S
C438   C1042   1.398   .     S
C439   C440    1.427   .     A
C439   C441    1.419   .     A
C439   C1041   1.398   1_554 S
C440   C443    1.409   .     A
C441   N458    1.438   .     S
C441   C442    1.396   .     A
C442   H446    1.084   .     S
C443   H445    1.078   .     S
C451   C519    1.344   .     S
C451   N528    1.446   .     S
C452   C585    1.344   1_455 S
C452   H587    1.086   1_455 S
H453   C519    1.086   .     S
C454   H53     1.088   1_565 S
C454   C54     1.331   1_565 S
H457   C54     1.086   1_565 S
N458   O459    1.301   .     A
N458   O1063   1.301   1_554 S
O460   N1061   1.301   .     S
N461   O462    1.301   .     A
N461   O463    1.302   .     A
N461   C585    1.446   1_455 S
N464   H466    1.046   .     S
N464   H465    1.046   .     S
N467   H468    1.046   .     S
N467   H469    1.043   .     S
Zn470  O483    1.927   .     S
Zn470  O474    1.963   .     S
Zn470  O482    1.926   .     S
Zn470  O476    1.922   .     S
Zn471  O477    1.935   .     S
Zn471  O485    1.925   .     S
Zn471  O474    1.949   .     S
Zn471  O479    1.928   .     S
Zn472  O478    1.929   .     S
Zn472  O486    1.940   .     S
Zn472  O481    1.939   .     S
Zn472  O474    1.926   .     S
Zn473  O484    1.928   .     S
Zn473  O480    1.943   .     S
Zn473  O475    1.935   .     S
Zn473  O474    1.929   .     S
O475   C487    1.267   .     A
O476   C488    1.282   .     A
O477   C489    1.280   .     A
O478   C490    1.268   .     A
O479   C491    1.275   .     A
O480   C492    1.284   .     A
O481   C491    1.271   .     A
O482   C492    1.285   .     A
O483   C489    1.280   .     A
O484   C490    1.268   .     A
O485   C487    1.274   .     A
O486   C488    1.278   .     A
C487   C519    1.439   .     S
C488   C518    1.464   .     S
C489   C523    1.435   .     S
C490   C521    1.451   .     S
C491   C494    1.453   .     S
C492   C493    1.478   .     S
C493   C496    1.412   .     A
C493   C497    1.415   .     A
C494   C509    1.392   .     A
C494   C510    1.389   .     A
C495   C499    1.397   .     A
C495   C496    1.396   .     A
C495   H515    1.084   .     S
C496   N531    1.433   .     S
C497   C498    1.419   .     A
C497   N534    1.439   .     S
C498   C499    1.415   .     A
C498   C500    1.426   .     A
C499   C1106   1.393   .     S
C500   C504    1.408   .     A
C500   C1104   1.422   .     S
C501   C507    1.428   .     A
C501   C502    1.414   .     A
C501   C1103   1.422   1_554 S
C502   C503    1.388   .     A
C502   H516    1.077   .     S
C503   H511    1.084   .     S
C503   C1102   1.393   1_554 S
C504   H517    1.078   .     S
C504   C505    1.385   .     A
C505   H514    1.081   .     S
C505   C1109   1.398   .     S
C506   C507    1.427   .     A
C506   C508    1.419   .     A
C506   C1108   1.398   1_554 S
C507   C510    1.409   .     A
C508   N525    1.438   .     S
C508   C509    1.396   .     A
C509   H513    1.084   .     S
C510   H512    1.078   .     S
C518   C586    1.344   .     S
C518   N595    1.446   .     S
H520   C586    1.086   .     S
C521   H120    1.088   1_565 S
C521   C121    1.331   1_565 S
H524   C121    1.086   1_565 S
N525   O526    1.301   .     A
N525   O1130   1.301   1_554 S
O527   N1128   1.301   .     S
N528   O529    1.301   .     A
N528   O530    1.302   .     A
N531   H533    1.046   .     S
N531   H532    1.046   .     S
N534   H535    1.046   .     S
N534   H536    1.043   .     S
Zn537  O550    1.927   .     S
Zn537  O541    1.963   .     S
Zn537  O549    1.926   .     S
Zn537  O543    1.922   .     S
Zn538  O544    1.935   .     S
Zn538  O552    1.925   .     S
Zn538  O541    1.949   .     S
Zn538  O546    1.928   .     S
Zn539  O545    1.929   .     S
Zn539  O553    1.940   .     S
Zn539  O548    1.939   .     S
Zn539  O541    1.926   .     S
Zn540  O551    1.928   .     S
Zn540  O547    1.943   .     S
Zn540  O542    1.935   .     S
Zn540  O541    1.929   .     S
O542   C554    1.267   .     A
O543   C555    1.282   .     A
O544   C556    1.280   .     A
O545   C557    1.268   .     A
O546   C558    1.275   .     A
O547   C559    1.284   .     A
O548   C558    1.271   .     A
O549   C559    1.285   .     A
O550   C556    1.280   .     A
O551   C557    1.268   .     A
O552   C554    1.274   .     A
O553   C555    1.278   .     A
C554   C586    1.439   .     S
C555   C585    1.464   .     S
C556   C590    1.435   .     S
C557   C588    1.451   .     S
C558   C561    1.453   .     S
C559   C560    1.478   .     S
C560   C563    1.412   .     A
C560   C564    1.415   .     A
C561   C576    1.392   .     A
C561   C577    1.389   .     A
C562   C566    1.397   .     A
C562   C563    1.396   .     A
C562   H582    1.084   .     S
C563   N598    1.433   .     S
C564   C565    1.419   .     A
C564   N601    1.439   .     S
C565   C566    1.415   .     A
C565   C567    1.426   .     A
C566   C1173   1.393   .     S
C567   C571    1.408   .     A
C567   C1171   1.422   .     S
C568   C574    1.428   .     A
C568   C569    1.414   .     A
C568   C1170   1.422   1_554 S
C569   C570    1.388   .     A
C569   H583    1.077   .     S
C570   H578    1.084   .     S
C570   C1169   1.393   1_554 S
C571   H584    1.078   .     S
C571   C572    1.385   .     A
C572   H581    1.081   .     S
C572   C1176   1.398   .     S
C573   C574    1.427   .     A
C573   C575    1.419   .     A
C573   C1175   1.398   1_554 S
C574   C577    1.409   .     A
C575   N592    1.438   .     S
C575   C576    1.396   .     A
C576   H580    1.084   .     S
C577   H579    1.078   .     S
C585   C452    1.344   1_655 S
C585   N461    1.446   1_655 S
H587   C452    1.086   1_655 S
C588   H187    1.088   1_565 S
C588   C188    1.331   1_565 S
H591   C188    1.086   1_565 S
N592   O593    1.301   .     A
N592   O1197   1.301   1_554 S
O594   N1195   1.301   .     S
N595   O596    1.301   .     A
N595   O597    1.302   .     A
N598   H600    1.046   .     S
N598   H599    1.046   .     S
N601   H602    1.046   .     S
N601   H603    1.043   .     S
Zn604  O617    1.927   .     S
Zn604  O608    1.963   .     S
Zn604  O616    1.926   .     S
Zn604  O610    1.922   .     S
Zn605  O611    1.935   .     S
Zn605  O619    1.925   .     S
Zn605  O608    1.949   .     S
Zn605  O613    1.928   .     S
Zn606  O612    1.929   .     S
Zn606  O620    1.940   .     S
Zn606  O615    1.939   .     S
Zn606  O608    1.926   .     S
Zn607  O618    1.928   .     S
Zn607  O614    1.943   .     S
Zn607  O609    1.935   .     S
Zn607  O608    1.929   .     S
O609   C621    1.267   .     A
O610   C622    1.282   .     A
O611   C623    1.280   .     A
O612   C624    1.268   .     A
O613   C625    1.275   .     A
O614   C626    1.284   .     A
O615   C625    1.271   .     A
O616   C626    1.285   .     A
O617   C623    1.280   .     A
O618   C624    1.268   .     A
O619   C621    1.274   .     A
O620   C622    1.278   .     A
C621   C653    1.439   .     S
C622   C652    1.464   .     S
C623   C657    1.435   .     S
C624   C655    1.451   .     S
C625   C628    1.453   .     S
C626   C627    1.478   .     S
C627   C630    1.412   .     A
C627   C631    1.415   .     A
C628   C643    1.392   .     A
C628   C644    1.389   .     A
C629   C633    1.397   .     A
C629   C630    1.396   .     A
C629   H649    1.084   .     S
C630   N665    1.433   .     S
C631   C632    1.419   .     A
C631   N668    1.439   .     S
C632   C633    1.415   .     A
C632   C634    1.426   .     A
C633   C34     1.393   1_556 S
C634   C638    1.408   .     A
C634   C32     1.422   1_556 S
C635   C641    1.428   .     A
C635   C636    1.414   .     A
C636   C637    1.388   .     A
C636   H650    1.077   .     S
C637   H645    1.084   .     S
C638   H651    1.078   .     S
C638   C639    1.385   .     A
C639   H648    1.081   .     S
C639   C37     1.398   1_556 S
C640   C641    1.427   .     A
C640   C642    1.419   .     A
C641   C644    1.409   .     A
C642   N659    1.438   .     S
C642   C643    1.396   .     A
C643   H647    1.084   .     S
C644   H646    1.078   .     S
C652   C720    1.344   .     S
C652   N729    1.446   .     S
C653   C786    1.344   1_455 S
C653   H788    1.086   1_455 S
H654   C720    1.086   .     S
C655   H857    1.088   .     S
C655   C858    1.331   .     S
H656   C1057   1.088   1_545 S
C657   C1057   1.331   1_545 S
C657   H1060   1.086   1_545 S
H658   C858    1.086   .     S
N659   O660    1.301   .     A
O661   N56     1.301   1_556 S
N662   O663    1.301   .     A
N662   O664    1.302   .     A
N662   C786    1.446   1_455 S
N665   H667    1.046   .     S
N665   H666    1.046   .     S
N668   H669    1.046   .     S
N668   H670    1.043   .     S
Zn671  O684    1.927   .     S
Zn671  O675    1.963   .     S
Zn671  O683    1.926   .     S
Zn671  O677    1.922   .     S
Zn672  O678    1.935   .     S
Zn672  O686    1.925   .     S
Zn672  O675    1.949   .     S
Zn672  O680    1.928   .     S
Zn673  O679    1.929   .     S
Zn673  O687    1.940   .     S
Zn673  O682    1.939   .     S
Zn673  O675    1.926   .     S
Zn674  O685    1.928   .     S
Zn674  O681    1.943   .     S
Zn674  O676    1.935   .     S
Zn674  O675    1.929   .     S
O676   C688    1.267   .     A
O677   C689    1.282   .     A
O678   C690    1.280   .     A
O679   C691    1.268   .     A
O680   C692    1.275   .     A
O681   C693    1.284   .     A
O682   C692    1.271   .     A
O683   C693    1.285   .     A
O684   C690    1.280   .     A
O685   C691    1.268   .     A
O686   C688    1.274   .     A
O687   C689    1.278   .     A
C688   C720    1.439   .     S
C689   C719    1.464   .     S
C690   C724    1.435   .     S
C691   C722    1.451   .     S
C692   C695    1.453   .     S
C693   C694    1.478   .     S
C694   C697    1.412   .     A
C694   C698    1.415   .     A
C695   C710    1.392   .     A
C695   C711    1.389   .     A
C696   C700    1.397   .     A
C696   C697    1.396   .     A
C696   H716    1.084   .     S
C697   N732    1.433   .     S
C698   C699    1.419   .     A
C698   N735    1.439   .     S
C699   C700    1.415   .     A
C699   C701    1.426   .     A
C700   C101    1.393   1_556 S
C701   C705    1.408   .     A
C701   C99     1.422   1_556 S
C702   C708    1.428   .     A
C702   C703    1.414   .     A
C703   C704    1.388   .     A
C703   H717    1.077   .     S
C704   H712    1.084   .     S
C705   H718    1.078   .     S
C705   C706    1.385   .     A
C706   H715    1.081   .     S
C706   C104    1.398   1_556 S
C707   C708    1.427   .     A
C707   C709    1.419   .     A
C708   C711    1.409   .     A
C709   N726    1.438   .     S
C709   C710    1.396   .     A
C710   H714    1.084   .     S
C711   H713    1.078   .     S
C719   C787    1.344   .     S
C719   N796    1.446   .     S
H721   C787    1.086   .     S
C722   H924    1.088   .     S
C722   C925    1.331   .     S
H723   C1124   1.088   1_545 S
C724   C1124   1.331   1_545 S
C724   H1127   1.086   1_545 S
H725   C925    1.086   .     S
N726   O727    1.301   .     A
O728   N123    1.301   1_556 S
N729   O730    1.301   .     A
N729   O731    1.302   .     A
N732   H734    1.046   .     S
N732   H733    1.046   .     S
N735   H736    1.046   .     S
N735   H737    1.043   .     S
Zn738  O751    1.927   .     S
Zn738  O742    1.963   .     S
Zn738  O750    1.926   .     S
Zn738  O744    1.922   .     S
Zn739  O745    1.935   .     S
Zn739  O753    1.925   .     S
Zn739  O742    1.949   .     S
Zn739  O747    1.928   .     S
Zn740  O746    1.929   .     S
Zn740  O754    1.940   .     S
Zn740  O749    1.939   .     S
Zn740  O742    1.926   .     S
Zn741  O752    1.928   .     S
Zn741  O748    1.943   .     S
Zn741  O743    1.935   .     S
Zn741  O742    1.929   .     S
O743   C755    1.267   .     A
O744   C756    1.282   .     A
O745   C757    1.280   .     A
O746   C758    1.268   .     A
O747   C759    1.275   .     A
O748   C760    1.284   .     A
O749   C759    1.271   .     A
O750   C760    1.285   .     A
O751   C757    1.280   .     A
O752   C758    1.268   .     A
O753   C755    1.274   .     A
O754   C756    1.278   .     A
C755   C787    1.439   .     S
C756   C786    1.464   .     S
C757   C791    1.435   .     S
C758   C789    1.451   .     S
C759   C762    1.453   .     S
C760   C761    1.478   .     S
C761   C764    1.412   .     A
C761   C765    1.415   .     A
C762   C777    1.392   .     A
C762   C778    1.389   .     A
C763   C767    1.397   .     A
C763   C764    1.396   .     A
C763   H783    1.084   .     S
C764   N799    1.433   .     S
C765   C766    1.419   .     A
C765   N802    1.439   .     S
C766   C767    1.415   .     A
C766   C768    1.426   .     A
C767   C168    1.393   1_556 S
C768   C772    1.408   .     A
C768   C166    1.422   1_556 S
C769   C775    1.428   .     A
C769   C770    1.414   .     A
C770   C771    1.388   .     A
C770   H784    1.077   .     S
C771   H779    1.084   .     S
C772   H785    1.078   .     S
C772   C773    1.385   .     A
C773   H782    1.081   .     S
C773   C171    1.398   1_556 S
C774   C775    1.427   .     A
C774   C776    1.419   .     A
C775   C778    1.409   .     A
C776   N793    1.438   .     S
C776   C777    1.396   .     A
C777   H781    1.084   .     S
C778   H780    1.078   .     S
C786   C653    1.344   1_655 S
C786   N662    1.446   1_655 S
H788   C653    1.086   1_655 S
C789   H991    1.088   .     S
C789   C992    1.331   .     S
H790   C1191   1.088   1_545 S
C791   C1191   1.331   1_545 S
C791   H1194   1.086   1_545 S
H792   C992    1.086   .     S
N793   O794    1.301   .     A
O795   N190    1.301   1_556 S
N796   O797    1.301   .     A
N796   O798    1.302   .     A
N799   H801    1.046   .     S
N799   H800    1.046   .     S
N802   H803    1.046   .     S
N802   H804    1.043   .     S
Zn805  O818    1.927   .     S
Zn805  O809    1.963   .     S
Zn805  O817    1.926   .     S
Zn805  O811    1.922   .     S
Zn806  O812    1.935   .     S
Zn806  O820    1.925   .     S
Zn806  O809    1.949   .     S
Zn806  O814    1.928   .     S
Zn807  O813    1.929   .     S
Zn807  O821    1.940   .     S
Zn807  O816    1.939   .     S
Zn807  O809    1.926   .     S
Zn808  O819    1.928   .     S
Zn808  O815    1.943   .     S
Zn808  O810    1.935   .     S
Zn808  O809    1.929   .     S
O810   C822    1.267   .     A
O811   C823    1.282   .     A
O812   C824    1.280   .     A
O813   C825    1.268   .     A
O814   C826    1.275   .     A
O815   C827    1.284   .     A
O816   C826    1.271   .     A
O817   C827    1.285   .     A
O818   C824    1.280   .     A
O819   C825    1.268   .     A
O820   C822    1.274   .     A
O821   C823    1.278   .     A
C822   C854    1.439   .     S
C823   C853    1.464   .     S
C824   C858    1.435   .     S
C825   C856    1.451   .     S
C826   C829    1.453   .     S
C827   C828    1.478   .     S
C828   C831    1.412   .     A
C828   C832    1.415   .     A
C829   C844    1.392   .     A
C829   C845    1.389   .     A
C830   C834    1.397   .     A
C830   C831    1.396   .     A
C830   H850    1.084   .     S
C831   N866    1.433   .     S
C832   C833    1.419   .     A
C832   N869    1.439   .     S
C833   C834    1.415   .     A
C833   C835    1.426   .     A
C834   C235    1.393   1_556 S
C835   C839    1.408   .     A
C835   C233    1.422   1_556 S
C836   C842    1.428   .     A
C836   C837    1.414   .     A
C837   C838    1.388   .     A
C837   H851    1.077   .     S
C838   H846    1.084   .     S
C839   H852    1.078   .     S
C839   C840    1.385   .     A
C840   H849    1.081   .     S
C840   C238    1.398   1_556 S
C841   C842    1.427   .     A
C841   C843    1.419   .     A
C842   C845    1.409   .     A
C843   N860    1.438   .     S
C843   C844    1.396   .     A
C844   H848    1.084   .     S
C845   H847    1.078   .     S
C853   C921    1.344   .     S
C853   N930    1.446   .     S
C854   C987    1.344   1_455 S
C854   H989    1.086   1_455 S
H855   C921    1.086   .     S
C856   H1058   1.088   .     S
C856   C1059   1.331   .     S
H859   C1059   1.086   .     S
N860   O861    1.301   .     A
O862   N257    1.301   1_556 S
N863   O864    1.301   .     A
N863   O865    1.302   .     A
N863   C987    1.446   1_455 S
N866   H868    1.046   .     S
N866   H867    1.046   .     S
N869   H870    1.046   .     S
N869   H871    1.043   .     S
Zn872  O885    1.927   .     S
Zn872  O876    1.963   .     S
Zn872  O884    1.926   .     S
Zn872  O878    1.922   .     S
Zn873  O879    1.935   .     S
Zn873  O887    1.925   .     S
Zn873  O876    1.949   .     S
Zn873  O881    1.928   .     S
Zn874  O880    1.929   .     S
Zn874  O888    1.940   .     S
Zn874  O883    1.939   .     S
Zn874  O876    1.926   .     S
Zn875  O886    1.928   .     S
Zn875  O882    1.943   .     S
Zn875  O877    1.935   .     S
Zn875  O876    1.929   .     S
O877   C889    1.267   .     A
O878   C890    1.282   .     A
O879   C891    1.280   .     A
O880   C892    1.268   .     A
O881   C893    1.275   .     A
O882   C894    1.284   .     A
O883   C893    1.271   .     A
O884   C894    1.285   .     A
O885   C891    1.280   .     A
O886   C892    1.268   .     A
O887   C889    1.274   .     A
O888   C890    1.278   .     A
C889   C921    1.439   .     S
C890   C920    1.464   .     S
C891   C925    1.435   .     S
C892   C923    1.451   .     S
C893   C896    1.453   .     S
C894   C895    1.478   .     S
C895   C898    1.412   .     A
C895   C899    1.415   .     A
C896   C911    1.392   .     A
C896   C912    1.389   .     A
C897   C901    1.397   .     A
C897   C898    1.396   .     A
C897   H917    1.084   .     S
C898   N933    1.433   .     S
C899   C900    1.419   .     A
C899   N936    1.439   .     S
C900   C901    1.415   .     A
C900   C902    1.426   .     A
C901   C302    1.393   1_556 S
C902   C906    1.408   .     A
C902   C300    1.422   1_556 S
C903   C909    1.428   .     A
C903   C904    1.414   .     A
C904   C905    1.388   .     A
C904   H918    1.077   .     S
C905   H913    1.084   .     S
C906   H919    1.078   .     S
C906   C907    1.385   .     A
C907   H916    1.081   .     S
C907   C305    1.398   1_556 S
C908   C909    1.427   .     A
C908   C910    1.419   .     A
C909   C912    1.409   .     A
C910   N927    1.438   .     S
C910   C911    1.396   .     A
C911   H915    1.084   .     S
C912   H914    1.078   .     S
C920   C988    1.344   .     S
C920   N997    1.446   .     S
H922   C988    1.086   .     S
C923   H1125   1.088   .     S
C923   C1126   1.331   .     S
H926   C1126   1.086   .     S
N927   O928    1.301   .     A
O929   N324    1.301   1_556 S
N930   O931    1.301   .     A
N930   O932    1.302   .     A
N933   H935    1.046   .     S
N933   H934    1.046   .     S
N936   H937    1.046   .     S
N936   H938    1.043   .     S
Zn939  O952    1.927   .     S
Zn939  O943    1.963   .     S
Zn939  O951    1.926   .     S
Zn939  O945    1.922   .     S
Zn940  O946    1.935   .     S
Zn940  O954    1.925   .     S
Zn940  O943    1.949   .     S
Zn940  O948    1.928   .     S
Zn941  O947    1.929   .     S
Zn941  O955    1.940   .     S
Zn941  O950    1.939   .     S
Zn941  O943    1.926   .     S
Zn942  O953    1.928   .     S
Zn942  O949    1.943   .     S
Zn942  O944    1.935   .     S
Zn942  O943    1.929   .     S
O944   C956    1.267   .     A
O945   C957    1.282   .     A
O946   C958    1.280   .     A
O947   C959    1.268   .     A
O948   C960    1.275   .     A
O949   C961    1.284   .     A
O950   C960    1.271   .     A
O951   C961    1.285   .     A
O952   C958    1.280   .     A
O953   C959    1.268   .     A
O954   C956    1.274   .     A
O955   C957    1.278   .     A
C956   C988    1.439   .     S
C957   C987    1.464   .     S
C958   C992    1.435   .     S
C959   C990    1.451   .     S
C960   C963    1.453   .     S
C961   C962    1.478   .     S
C962   C965    1.412   .     A
C962   C966    1.415   .     A
C963   C978    1.392   .     A
C963   C979    1.389   .     A
C964   C968    1.397   .     A
C964   C965    1.396   .     A
C964   H984    1.084   .     S
C965   N1000   1.433   .     S
C966   C967    1.419   .     A
C966   N1003   1.439   .     S
C967   C968    1.415   .     A
C967   C969    1.426   .     A
C968   C369    1.393   1_556 S
C969   C973    1.408   .     A
C969   C367    1.422   1_556 S
C970   C976    1.428   .     A
C970   C971    1.414   .     A
C971   C972    1.388   .     A
C971   H985    1.077   .     S
C972   H980    1.084   .     S
C973   H986    1.078   .     S
C973   C974    1.385   .     A
C974   H983    1.081   .     S
C974   C372    1.398   1_556 S
C975   C976    1.427   .     A
C975   C977    1.419   .     A
C976   C979    1.409   .     A
C977   N994    1.438   .     S
C977   C978    1.396   .     A
C978   H982    1.084   .     S
C979   H981    1.078   .     S
C987   C854    1.344   1_655 S
C987   N863    1.446   1_655 S
H989   C854    1.086   1_655 S
C990   H1192   1.088   .     S
C990   C1193   1.331   .     S
H993   C1193   1.086   .     S
N994   O995    1.301   .     A
O996   N391    1.301   1_556 S
N997   O998    1.301   .     A
N997   O999    1.302   .     A
N1000  H1002   1.046   .     S
N1000  H1001   1.046   .     S
N1003  H1004   1.046   .     S
N1003  H1005   1.043   .     S
Zn1006 O1019   1.927   .     S
Zn1006 O1010   1.963   .     S
Zn1006 O1018   1.926   .     S
Zn1006 O1012   1.922   .     S
Zn1007 O1013   1.935   .     S
Zn1007 O1021   1.925   .     S
Zn1007 O1010   1.949   .     S
Zn1007 O1015   1.928   .     S
Zn1008 O1014   1.929   .     S
Zn1008 O1022   1.940   .     S
Zn1008 O1017   1.939   .     S
Zn1008 O1010   1.926   .     S
Zn1009 O1020   1.928   .     S
Zn1009 O1016   1.943   .     S
Zn1009 O1011   1.935   .     S
Zn1009 O1010   1.929   .     S
O1011  C1023   1.267   .     A
O1012  C1024   1.282   .     A
O1013  C1025   1.280   .     A
O1014  C1026   1.268   .     A
O1015  C1027   1.275   .     A
O1016  C1028   1.284   .     A
O1017  C1027   1.271   .     A
O1018  C1028   1.285   .     A
O1019  C1025   1.280   .     A
O1020  C1026   1.268   .     A
O1021  C1023   1.274   .     A
O1022  C1024   1.278   .     A
C1023  C1055   1.439   .     S
C1024  C1054   1.464   .     S
C1025  C1059   1.435   .     S
C1026  C1057   1.451   .     S
C1027  C1030   1.453   .     S
C1028  C1029   1.478   .     S
C1029  C1032   1.412   .     A
C1029  C1033   1.415   .     A
C1030  C1045   1.392   .     A
C1030  C1046   1.389   .     A
C1031  C1035   1.397   .     A
C1031  C1032   1.396   .     A
C1031  H1051   1.084   .     S
C1032  N1067   1.433   .     S
C1033  C1034   1.419   .     A
C1033  N1070   1.439   .     S
C1034  C1035   1.415   .     A
C1034  C1036   1.426   .     A
C1035  C436    1.393   1_556 S
C1036  C1040   1.408   .     A
C1036  C434    1.422   1_556 S
C1037  C1043   1.428   .     A
C1037  C1038   1.414   .     A
C1038  C1039   1.388   .     A
C1038  H1052   1.077   .     S
C1039  H1047   1.084   .     S
C1040  H1053   1.078   .     S
C1040  C1041   1.385   .     A
C1041  H1050   1.081   .     S
C1041  C439    1.398   1_556 S
C1042  C1043   1.427   .     A
C1042  C1044   1.419   .     A
C1043  C1046   1.409   .     A
C1044  N1061   1.438   .     S
C1044  C1045   1.396   .     A
C1045  H1049   1.084   .     S
C1046  H1048   1.078   .     S
C1054  C1122   1.344   .     S
C1054  N1131   1.446   .     S
C1055  C1188   1.344   1_455 S
C1055  H1190   1.086   1_455 S
H1056  C1122   1.086   .     S
C1057  H656    1.088   1_565 S
C1057  C657    1.331   1_565 S
H1060  C657    1.086   1_565 S
N1061  O1062   1.301   .     A
O1063  N458    1.301   1_556 S
N1064  O1065   1.301   .     A
N1064  O1066   1.302   .     A
N1064  C1188   1.446   1_455 S
N1067  H1069   1.046   .     S
N1067  H1068   1.046   .     S
N1070  H1071   1.046   .     S
N1070  H1072   1.043   .     S
Zn1073 O1086   1.927   .     S
Zn1073 O1077   1.963   .     S
Zn1073 O1085   1.926   .     S
Zn1073 O1079   1.922   .     S
Zn1074 O1080   1.935   .     S
Zn1074 O1088   1.925   .     S
Zn1074 O1077   1.949   .     S
Zn1074 O1082   1.928   .     S
Zn1075 O1081   1.929   .     S
Zn1075 O1089   1.940   .     S
Zn1075 O1084   1.939   .     S
Zn1075 O1077   1.926   .     S
Zn1076 O1087   1.928   .     S
Zn1076 O1083   1.943   .     S
Zn1076 O1078   1.935   .     S
Zn1076 O1077   1.929   .     S
O1078  C1090   1.267   .     A
O1079  C1091   1.282   .     A
O1080  C1092   1.280   .     A
O1081  C1093   1.268   .     A
O1082  C1094   1.275   .     A
O1083  C1095   1.284   .     A
O1084  C1094   1.271   .     A
O1085  C1095   1.285   .     A
O1086  C1092   1.280   .     A
O1087  C1093   1.268   .     A
O1088  C1090   1.274   .     A
O1089  C1091   1.278   .     A
C1090  C1122   1.439   .     S
C1091  C1121   1.464   .     S
C1092  C1126   1.435   .     S
C1093  C1124   1.451   .     S
C1094  C1097   1.453   .     S
C1095  C1096   1.478   .     S
C1096  C1099   1.412   .     A
C1096  C1100   1.415   .     A
C1097  C1112   1.392   .     A
C1097  C1113   1.389   .     A
C1098  C1102   1.397   .     A
C1098  C1099   1.396   .     A
C1098  H1118   1.084   .     S
C1099  N1134   1.433   .     S
C1100  C1101   1.419   .     A
C1100  N1137   1.439   .     S
C1101  C1102   1.415   .     A
C1101  C1103   1.426   .     A
C1102  C503    1.393   1_556 S
C1103  C1107   1.408   .     A
C1103  C501    1.422   1_556 S
C1104  C1110   1.428   .     A
C1104  C1105   1.414   .     A
C1105  C1106   1.388   .     A
C1105  H1119   1.077   .     S
C1106  H1114   1.084   .     S
C1107  H1120   1.078   .     S
C1107  C1108   1.385   .     A
C1108  H1117   1.081   .     S
C1108  C506    1.398   1_556 S
C1109  C1110   1.427   .     A
C1109  C1111   1.419   .     A
C1110  C1113   1.409   .     A
C1111  N1128   1.438   .     S
C1111  C1112   1.396   .     A
C1112  H1116   1.084   .     S
C1113  H1115   1.078   .     S
C1121  C1189   1.344   .     S
C1121  N1198   1.446   .     S
H1123  C1189   1.086   .     S
C1124  H723    1.088   1_565 S
C1124  C724    1.331   1_565 S
H1127  C724    1.086   1_565 S
N1128  O1129   1.301   .     A
O1130  N525    1.301   1_556 S
N1131  O1132   1.301   .     A
N1131  O1133   1.302   .     A
N1134  H1136   1.046   .     S
N1134  H1135   1.046   .     S
N1137  H1138   1.046   .     S
N1137  H1139   1.043   .     S
Zn1140 O1153   1.927   .     S
Zn1140 O1144   1.963   .     S
Zn1140 O1152   1.926   .     S
Zn1140 O1146   1.922   .     S
Zn1141 O1147   1.935   .     S
Zn1141 O1155   1.925   .     S
Zn1141 O1144   1.949   .     S
Zn1141 O1149   1.928   .     S
Zn1142 O1148   1.929   .     S
Zn1142 O1156   1.940   .     S
Zn1142 O1151   1.939   .     S
Zn1142 O1144   1.926   .     S
Zn1143 O1154   1.928   .     S
Zn1143 O1150   1.943   .     S
Zn1143 O1145   1.935   .     S
Zn1143 O1144   1.929   .     S
O1145  C1157   1.267   .     A
O1146  C1158   1.282   .     A
O1147  C1159   1.280   .     A
O1148  C1160   1.268   .     A
O1149  C1161   1.275   .     A
O1150  C1162   1.284   .     A
O1151  C1161   1.271   .     A
O1152  C1162   1.285   .     A
O1153  C1159   1.280   .     A
O1154  C1160   1.268   .     A
O1155  C1157   1.274   .     A
O1156  C1158   1.278   .     A
C1157  C1189   1.439   .     S
C1158  C1188   1.464   .     S
C1159  C1193   1.435   .     S
C1160  C1191   1.451   .     S
C1161  C1164   1.453   .     S
C1162  C1163   1.478   .     S
C1163  C1166   1.412   .     A
C1163  C1167   1.415   .     A
C1164  C1179   1.392   .     A
C1164  C1180   1.389   .     A
C1165  C1169   1.397   .     A
C1165  C1166   1.396   .     A
C1165  H1185   1.084   .     S
C1166  N1201   1.433   .     S
C1167  C1168   1.419   .     A
C1167  N1204   1.439   .     S
C1168  C1169   1.415   .     A
C1168  C1170   1.426   .     A
C1169  C570    1.393   1_556 S
C1170  C1174   1.408   .     A
C1170  C568    1.422   1_556 S
C1171  C1177   1.428   .     A
C1171  C1172   1.414   .     A
C1172  C1173   1.388   .     A
C1172  H1186   1.077   .     S
C1173  H1181   1.084   .     S
C1174  H1187   1.078   .     S
C1174  C1175   1.385   .     A
C1175  H1184   1.081   .     S
C1175  C573    1.398   1_556 S
C1176  C1177   1.427   .     A
C1176  C1178   1.419   .     A
C1177  C1180   1.409   .     A
C1178  N1195   1.438   .     S
C1178  C1179   1.396   .     A
C1179  H1183   1.084   .     S
C1180  H1182   1.078   .     S
C1188  C1055   1.344   1_655 S
C1188  N1064   1.446   1_655 S
H1190  C1055   1.086   1_655 S
C1191  H790    1.088   1_565 S
C1191  C791    1.331   1_565 S
H1194  C791    1.086   1_565 S
N1195  O1196   1.301   .     A
O1197  N592    1.301   1_556 S
N1198  O1199   1.301   .     A
N1198  O1200   1.302   .     A
N1201  H1203   1.046   .     S
N1201  H1202   1.046   .     S
N1204  H1205   1.046   .     S
N1204  H1206   1.043   .     S
