data_str_m1_o5_o17_pcu_sym.50
_audit_creation_date              2020-01-03
_audit_creation_method            'Materials Studio'
_symmetry_space_group_name_H-M    'P1'
_symmetry_Int_Tables_number       1
_symmetry_cell_setting            triclinic
loop_
_symmetry_equiv_pos_as_xyz
  x,y,z
_cell_length_a                    31.9003
_cell_length_b                    31.8925
_cell_length_c                    34.6031
_cell_angle_alpha                 90.0001
_cell_angle_beta                  89.9994
_cell_angle_gamma                 90.0588
loop_
_atom_site_label
_atom_site_type_symbol
_atom_site_fract_x
_atom_site_fract_y
_atom_site_fract_z
_atom_site_U_iso_or_equiv
_atom_site_adp_type
_atom_site_occupancy
C1     C     0.25000   0.00000   0.35589   0.00000  Uiso   1.00
C2     C     0.32999   0.41996   0.75004   0.00000  Uiso   1.00
C3     C     0.42577   0.26312   0.02021   0.00000  Uiso   1.00
C4     C     0.26686   0.07471   0.98099   0.00000  Uiso   1.00
C5     C     0.24573   0.42469   0.01964   0.00000  Uiso   1.00
C6     C     0.42677   0.27346   0.98074   0.00000  Uiso   1.00
C7     C     0.07423   0.23688   0.02021   0.00000  Uiso   1.00
C8     C     0.42649   0.27995   0.40005   0.00000  Uiso   1.00
C9     C     0.42280   0.31321   0.37349   0.00000  Uiso   1.00
C10    C     0.38408   0.32219   0.35648   0.00000  Uiso   1.00
C11    C     0.34891   0.29795   0.36551   0.00000  Uiso   1.00
C12    C     0.35235   0.26472   0.39165   0.00000  Uiso   1.00
C13    C     0.41996   0.17002   0.24996   0.00000  Uiso   1.00
C14    C     0.39094   0.25577   0.40894   0.00000  Uiso   1.00
C15    C     0.05667   0.19635   0.60423   0.00000  Uiso   1.00
C16    C     0.09909   0.20814   0.60500   0.00000  Uiso   1.00
C17    C     0.12795   0.18470   0.62640   0.00000  Uiso   1.00
C18    C     0.11461   0.14958   0.64723   0.00000  Uiso   1.00
C19    C     0.07227   0.13820   0.64725   0.00000  Uiso   1.00
C20    C     0.04325   0.16167   0.62609   0.00000  Uiso   1.00
C21    C     0.19810   0.44164   0.39671   0.00000  Uiso   1.00
C22    C     0.16471   0.45275   0.37222   0.00000  Uiso   1.00
C23    C     0.14329   0.42184   0.35143   0.00000  Uiso   1.00
C24    C     0.08003   0.32999   0.75004   0.00000  Uiso   1.00
C25    C     0.15540   0.37984   0.35447   0.00000  Uiso   1.00
C26    C     0.18909   0.36870   0.37816   0.00000  Uiso   1.00
C27    C     0.21049   0.39947   0.39918   0.00000  Uiso   1.00
C28    C     0.31906   0.03395   0.60665   0.00000  Uiso   1.00
C29    C     0.31976   0.07376   0.62415   0.00000  Uiso   1.00
C30    C     0.35295   0.08514   0.64837   0.00000  Uiso   1.00
C31    C     0.38498   0.05652   0.65621   0.00000  Uiso   1.00
C32    C     0.38374   0.01639   0.64002   0.00000  Uiso   1.00
C33    C     0.35074   0.00501   0.61557   0.00000  Uiso   1.00
C34    C     0.07350   0.22004   0.40005   0.00000  Uiso   1.00
C35    C     0.33004   0.42001   0.25005   0.00000  Uiso   1.00
C36    C     0.07718   0.18677   0.37348   0.00000  Uiso   1.00
C37    C     0.11590   0.17779   0.35647   0.00000  Uiso   1.00
C38    C     0.15108   0.20202   0.36551   0.00000  Uiso   1.00
C39    C     0.14764   0.23525   0.39164   0.00000  Uiso   1.00
C40    C     0.10906   0.24421   0.40893   0.00000  Uiso   1.00
C41    C     0.44334   0.30366   0.60423   0.00000  Uiso   1.00
C42    C     0.40092   0.29187   0.60501   0.00000  Uiso   1.00
C43    C     0.37207   0.31532   0.62641   0.00000  Uiso   1.00
C44    C     0.38542   0.35045   0.64723   0.00000  Uiso   1.00
C45    C     0.42776   0.36182   0.64724   0.00000  Uiso   1.00
C46    C     0.17001   0.08004   0.75004   0.00000  Uiso   1.00
C47    C     0.45677   0.33834   0.62608   0.00000  Uiso   1.00
C48    C     0.30189   0.05838   0.39671   0.00000  Uiso   1.00
C49    C     0.33527   0.04728   0.37221   0.00000  Uiso   1.00
C50    C     0.35667   0.07821   0.35142   0.00000  Uiso   1.00
C51    C     0.34456   0.12020   0.35448   0.00000  Uiso   1.00
C52    C     0.31087   0.13133   0.37818   0.00000  Uiso   1.00
C53    C     0.28948   0.10055   0.39919   0.00000  Uiso   1.00
C54    C     0.18094   0.46604   0.60665   0.00000  Uiso   1.00
C55    C     0.18025   0.42623   0.62414   0.00000  Uiso   1.00
C56    C     0.14706   0.41486   0.64836   0.00000  Uiso   1.00
C57    C     0.08004   0.32998   0.24996   0.00000  Uiso   1.00
C58    C     0.11502   0.44348   0.65621   0.00000  Uiso   1.00
C59    C     0.11626   0.48361   0.64001   0.00000  Uiso   1.00
C60    C     0.14927   0.49498   0.61557   0.00000  Uiso   1.00
C61    C     0.27596   0.07328   0.89482   0.00000  Uiso   1.00
C62    C     0.31804   0.07860   0.88388   0.00000  Uiso   1.00
C63    C     0.32974   0.11244   0.86053   0.00000  Uiso   1.00
C64    C     0.29943   0.14065   0.84739   0.00000  Uiso   1.00
C65    C     0.25736   0.13496   0.85741   0.00000  Uiso   1.00
C66    C     0.24558   0.10118   0.88076   0.00000  Uiso   1.00
C67    C     0.23666   0.42424   0.10566   0.00000  Uiso   1.00
C68    C     0.41997   0.17001   0.75004   0.00000  Uiso   1.00
C69    C     0.26906   0.40534   0.12704   0.00000  Uiso   1.00
C70    C     0.25972   0.37594   0.15574   0.00000  Uiso   1.00
C71    C     0.21803   0.36628   0.16427   0.00000  Uiso   1.00
C72    C     0.18565   0.38560   0.14376   0.00000  Uiso   1.00
C73    C     0.19486   0.41395   0.11409   0.00000  Uiso   1.00
C74    C     0.42773   0.27714   0.89412   0.00000  Uiso   1.00
C75    C     0.42424   0.31857   0.88064   0.00000  Uiso   1.00
C76    C     0.39174   0.32964   0.85552   0.00000  Uiso   1.00
C77    C     0.36295   0.29936   0.84328   0.00000  Uiso   1.00
C78    C     0.36686   0.25788   0.85583   0.00000  Uiso   1.00
C79    C     0.17005   0.41994   0.75008   0.00000  Uiso   1.00
C80    C     0.39942   0.24663   0.88081   0.00000  Uiso   1.00
C81    C     0.06766   0.21138   0.10300   0.00000  Uiso   1.00
C82    C     0.09339   0.23205   0.12999   0.00000  Uiso   1.00
C83    C     0.11897   0.20899   0.15497   0.00000  Uiso   1.00
C84    C     0.11859   0.16520   0.15357   0.00000  Uiso   1.00
C85    C     0.09256   0.14442   0.12735   0.00000  Uiso   1.00
C86    C     0.06741   0.16740   0.10191   0.00000  Uiso   1.00
C87    C     0.22404   0.42672   0.89482   0.00000  Uiso   1.00
C88    C     0.18196   0.42140   0.88388   0.00000  Uiso   1.00
C89    C     0.17027   0.38756   0.86053   0.00000  Uiso   1.00
C90    C     0.32996   0.08005   0.24994   0.00000  Uiso   1.00
C91    C     0.20057   0.35935   0.84739   0.00000  Uiso   1.00
C92    C     0.24264   0.36504   0.85741   0.00000  Uiso   1.00
C93    C     0.25442   0.39882   0.88077   0.00000  Uiso   1.00
C94    C     0.26334   0.07576   0.10566   0.00000  Uiso   1.00
C95    C     0.23094   0.09466   0.12704   0.00000  Uiso   1.00
C96    C     0.24028   0.12406   0.15574   0.00000  Uiso   1.00
C97    C     0.28196   0.13372   0.16427   0.00000  Uiso   1.00
C98    C     0.31435   0.11440   0.14376   0.00000  Uiso   1.00
C99    C     0.30514   0.08605   0.11409   0.00000  Uiso   1.00
C100   C     0.07227   0.22286   0.89412   0.00000  Uiso   1.00
C101   C     0.41996   0.32998   0.75005   0.00000  Uiso   1.00
C102   C     0.07576   0.18143   0.88064   0.00000  Uiso   1.00
C103   C     0.10826   0.17036   0.85552   0.00000  Uiso   1.00
C104   C     0.13705   0.20064   0.84328   0.00000  Uiso   1.00
C105   C     0.13314   0.24212   0.85583   0.00000  Uiso   1.00
C106   C     0.10058   0.25337   0.88081   0.00000  Uiso   1.00
C107   C     0.43234   0.28862   0.10300   0.00000  Uiso   1.00
C108   C     0.40661   0.26795   0.12999   0.00000  Uiso   1.00
C109   C     0.38103   0.29101   0.15497   0.00000  Uiso   1.00
C110   C     0.38141   0.33480   0.15357   0.00000  Uiso   1.00
C111   C     0.40744   0.35558   0.12735   0.00000  Uiso   1.00
C112   C     0.25000   0.00000   0.64443   0.00000  Uiso   1.00
C113   C     0.07993   0.16991   0.25012   0.00000  Uiso   1.00
C114   C     0.43259   0.33260   0.10191   0.00000  Uiso   1.00
C115   C     0.06930   0.15599   0.45780   0.00000  Uiso   1.00
C116   C     0.04400   0.12564   0.43995   0.00000  Uiso   1.00
C117   C     0.06233   0.09228   0.41994   0.00000  Uiso   1.00
C118   C     0.10596   0.08870   0.41814   0.00000  Uiso   1.00
C119   C     0.13136   0.11822   0.43669   0.00000  Uiso   1.00
C120   C     0.11315   0.15188   0.45639   0.00000  Uiso   1.00
C121   C     0.44451   0.35384   0.53681   0.00000  Uiso   1.00
C122   C     0.40279   0.36582   0.54370   0.00000  Uiso   1.00
C123   C     0.39359   0.40655   0.55587   0.00000  Uiso   1.00
C124   C     0.32995   0.08006   0.75008   0.00000  Uiso   1.00
C125   C     0.42590   0.43565   0.56101   0.00000  Uiso   1.00
C126   C     0.46739   0.42411   0.55384   0.00000  Uiso   1.00
C127   C     0.47669   0.38338   0.54162   0.00000  Uiso   1.00
C128   C     0.35573   0.05171   0.46138   0.00000  Uiso   1.00
C129   C     0.38325   0.01891   0.45219   0.00000  Uiso   1.00
C130   C     0.42237   0.02756   0.43583   0.00000  Uiso   1.00
C131   C     0.43440   0.06899   0.42884   0.00000  Uiso   1.00
C132   C     0.40770   0.10195   0.43885   0.00000  Uiso   1.00
C133   C     0.36855   0.09344   0.45523   0.00000  Uiso   1.00
C134   C     0.15845   0.42362   0.53849   0.00000  Uiso   1.00
C135   C     0.17004   0.41995   0.24994   0.00000  Uiso   1.00
C136   C     0.17173   0.38198   0.54349   0.00000  Uiso   1.00
C137   C     0.14414   0.35193   0.55841   0.00000  Uiso   1.00
C138   C     0.10326   0.36329   0.56847   0.00000  Uiso   1.00
C139   C     0.08979   0.40457   0.56319   0.00000  Uiso   1.00
C140   C     0.11687   0.43445   0.54742   0.00000  Uiso   1.00
C141   C     0.43069   0.34400   0.45780   0.00000  Uiso   1.00
C142   C     0.45598   0.37435   0.43995   0.00000  Uiso   1.00
C143   C     0.43764   0.40771   0.41994   0.00000  Uiso   1.00
C144   C     0.39401   0.41128   0.41814   0.00000  Uiso   1.00
C145   C     0.36862   0.38176   0.43670   0.00000  Uiso   1.00
C146   C     0.08004   0.17002   0.75005   0.00000  Uiso   1.00
C147   C     0.38684   0.34810   0.45640   0.00000  Uiso   1.00
C148   C     0.05550   0.14616   0.53681   0.00000  Uiso   1.00
C149   C     0.09723   0.13419   0.54369   0.00000  Uiso   1.00
C150   C     0.10644   0.09346   0.55586   0.00000  Uiso   1.00
C151   C     0.07414   0.06435   0.56099   0.00000  Uiso   1.00
C152   C     0.03265   0.07588   0.55383   0.00000  Uiso   1.00
C153   C     0.02333   0.11661   0.54163   0.00000  Uiso   1.00
C154   C     0.14427   0.44830   0.46139   0.00000  Uiso   1.00
C155   C     0.11674   0.48111   0.45224   0.00000  Uiso   1.00
C156   C     0.07761   0.47247   0.43590   0.00000  Uiso   1.00
C157   C     0.42007   0.33009   0.25012   0.00000  Uiso   1.00
C158   C     0.06557   0.43105   0.42891   0.00000  Uiso   1.00
C159   C     0.09227   0.39808   0.43888   0.00000  Uiso   1.00
C160   C     0.13144   0.40658   0.45524   0.00000  Uiso   1.00
C161   C     0.34158   0.07635   0.53849   0.00000  Uiso   1.00
C162   C     0.32832   0.11800   0.54350   0.00000  Uiso   1.00
C163   C     0.35592   0.14803   0.55843   0.00000  Uiso   1.00
C164   C     0.39680   0.13666   0.56848   0.00000  Uiso   1.00
C165   C     0.41025   0.09537   0.56319   0.00000  Uiso   1.00
C166   C     0.38315   0.06551   0.54741   0.00000  Uiso   1.00
C167   C     0.20493   0.39071   0.96912   0.00000  Uiso   1.00
C168   C     0.13842   0.38824   0.24987   0.00000  Uiso   1.00
C169   C     0.16138   0.39703   0.97062   0.00000  Uiso   1.00
C170   C     0.13387   0.36375   0.96372   0.00000  Uiso   1.00
C171   C     0.14961   0.32388   0.95565   0.00000  Uiso   1.00
C172   C     0.19287   0.31723   0.95422   0.00000  Uiso   1.00
C173   C     0.22045   0.35046   0.96119   0.00000  Uiso   1.00
C174   C     0.22696   0.10950   0.03245   0.00000  Uiso   1.00
C175   C     0.18357   0.10272   0.03445   0.00000  Uiso   1.00
C176   C     0.15802   0.13176   0.05296   0.00000  Uiso   1.00
C177   C     0.17602   0.16654   0.07094   0.00000  Uiso   1.00
C178   C     0.21901   0.17383   0.06812   0.00000  Uiso   1.00
C179   C     0.36159   0.11175   0.75015   0.00000  Uiso   1.00
C180   C     0.24418   0.14602   0.04751   0.00000  Uiso   1.00
C181   C     0.09962   0.19047   0.96921   0.00000  Uiso   1.00
C182   C     0.08460   0.14971   0.97606   0.00000  Uiso   1.00
C183   C     0.10793   0.11489   0.96444   0.00000  Uiso   1.00
C184   C     0.14630   0.12047   0.94575   0.00000  Uiso   1.00
C185   C     0.16143   0.16090   0.93871   0.00000  Uiso   1.00
C186   C     0.13858   0.19581   0.95094   0.00000  Uiso   1.00
C187   C     0.39079   0.23708   0.03566   0.00000  Uiso   1.00
C188   C     0.40010   0.19961   0.05574   0.00000  Uiso   1.00
C189   C     0.36967   0.17991   0.07807   0.00000  Uiso   1.00
C190   C     0.11151   0.13816   0.25031   0.00000  Uiso   1.00
C191   C     0.32934   0.19631   0.07927   0.00000  Uiso   1.00
C192   C     0.31827   0.22901   0.05461   0.00000  Uiso   1.00
C193   C     0.34888   0.24958   0.03299   0.00000  Uiso   1.00
C194   C     0.29507   0.10929   0.96912   0.00000  Uiso   1.00
C195   C     0.33862   0.10297   0.97062   0.00000  Uiso   1.00
C196   C     0.36613   0.13626   0.96372   0.00000  Uiso   1.00
C197   C     0.35039   0.17612   0.95565   0.00000  Uiso   1.00
C198   C     0.30713   0.18277   0.95422   0.00000  Uiso   1.00
C199   C     0.27955   0.14954   0.96119   0.00000  Uiso   1.00
C200   C     0.27304   0.39049   0.03244   0.00000  Uiso   1.00
C201   C     0.38826   0.36161   0.75013   0.00000  Uiso   1.00
C202   C     0.31643   0.39728   0.03445   0.00000  Uiso   1.00
C203   C     0.34198   0.36824   0.05296   0.00000  Uiso   1.00
C204   C     0.32398   0.33346   0.07095   0.00000  Uiso   1.00
C205   C     0.28099   0.32617   0.06812   0.00000  Uiso   1.00
C206   C     0.25582   0.35398   0.04751   0.00000  Uiso   1.00
C207   C     0.40038   0.30953   0.96921   0.00000  Uiso   1.00
C208   C     0.41540   0.35029   0.97606   0.00000  Uiso   1.00
C209   C     0.39207   0.38511   0.96444   0.00000  Uiso   1.00
C210   C     0.35370   0.37953   0.94575   0.00000  Uiso   1.00
C211   C     0.33857   0.33910   0.93871   0.00000  Uiso   1.00
C212   C     0.36158   0.11176   0.24987   0.00000  Uiso   1.00
C213   C     0.36142   0.30419   0.95094   0.00000  Uiso   1.00
C214   C     0.10921   0.26292   0.03566   0.00000  Uiso   1.00
C215   C     0.09990   0.30039   0.05574   0.00000  Uiso   1.00
C216   C     0.13033   0.32009   0.07807   0.00000  Uiso   1.00
C217   C     0.17066   0.30369   0.07927   0.00000  Uiso   1.00
C218   C     0.18173   0.27099   0.05460   0.00000  Uiso   1.00
C219   C     0.15112   0.25042   0.03299   0.00000  Uiso   1.00
C220   C    -0.00000   0.25000   0.35597   0.00000  Uiso   1.00
C221   C     0.13841   0.38825   0.75015   0.00000  Uiso   1.00
C222   C     0.38849   0.36184   0.25031   0.00000  Uiso   1.00
C223   C     0.11174   0.13839   0.75013   0.00000  Uiso   1.00
C224   C     0.13838   0.11175   0.75012   0.00000  Uiso   1.00
C225   C     0.36181   0.38845   0.25026   0.00000  Uiso   1.00
C226   C     0.11175   0.36161   0.75011   0.00000  Uiso   1.00
C227   C     0.38824   0.13840   0.24988   0.00000  Uiso   1.00
C228   C     0.36162   0.38825   0.75012   0.00000  Uiso   1.00
C229   C     0.13819   0.11155   0.25026   0.00000  Uiso   1.00
C230   C     0.38825   0.13839   0.75011   0.00000  Uiso   1.00
C231   C     0.00000   0.25000   0.64420   0.00000  Uiso   1.00
C232   C     0.11176   0.36160   0.24988   0.00000  Uiso   1.00
C233   C     0.46722   0.26991   0.41911   0.00000  Uiso   1.00
C234   C     0.02604   0.22168   0.58178   0.00000  Uiso   1.00
C235   C     0.22162   0.47424   0.41861   0.00000  Uiso   1.00
C236   C     0.28260   0.02036   0.58275   0.00000  Uiso   1.00
C237   C     0.03278   0.23008   0.41910   0.00000  Uiso   1.00
C238   C     0.47396   0.27832   0.58178   0.00000  Uiso   1.00
C239   C     0.27837   0.02577   0.41861   0.00000  Uiso   1.00
C240   C     0.21741   0.47964   0.58275   0.00000  Uiso   1.00
C241   C     0.26330   0.03623   0.91816   0.00000  Uiso   1.00
C242   C     0.00000   0.25000   0.85573   0.00000  Uiso   1.00
C243   C     0.24575   0.46206   0.08198   0.00000  Uiso   1.00
C244   C     0.46438   0.26459   0.91792   0.00000  Uiso   1.00
C245   C     0.03485   0.23459   0.08133   0.00000  Uiso   1.00
C246   C     0.23670   0.46377   0.91816   0.00000  Uiso   1.00
C247   C     0.25426   0.03794   0.08198   0.00000  Uiso   1.00
C248   C     0.03562   0.23541   0.91792   0.00000  Uiso   1.00
C249   C     0.46515   0.26541   0.08133   0.00000  Uiso   1.00
C250   C    -0.00000   0.25000   0.39852   0.00000  Uiso   1.00
C251   C     0.00000   0.25000   0.60177   0.00000  Uiso   1.00
C252   C     0.25000   0.00000   0.39845   0.00000  Uiso   1.00
C253   C     0.00000   0.25000   0.14413   0.00000  Uiso   1.00
C254   C     0.25000  -0.00000   0.60230   0.00000  Uiso   1.00
C255   C     0.25000   0.00000   0.89826   0.00000  Uiso   1.00
C256   C     0.25000   0.00000   0.10187   0.00000  Uiso   1.00
C257   C     0.00000   0.25000   0.89814   0.00000  Uiso   1.00
C258   C    -0.00000   0.25000   0.10161   0.00000  Uiso   1.00
C259   C     0.02812   0.22381   0.45933   0.00000  Uiso   1.00
C260   C     0.47577   0.28041   0.54090   0.00000  Uiso   1.00
C261   C     0.28156   0.02240   0.45944   0.00000  Uiso   1.00
C262   C     0.21813   0.47735   0.54172   0.00000  Uiso   1.00
C263   C     0.47188   0.27618   0.45933   0.00000  Uiso   1.00
C264   C     0.25000   0.00000   0.85580   0.00000  Uiso   1.00
C265   C     0.02423   0.21958   0.54090   0.00000  Uiso   1.00
C266   C     0.21844   0.47760   0.45944   0.00000  Uiso   1.00
C267   C     0.28189   0.02264   0.54172   0.00000  Uiso   1.00
C268   C     0.23891   0.46269   0.95914   0.00000  Uiso   1.00
C269   C     0.25332   0.03805   0.04093   0.00000  Uiso   1.00
C270   C     0.03660   0.23664   0.95895   0.00000  Uiso   1.00
C271   C     0.46374   0.26128   0.04053   0.00000  Uiso   1.00
C272   C     0.26109   0.03731   0.95914   0.00000  Uiso   1.00
C273   C     0.24668   0.46195   0.04093   0.00000  Uiso   1.00
C274   C     0.46340   0.26336   0.95895   0.00000  Uiso   1.00
C275   C     0.25000   0.00000   0.14429   0.00000  Uiso   1.00
C276   C     0.03626   0.23872   0.04053   0.00000  Uiso   1.00
C277   C    -0.00000   0.25000   0.47982   0.00000  Uiso   1.00
C278   C    -0.00000   0.25000   0.52063   0.00000  Uiso   1.00
C279   C     0.25000  -0.00000   0.48007   0.00000  Uiso   1.00
C280   C     0.25000  -0.00000   0.52121   0.00000  Uiso   1.00
C281   C     0.25000   0.00000   0.97935   0.00000  Uiso   1.00
C282   C     0.25000   0.00000   0.02047   0.00000  Uiso   1.00
C283   C     0.00000   0.25000   0.97911   0.00000  Uiso   1.00
C284   C     0.00000   0.25000   0.02004   0.00000  Uiso   1.00
C285   C     0.04948   0.19133   0.47920   0.00000  Uiso   1.00
C286   C     0.16996   0.07999   0.25005   0.00000  Uiso   1.00
C287   C     0.45466   0.31229   0.51954   0.00000  Uiso   1.00
C288   C     0.31483   0.04167   0.48014   0.00000  Uiso   1.00
C289   C     0.18724   0.45468   0.52046   0.00000  Uiso   1.00
C290   C     0.45052   0.30866   0.47920   0.00000  Uiso   1.00
C291   C     0.04534   0.18770   0.51954   0.00000  Uiso   1.00
C292   C     0.18518   0.45833   0.48014   0.00000  Uiso   1.00
C293   C     0.31277   0.04531   0.52046   0.00000  Uiso   1.00
C294   C     0.23315   0.42529   0.98099   0.00000  Uiso   1.00
C295   C     0.25427   0.07531   0.01964   0.00000  Uiso   1.00
C296   C     0.07323   0.22654   0.98074   0.00000  Uiso   1.00
H297   H     0.44988   0.33210   0.36615   0.00000  Uiso   1.00
H298   H     0.01051   0.15261   0.62622   0.00000  Uiso   1.00
H299   H     0.10585   0.46613   0.54274   0.00000  Uiso   1.00
H300   H     0.48976   0.37167   0.44122   0.00000  Uiso   1.00
H301   H     0.45724   0.43056   0.40553   0.00000  Uiso   1.00
H302   H     0.37987   0.43689   0.40231   0.00000  Uiso   1.00
H303   H     0.33485   0.38464   0.43538   0.00000  Uiso   1.00
H304   H     0.36692   0.32499   0.47014   0.00000  Uiso   1.00
H305   H     0.12254   0.15631   0.53934   0.00000  Uiso   1.00
H306   H     0.13866   0.08447   0.56092   0.00000  Uiso   1.00
H307   H     0.08118   0.03275   0.57016   0.00000  Uiso   1.00
H308   H     0.00785   0.05300   0.55720   0.00000  Uiso   1.00
H309   H     0.15514   0.48520   0.36963   0.00000  Uiso   1.00
H310   H     0.49131   0.12503   0.53491   0.00000  Uiso   1.00
H311   H     0.12561   0.01324   0.45809   0.00000  Uiso   1.00
H312   H     0.05655   0.49783   0.42871   0.00000  Uiso   1.00
H313   H     0.03554   0.42458   0.41573   0.00000  Uiso   1.00
H314   H     0.08275   0.36598   0.43371   0.00000  Uiso   1.00
H315   H     0.15194   0.38080   0.46270   0.00000  Uiso   1.00
H316   H     0.29672   0.12711   0.53575   0.00000  Uiso   1.00
H317   H     0.34557   0.18005   0.56238   0.00000  Uiso   1.00
H318   H     0.41801   0.15978   0.58046   0.00000  Uiso   1.00
H319   H     0.44152   0.08634   0.57167   0.00000  Uiso   1.00
H320   H     0.11732   0.43043   0.33295   0.00000  Uiso   1.00
H321   H     0.39416   0.03383   0.54273   0.00000  Uiso   1.00
H322   H     0.14882   0.42763   0.97770   0.00000  Uiso   1.00
H323   H     0.10035   0.36872   0.96516   0.00000  Uiso   1.00
H324   H     0.12820   0.29809   0.95119   0.00000  Uiso   1.00
H325   H     0.20505   0.28619   0.94847   0.00000  Uiso   1.00
H326   H     0.25372   0.34465   0.96163   0.00000  Uiso   1.00
H327   H     0.16985   0.07440   0.02262   0.00000  Uiso   1.00
H328   H     0.12460   0.12655   0.05415   0.00000  Uiso   1.00
H329   H     0.15669   0.18849   0.08635   0.00000  Uiso   1.00
H330   H     0.23279   0.20023   0.08290   0.00000  Uiso   1.00
H331   H     0.13875   0.35595   0.33840   0.00000  Uiso   1.00
H332   H     0.27740   0.15062   0.04519   0.00000  Uiso   1.00
H333   H     0.05471   0.14498   0.99026   0.00000  Uiso   1.00
H334   H     0.09625   0.08358   0.96990   0.00000  Uiso   1.00
H335   H     0.16419   0.09336   0.93686   0.00000  Uiso   1.00
H336   H     0.19035   0.16534   0.92301   0.00000  Uiso   1.00
H337   H     0.15068   0.22686   0.94524   0.00000  Uiso   1.00
H338   H     0.43162   0.18704   0.05623   0.00000  Uiso   1.00
H339   H     0.37787   0.15284   0.09524   0.00000  Uiso   1.00
H340   H     0.30615   0.18270   0.09815   0.00000  Uiso   1.00
H341   H     0.28616   0.23924   0.05300   0.00000  Uiso   1.00
H342   H     0.19853   0.33620   0.38035   0.00000  Uiso   1.00
H343   H     0.33985   0.27673   0.01667   0.00000  Uiso   1.00
H344   H     0.35118   0.07237   0.97770   0.00000  Uiso   1.00
H345   H     0.39965   0.13129   0.96516   0.00000  Uiso   1.00
H346   H     0.37180   0.20192   0.95119   0.00000  Uiso   1.00
H347   H     0.29495   0.21381   0.94847   0.00000  Uiso   1.00
H348   H     0.24628   0.15534   0.96163   0.00000  Uiso   1.00
H349   H     0.33015   0.42560   0.02262   0.00000  Uiso   1.00
H350   H     0.37540   0.37345   0.05415   0.00000  Uiso   1.00
H351   H     0.34330   0.31151   0.08636   0.00000  Uiso   1.00
H352   H     0.26721   0.29977   0.08290   0.00000  Uiso   1.00
H353   H     0.23654   0.39052   0.41747   0.00000  Uiso   1.00
H354   H     0.22260   0.34938   0.04519   0.00000  Uiso   1.00
H355   H     0.44530   0.35502   0.99027   0.00000  Uiso   1.00
H356   H     0.40376   0.41642   0.96990   0.00000  Uiso   1.00
H357   H     0.33582   0.40664   0.93686   0.00000  Uiso   1.00
H358   H     0.30965   0.33466   0.92301   0.00000  Uiso   1.00
H359   H     0.34932   0.27314   0.94525   0.00000  Uiso   1.00
H360   H     0.06838   0.31296   0.05623   0.00000  Uiso   1.00
H361   H     0.12213   0.34716   0.09524   0.00000  Uiso   1.00
H362   H     0.19385   0.31730   0.09815   0.00000  Uiso   1.00
H363   H     0.21384   0.26076   0.05300   0.00000  Uiso   1.00
H364   H     0.29469   0.09589   0.61882   0.00000  Uiso   1.00
H365   H     0.16016   0.22327   0.01667   0.00000  Uiso   1.00
H366   H     0.35372   0.11608   0.66118   0.00000  Uiso   1.00
H367   H     0.41057   0.06534   0.67509   0.00000  Uiso   1.00
H368   H     0.40824   0.49402   0.64654   0.00000  Uiso   1.00
H369   H     0.38131   0.34808   0.33645   0.00000  Uiso   1.00
H370   H     0.34952   0.47362   0.60386   0.00000  Uiso   1.00
H371   H     0.05010   0.16789   0.36614   0.00000  Uiso   1.00
H372   H     0.11867   0.15190   0.33644   0.00000  Uiso   1.00
H373   H     0.18101   0.19498   0.35231   0.00000  Uiso   1.00
H374   H     0.17491   0.25399   0.39861   0.00000  Uiso   1.00
H375   H     0.10684   0.26997   0.42924   0.00000  Uiso   1.00
H376   H     0.39027   0.26480   0.58885   0.00000  Uiso   1.00
H377   H     0.33933   0.30642   0.62666   0.00000  Uiso   1.00
H378   H     0.36296   0.36877   0.66346   0.00000  Uiso   1.00
H379   H     0.43806   0.38885   0.66361   0.00000  Uiso   1.00
H380   H     0.31897   0.30498   0.35232   0.00000  Uiso   1.00
H381   H     0.48951   0.34739   0.62621   0.00000  Uiso   1.00
H382   H     0.34485   0.01483   0.36961   0.00000  Uiso   1.00
H383   H     0.38265   0.06963   0.33294   0.00000  Uiso   1.00
H384   H     0.36120   0.14410   0.33841   0.00000  Uiso   1.00
H385   H     0.30143   0.16382   0.38038   0.00000  Uiso   1.00
H386   H     0.26344   0.10949   0.41750   0.00000  Uiso   1.00
H387   H     0.20531   0.40410   0.61882   0.00000  Uiso   1.00
H388   H     0.14628   0.38391   0.66117   0.00000  Uiso   1.00
H389   H     0.08943   0.43466   0.67509   0.00000  Uiso   1.00
H390   H     0.09177   0.00597   0.64653   0.00000  Uiso   1.00
H391   H     0.32508   0.24598   0.39862   0.00000  Uiso   1.00
H392   H     0.15049   0.02638   0.60386   0.00000  Uiso   1.00
H393   H     0.34167   0.05663   0.89358   0.00000  Uiso   1.00
H394   H     0.36224   0.11665   0.85244   0.00000  Uiso   1.00
H395   H     0.30847   0.16663   0.82908   0.00000  Uiso   1.00
H396   H     0.23383   0.15651   0.84682   0.00000  Uiso   1.00
H397   H     0.21285   0.09644   0.88744   0.00000  Uiso   1.00
H398   H     0.30138   0.41429   0.12214   0.00000  Uiso   1.00
H399   H     0.28472   0.36146   0.17207   0.00000  Uiso   1.00
H400   H     0.21078   0.34419   0.18706   0.00000  Uiso   1.00
H401   H     0.15339   0.37882   0.15114   0.00000  Uiso   1.00
H402   H     0.39317   0.23001   0.42925   0.00000  Uiso   1.00
H403   H     0.16947   0.42959   0.09915   0.00000  Uiso   1.00
H404   H     0.44670   0.34213   0.88959   0.00000  Uiso   1.00
H405   H     0.38892   0.36165   0.84548   0.00000  Uiso   1.00
H406   H     0.33786   0.30796   0.82380   0.00000  Uiso   1.00
H407   H     0.34490   0.23436   0.84591   0.00000  Uiso   1.00
H408   H     0.40295   0.21419   0.88937   0.00000  Uiso   1.00
H409   H     0.09250   0.26583   0.13262   0.00000  Uiso   1.00
H410   H     0.13872   0.22503   0.17567   0.00000  Uiso   1.00
H411   H     0.13853   0.14734   0.17266   0.00000  Uiso   1.00
H412   H     0.09209   0.11050   0.12653   0.00000  Uiso   1.00
H413   H     0.10973   0.23522   0.58883   0.00000  Uiso   1.00
H414   H     0.04676   0.15093   0.08222   0.00000  Uiso   1.00
H415   H     0.15833   0.44337   0.89357   0.00000  Uiso   1.00
H416   H     0.13776   0.38335   0.85244   0.00000  Uiso   1.00
H417   H     0.19153   0.33337   0.82908   0.00000  Uiso   1.00
H418   H     0.26617   0.34349   0.84682   0.00000  Uiso   1.00
H419   H     0.28715   0.40356   0.88744   0.00000  Uiso   1.00
H420   H     0.19862   0.08571   0.12214   0.00000  Uiso   1.00
H421   H     0.21527   0.13854   0.17207   0.00000  Uiso   1.00
H422   H     0.28921   0.15581   0.18706   0.00000  Uiso   1.00
H423   H     0.34661   0.12118   0.15114   0.00000  Uiso   1.00
H424   H     0.16069   0.19361   0.62664   0.00000  Uiso   1.00
H425   H     0.33053   0.07041   0.09915   0.00000  Uiso   1.00
H426   H     0.05330   0.15787   0.88959   0.00000  Uiso   1.00
H427   H     0.11108   0.13835   0.84548   0.00000  Uiso   1.00
H428   H     0.16214   0.19204   0.82379   0.00000  Uiso   1.00
H429   H     0.15510   0.26564   0.84590   0.00000  Uiso   1.00
H430   H     0.09705   0.28582   0.88937   0.00000  Uiso   1.00
H431   H     0.40750   0.23417   0.13263   0.00000  Uiso   1.00
H432   H     0.36128   0.27497   0.17567   0.00000  Uiso   1.00
H433   H     0.36146   0.35266   0.17266   0.00000  Uiso   1.00
H434   H     0.40790   0.38949   0.12653   0.00000  Uiso   1.00
H435   H     0.13707   0.13126   0.66345   0.00000  Uiso   1.00
H436   H     0.45324   0.34907   0.08222   0.00000  Uiso   1.00
H437   H     0.01022   0.12832   0.44123   0.00000  Uiso   1.00
H438   H     0.04273   0.06943   0.40553   0.00000  Uiso   1.00
H439   H     0.12010   0.06309   0.40230   0.00000  Uiso   1.00
H440   H     0.16513   0.11534   0.43536   0.00000  Uiso   1.00
H441   H     0.13307   0.17499   0.47013   0.00000  Uiso   1.00
H442   H     0.37746   0.34371   0.53935   0.00000  Uiso   1.00
H443   H     0.36137   0.41555   0.56094   0.00000  Uiso   1.00
H444   H     0.41887   0.46725   0.57019   0.00000  Uiso   1.00
H445   H     0.49219   0.44698   0.55720   0.00000  Uiso   1.00
H446   H     0.06198   0.11117   0.66362   0.00000  Uiso   1.00
H447   H     0.00871   0.37495   0.53490   0.00000  Uiso   1.00
H448   H     0.37439   0.48678   0.45803   0.00000  Uiso   1.00
H449   H     0.44342   0.00221   0.42861   0.00000  Uiso   1.00
H450   H     0.46441   0.07547   0.41565   0.00000  Uiso   1.00
H451   H     0.41722   0.13406   0.43369   0.00000  Uiso   1.00
H452   H     0.34805   0.11921   0.46271   0.00000  Uiso   1.00
H453   H     0.20333   0.37289   0.53573   0.00000  Uiso   1.00
H454   H     0.15451   0.31992   0.56236   0.00000  Uiso   1.00
H455   H     0.08206   0.34015   0.58045   0.00000  Uiso   1.00
H456   H     0.05851   0.41358   0.57168   0.00000  Uiso   1.00
O457   O     0.25000   0.00000   0.25000   0.00000  Uiso   1.00
O458   O     0.25000   0.46539   0.66251   0.00000  Uiso   1.00
O459   O     0.46539   0.25000   0.33749   0.00000  Uiso   1.00
O460   O     0.03462   0.25000   0.66251   0.00000  Uiso   1.00
O461   O     0.00000   0.21539   0.83749   0.00000  Uiso   1.00
O462   O     0.00000   0.28462   0.16251   0.00000  Uiso   1.00
O463   O     0.28462   0.00000   0.83749   0.00000  Uiso   1.00
O464   O     0.21539   0.00000   0.16251   0.00000  Uiso   1.00
O465   O     0.00000   0.28462   0.83749   0.00000  Uiso   1.00
O466   O     0.00000   0.21539   0.16251   0.00000  Uiso   1.00
O467   O     0.21539   0.00000   0.83749   0.00000  Uiso   1.00
O468   O     0.25000   0.00000   0.75000   0.00000  Uiso   1.00
O469   O     0.28462   0.00000   0.16251   0.00000  Uiso   1.00
O470   O     0.20127   0.08332   0.27298   0.00000  Uiso   1.00
O471   O     0.29874   0.41668   0.72702   0.00000  Uiso   1.00
O472   O     0.41668   0.20127   0.27298   0.00000  Uiso   1.00
O473   O     0.08332   0.29874   0.72702   0.00000  Uiso   1.00
O474   O     0.29874   0.41668   0.27298   0.00000  Uiso   1.00
O475   O     0.20127   0.08332   0.72702   0.00000  Uiso   1.00
O476   O     0.08332   0.29874   0.27298   0.00000  Uiso   1.00
O477   O     0.41668   0.20127   0.72702   0.00000  Uiso   1.00
O478   O     0.20127   0.41668   0.72702   0.00000  Uiso   1.00
O479   O     0.00000   0.25000   0.25000   0.00000  Uiso   1.00
O480   O     0.29874   0.08332   0.27298   0.00000  Uiso   1.00
O481   O     0.41668   0.29874   0.72702   0.00000  Uiso   1.00
O482   O     0.08332   0.20127   0.27298   0.00000  Uiso   1.00
O483   O     0.29874   0.08332   0.72702   0.00000  Uiso   1.00
O484   O     0.20127   0.41668   0.27298   0.00000  Uiso   1.00
O485   O     0.08332   0.20127   0.72702   0.00000  Uiso   1.00
O486   O     0.41668   0.29874   0.27298   0.00000  Uiso   1.00
O487   O     0.45127   0.33332   0.77298   0.00000  Uiso   1.00
O488   O     0.04874   0.16668   0.22702   0.00000  Uiso   1.00
O489   O     0.16668   0.45127   0.77298   0.00000  Uiso   1.00
O490   O     0.00000   0.25000   0.75000   0.00000  Uiso   1.00
O491   O     0.33332   0.04874   0.22702   0.00000  Uiso   1.00
O492   O     0.04874   0.16668   0.77298   0.00000  Uiso   1.00
O493   O     0.45127   0.33332   0.22702   0.00000  Uiso   1.00
O494   O     0.33332   0.04874   0.77298   0.00000  Uiso   1.00
O495   O     0.16668   0.45127   0.22702   0.00000  Uiso   1.00
O496   O     0.45127   0.16668   0.22702   0.00000  Uiso   1.00
O497   O     0.04874   0.33332   0.77298   0.00000  Uiso   1.00
O498   O     0.16668   0.04874   0.22702   0.00000  Uiso   1.00
O499   O     0.33332   0.45127   0.77298   0.00000  Uiso   1.00
O500   O     0.04874   0.33332   0.22702   0.00000  Uiso   1.00
O501   O     0.25000   0.46539   0.33749   0.00000  Uiso   1.00
O502   O     0.45127   0.16668   0.77298   0.00000  Uiso   1.00
O503   O     0.33332   0.45127   0.22702   0.00000  Uiso   1.00
O504   O     0.16668   0.04874   0.77298   0.00000  Uiso   1.00
O505   O     0.25000   0.03462   0.66251   0.00000  Uiso   1.00
O506   O     0.03462   0.25000   0.33749   0.00000  Uiso   1.00
O507   O     0.46539   0.25000   0.66251   0.00000  Uiso   1.00
O508   O     0.25000   0.03462   0.33749   0.00000  Uiso   1.00
Zn509  Zn    0.20053   0.00000   0.21730   0.00000  Uiso   1.00
Zn510  Zn    0.04948   0.25000   0.28270   0.00000  Uiso   1.00
Zn511  Zn    0.25000   0.45053   0.71730   0.00000  Uiso   1.00
Zn512  Zn    0.25000   0.04948   0.28270   0.00000  Uiso   1.00
Zn513  Zn    0.04948   0.25000   0.71730   0.00000  Uiso   1.00
Zn514  Zn    0.45053   0.25000   0.28270   0.00000  Uiso   1.00
Zn515  Zn    0.25000   0.04948   0.71730   0.00000  Uiso   1.00
Zn516  Zn    0.25000   0.45053   0.28270   0.00000  Uiso   1.00
Zn517  Zn    0.29948   0.00000   0.78270   0.00000  Uiso   1.00
Zn518  Zn    0.00000   0.20053   0.21730   0.00000  Uiso   1.00
Zn519  Zn    0.00000   0.29948   0.78270   0.00000  Uiso   1.00
Zn520  Zn    0.29948   0.00000   0.21730   0.00000  Uiso   1.00
Zn521  Zn    0.20053   0.00000   0.78270   0.00000  Uiso   1.00
Zn522  Zn    0.00000   0.29948   0.21730   0.00000  Uiso   1.00
Zn523  Zn    0.00000   0.20053   0.78270   0.00000  Uiso   1.00
Zn524  Zn    0.45053   0.25000   0.71730   0.00000  Uiso   1.00
C525   C     0.75000   0.00000   0.35589   0.00000  Uiso   1.00
C526   C     0.82999   0.41996   0.75004   0.00000  Uiso   1.00
C527   C     0.92577   0.26312   0.02021   0.00000  Uiso   1.00
C528   C     0.76686   0.07471   0.98099   0.00000  Uiso   1.00
C529   C     0.74573   0.42469   0.01964   0.00000  Uiso   1.00
C530   C     0.92677   0.27346   0.98074   0.00000  Uiso   1.00
C531   C     0.57423   0.23688   0.02021   0.00000  Uiso   1.00
C532   C     0.92649   0.27995   0.40005   0.00000  Uiso   1.00
C533   C     0.92280   0.31321   0.37349   0.00000  Uiso   1.00
C534   C     0.88408   0.32219   0.35648   0.00000  Uiso   1.00
C535   C     0.84891   0.29795   0.36551   0.00000  Uiso   1.00
C536   C     0.85235   0.26472   0.39165   0.00000  Uiso   1.00
C537   C     0.91996   0.17002   0.24996   0.00000  Uiso   1.00
C538   C     0.89094   0.25577   0.40894   0.00000  Uiso   1.00
C539   C     0.55667   0.19635   0.60423   0.00000  Uiso   1.00
C540   C     0.59909   0.20814   0.60500   0.00000  Uiso   1.00
C541   C     0.62795   0.18470   0.62640   0.00000  Uiso   1.00
C542   C     0.61461   0.14958   0.64723   0.00000  Uiso   1.00
C543   C     0.57227   0.13820   0.64725   0.00000  Uiso   1.00
C544   C     0.54325   0.16167   0.62609   0.00000  Uiso   1.00
C545   C     0.69810   0.44164   0.39671   0.00000  Uiso   1.00
C546   C     0.66471   0.45275   0.37222   0.00000  Uiso   1.00
C547   C     0.64329   0.42184   0.35143   0.00000  Uiso   1.00
C548   C     0.58003   0.32999   0.75004   0.00000  Uiso   1.00
C549   C     0.65540   0.37984   0.35447   0.00000  Uiso   1.00
C550   C     0.68909   0.36870   0.37816   0.00000  Uiso   1.00
C551   C     0.71049   0.39947   0.39918   0.00000  Uiso   1.00
C552   C     0.81906   0.03395   0.60665   0.00000  Uiso   1.00
C553   C     0.81976   0.07376   0.62415   0.00000  Uiso   1.00
C554   C     0.85295   0.08514   0.64837   0.00000  Uiso   1.00
C555   C     0.88498   0.05652   0.65621   0.00000  Uiso   1.00
C556   C     0.88374   0.01639   0.64002   0.00000  Uiso   1.00
C557   C     0.85074   0.00501   0.61557   0.00000  Uiso   1.00
C558   C     0.57350   0.22004   0.40005   0.00000  Uiso   1.00
C559   C     0.83004   0.42001   0.25005   0.00000  Uiso   1.00
C560   C     0.57718   0.18677   0.37348   0.00000  Uiso   1.00
C561   C     0.61590   0.17779   0.35647   0.00000  Uiso   1.00
C562   C     0.65108   0.20202   0.36551   0.00000  Uiso   1.00
C563   C     0.64764   0.23525   0.39164   0.00000  Uiso   1.00
C564   C     0.60906   0.24421   0.40893   0.00000  Uiso   1.00
C565   C     0.94334   0.30366   0.60423   0.00000  Uiso   1.00
C566   C     0.90092   0.29187   0.60501   0.00000  Uiso   1.00
C567   C     0.87207   0.31532   0.62641   0.00000  Uiso   1.00
C568   C     0.88542   0.35045   0.64723   0.00000  Uiso   1.00
C569   C     0.92776   0.36182   0.64724   0.00000  Uiso   1.00
C570   C     0.67001   0.08004   0.75004   0.00000  Uiso   1.00
C571   C     0.95677   0.33834   0.62608   0.00000  Uiso   1.00
C572   C     0.80189   0.05838   0.39671   0.00000  Uiso   1.00
C573   C     0.83527   0.04728   0.37221   0.00000  Uiso   1.00
C574   C     0.85667   0.07821   0.35142   0.00000  Uiso   1.00
C575   C     0.84456   0.12020   0.35448   0.00000  Uiso   1.00
C576   C     0.81087   0.13133   0.37818   0.00000  Uiso   1.00
C577   C     0.78948   0.10055   0.39919   0.00000  Uiso   1.00
C578   C     0.68094   0.46604   0.60665   0.00000  Uiso   1.00
C579   C     0.68025   0.42623   0.62414   0.00000  Uiso   1.00
C580   C     0.64706   0.41486   0.64836   0.00000  Uiso   1.00
C581   C     0.58004   0.32998   0.24996   0.00000  Uiso   1.00
C582   C     0.61502   0.44348   0.65621   0.00000  Uiso   1.00
C583   C     0.61626   0.48361   0.64001   0.00000  Uiso   1.00
C584   C     0.64927   0.49498   0.61557   0.00000  Uiso   1.00
C585   C     0.77596   0.07328   0.89482   0.00000  Uiso   1.00
C586   C     0.81804   0.07860   0.88388   0.00000  Uiso   1.00
C587   C     0.82974   0.11244   0.86053   0.00000  Uiso   1.00
C588   C     0.79943   0.14065   0.84739   0.00000  Uiso   1.00
C589   C     0.75736   0.13496   0.85741   0.00000  Uiso   1.00
C590   C     0.74558   0.10118   0.88076   0.00000  Uiso   1.00
C591   C     0.73666   0.42424   0.10566   0.00000  Uiso   1.00
C592   C     0.91997   0.17001   0.75004   0.00000  Uiso   1.00
C593   C     0.76906   0.40534   0.12704   0.00000  Uiso   1.00
C594   C     0.75972   0.37594   0.15574   0.00000  Uiso   1.00
C595   C     0.71803   0.36628   0.16427   0.00000  Uiso   1.00
C596   C     0.68565   0.38560   0.14376   0.00000  Uiso   1.00
C597   C     0.69486   0.41395   0.11409   0.00000  Uiso   1.00
C598   C     0.92773   0.27714   0.89412   0.00000  Uiso   1.00
C599   C     0.92424   0.31857   0.88064   0.00000  Uiso   1.00
C600   C     0.89174   0.32964   0.85552   0.00000  Uiso   1.00
C601   C     0.86295   0.29936   0.84328   0.00000  Uiso   1.00
C602   C     0.86686   0.25788   0.85583   0.00000  Uiso   1.00
C603   C     0.67005   0.41994   0.75008   0.00000  Uiso   1.00
C604   C     0.89942   0.24663   0.88081   0.00000  Uiso   1.00
C605   C     0.56766   0.21138   0.10300   0.00000  Uiso   1.00
C606   C     0.59339   0.23205   0.12999   0.00000  Uiso   1.00
C607   C     0.61897   0.20899   0.15497   0.00000  Uiso   1.00
C608   C     0.61859   0.16520   0.15357   0.00000  Uiso   1.00
C609   C     0.59256   0.14442   0.12735   0.00000  Uiso   1.00
C610   C     0.56741   0.16740   0.10191   0.00000  Uiso   1.00
C611   C     0.72404   0.42672   0.89482   0.00000  Uiso   1.00
C612   C     0.68196   0.42140   0.88388   0.00000  Uiso   1.00
C613   C     0.67027   0.38756   0.86053   0.00000  Uiso   1.00
C614   C     0.82996   0.08005   0.24994   0.00000  Uiso   1.00
C615   C     0.70057   0.35935   0.84739   0.00000  Uiso   1.00
C616   C     0.74264   0.36504   0.85741   0.00000  Uiso   1.00
C617   C     0.75442   0.39882   0.88077   0.00000  Uiso   1.00
C618   C     0.76334   0.07576   0.10566   0.00000  Uiso   1.00
C619   C     0.73094   0.09466   0.12704   0.00000  Uiso   1.00
C620   C     0.74028   0.12406   0.15574   0.00000  Uiso   1.00
C621   C     0.78196   0.13372   0.16427   0.00000  Uiso   1.00
C622   C     0.81435   0.11440   0.14376   0.00000  Uiso   1.00
C623   C     0.80514   0.08605   0.11409   0.00000  Uiso   1.00
C624   C     0.57227   0.22286   0.89412   0.00000  Uiso   1.00
C625   C     0.91996   0.32998   0.75005   0.00000  Uiso   1.00
C626   C     0.57576   0.18143   0.88064   0.00000  Uiso   1.00
C627   C     0.60826   0.17036   0.85552   0.00000  Uiso   1.00
C628   C     0.63705   0.20064   0.84328   0.00000  Uiso   1.00
C629   C     0.63314   0.24212   0.85583   0.00000  Uiso   1.00
C630   C     0.60058   0.25337   0.88081   0.00000  Uiso   1.00
C631   C     0.93234   0.28862   0.10300   0.00000  Uiso   1.00
C632   C     0.90661   0.26795   0.12999   0.00000  Uiso   1.00
C633   C     0.88103   0.29101   0.15497   0.00000  Uiso   1.00
C634   C     0.88141   0.33480   0.15357   0.00000  Uiso   1.00
C635   C     0.90744   0.35558   0.12735   0.00000  Uiso   1.00
C636   C     0.75000   0.00000   0.64443   0.00000  Uiso   1.00
C637   C     0.57993   0.16991   0.25012   0.00000  Uiso   1.00
C638   C     0.93259   0.33260   0.10191   0.00000  Uiso   1.00
C639   C     0.56930   0.15599   0.45780   0.00000  Uiso   1.00
C640   C     0.54400   0.12564   0.43995   0.00000  Uiso   1.00
C641   C     0.56233   0.09228   0.41994   0.00000  Uiso   1.00
C642   C     0.60596   0.08870   0.41814   0.00000  Uiso   1.00
C643   C     0.63136   0.11822   0.43669   0.00000  Uiso   1.00
C644   C     0.61315   0.15188   0.45639   0.00000  Uiso   1.00
C645   C     0.94451   0.35384   0.53681   0.00000  Uiso   1.00
C646   C     0.90279   0.36582   0.54370   0.00000  Uiso   1.00
C647   C     0.89359   0.40655   0.55587   0.00000  Uiso   1.00
C648   C     0.82995   0.08006   0.75008   0.00000  Uiso   1.00
C649   C     0.92590   0.43565   0.56101   0.00000  Uiso   1.00
C650   C     0.96739   0.42411   0.55384   0.00000  Uiso   1.00
C651   C     0.97669   0.38338   0.54162   0.00000  Uiso   1.00
C652   C     0.85573   0.05171   0.46138   0.00000  Uiso   1.00
C653   C     0.88325   0.01891   0.45219   0.00000  Uiso   1.00
C654   C     0.92237   0.02756   0.43583   0.00000  Uiso   1.00
C655   C     0.93440   0.06899   0.42884   0.00000  Uiso   1.00
C656   C     0.90770   0.10195   0.43885   0.00000  Uiso   1.00
C657   C     0.86855   0.09344   0.45523   0.00000  Uiso   1.00
C658   C     0.65845   0.42362   0.53849   0.00000  Uiso   1.00
C659   C     0.67004   0.41995   0.24994   0.00000  Uiso   1.00
C660   C     0.67173   0.38198   0.54349   0.00000  Uiso   1.00
C661   C     0.64414   0.35193   0.55841   0.00000  Uiso   1.00
C662   C     0.60326   0.36329   0.56847   0.00000  Uiso   1.00
C663   C     0.58979   0.40457   0.56319   0.00000  Uiso   1.00
C664   C     0.61687   0.43445   0.54742   0.00000  Uiso   1.00
C665   C     0.93069   0.34400   0.45780   0.00000  Uiso   1.00
C666   C     0.95598   0.37435   0.43995   0.00000  Uiso   1.00
C667   C     0.93764   0.40771   0.41994   0.00000  Uiso   1.00
C668   C     0.89401   0.41128   0.41814   0.00000  Uiso   1.00
C669   C     0.86862   0.38176   0.43670   0.00000  Uiso   1.00
C670   C     0.58004   0.17002   0.75005   0.00000  Uiso   1.00
C671   C     0.88684   0.34810   0.45640   0.00000  Uiso   1.00
C672   C     0.55550   0.14616   0.53681   0.00000  Uiso   1.00
C673   C     0.59723   0.13419   0.54369   0.00000  Uiso   1.00
C674   C     0.60644   0.09346   0.55586   0.00000  Uiso   1.00
C675   C     0.57414   0.06435   0.56099   0.00000  Uiso   1.00
C676   C     0.53265   0.07588   0.55383   0.00000  Uiso   1.00
C677   C     0.52333   0.11661   0.54163   0.00000  Uiso   1.00
C678   C     0.64427   0.44830   0.46139   0.00000  Uiso   1.00
C679   C     0.61674   0.48111   0.45224   0.00000  Uiso   1.00
C680   C     0.57761   0.47247   0.43590   0.00000  Uiso   1.00
C681   C     0.92007   0.33009   0.25012   0.00000  Uiso   1.00
C682   C     0.56557   0.43105   0.42891   0.00000  Uiso   1.00
C683   C     0.59227   0.39808   0.43888   0.00000  Uiso   1.00
C684   C     0.63144   0.40658   0.45524   0.00000  Uiso   1.00
C685   C     0.84158   0.07635   0.53849   0.00000  Uiso   1.00
C686   C     0.82832   0.11800   0.54350   0.00000  Uiso   1.00
C687   C     0.85592   0.14803   0.55843   0.00000  Uiso   1.00
C688   C     0.89680   0.13666   0.56848   0.00000  Uiso   1.00
C689   C     0.91025   0.09537   0.56319   0.00000  Uiso   1.00
C690   C     0.88315   0.06551   0.54741   0.00000  Uiso   1.00
C691   C     0.70493   0.39071   0.96912   0.00000  Uiso   1.00
C692   C     0.63842   0.38824   0.24987   0.00000  Uiso   1.00
C693   C     0.66138   0.39703   0.97062   0.00000  Uiso   1.00
C694   C     0.63387   0.36375   0.96372   0.00000  Uiso   1.00
C695   C     0.64961   0.32388   0.95565   0.00000  Uiso   1.00
C696   C     0.69287   0.31723   0.95422   0.00000  Uiso   1.00
C697   C     0.72045   0.35046   0.96119   0.00000  Uiso   1.00
C698   C     0.72696   0.10950   0.03245   0.00000  Uiso   1.00
C699   C     0.68357   0.10272   0.03445   0.00000  Uiso   1.00
C700   C     0.65802   0.13176   0.05296   0.00000  Uiso   1.00
C701   C     0.67602   0.16654   0.07094   0.00000  Uiso   1.00
C702   C     0.71901   0.17383   0.06812   0.00000  Uiso   1.00
C703   C     0.86159   0.11175   0.75015   0.00000  Uiso   1.00
C704   C     0.74418   0.14602   0.04751   0.00000  Uiso   1.00
C705   C     0.59962   0.19047   0.96921   0.00000  Uiso   1.00
C706   C     0.58460   0.14971   0.97606   0.00000  Uiso   1.00
C707   C     0.60793   0.11489   0.96444   0.00000  Uiso   1.00
C708   C     0.64630   0.12047   0.94575   0.00000  Uiso   1.00
C709   C     0.66143   0.16090   0.93871   0.00000  Uiso   1.00
C710   C     0.63858   0.19581   0.95094   0.00000  Uiso   1.00
C711   C     0.89079   0.23708   0.03566   0.00000  Uiso   1.00
C712   C     0.90010   0.19961   0.05574   0.00000  Uiso   1.00
C713   C     0.86967   0.17991   0.07807   0.00000  Uiso   1.00
C714   C     0.61151   0.13816   0.25031   0.00000  Uiso   1.00
C715   C     0.82934   0.19631   0.07927   0.00000  Uiso   1.00
C716   C     0.81827   0.22901   0.05461   0.00000  Uiso   1.00
C717   C     0.84888   0.24958   0.03299   0.00000  Uiso   1.00
C718   C     0.79507   0.10929   0.96912   0.00000  Uiso   1.00
C719   C     0.83862   0.10297   0.97062   0.00000  Uiso   1.00
C720   C     0.86613   0.13626   0.96372   0.00000  Uiso   1.00
C721   C     0.85039   0.17612   0.95565   0.00000  Uiso   1.00
C722   C     0.80713   0.18277   0.95422   0.00000  Uiso   1.00
C723   C     0.77955   0.14954   0.96119   0.00000  Uiso   1.00
C724   C     0.77304   0.39049   0.03244   0.00000  Uiso   1.00
C725   C     0.88826   0.36161   0.75013   0.00000  Uiso   1.00
C726   C     0.81643   0.39728   0.03445   0.00000  Uiso   1.00
C727   C     0.84198   0.36824   0.05296   0.00000  Uiso   1.00
C728   C     0.82398   0.33346   0.07095   0.00000  Uiso   1.00
C729   C     0.78099   0.32617   0.06812   0.00000  Uiso   1.00
C730   C     0.75582   0.35398   0.04751   0.00000  Uiso   1.00
C731   C     0.90038   0.30953   0.96921   0.00000  Uiso   1.00
C732   C     0.91540   0.35029   0.97606   0.00000  Uiso   1.00
C733   C     0.89207   0.38511   0.96444   0.00000  Uiso   1.00
C734   C     0.85370   0.37953   0.94575   0.00000  Uiso   1.00
C735   C     0.83857   0.33910   0.93871   0.00000  Uiso   1.00
C736   C     0.86158   0.11176   0.24987   0.00000  Uiso   1.00
C737   C     0.86142   0.30419   0.95094   0.00000  Uiso   1.00
C738   C     0.60921   0.26292   0.03566   0.00000  Uiso   1.00
C739   C     0.59990   0.30039   0.05574   0.00000  Uiso   1.00
C740   C     0.63033   0.32009   0.07807   0.00000  Uiso   1.00
C741   C     0.67066   0.30369   0.07927   0.00000  Uiso   1.00
C742   C     0.68173   0.27099   0.05460   0.00000  Uiso   1.00
C743   C     0.65112   0.25042   0.03299   0.00000  Uiso   1.00
C744   C     0.50000   0.25000   0.35597   0.00000  Uiso   1.00
C745   C     0.63841   0.38825   0.75015   0.00000  Uiso   1.00
C746   C     0.88849   0.36184   0.25031   0.00000  Uiso   1.00
C747   C     0.61174   0.13839   0.75013   0.00000  Uiso   1.00
C748   C     0.63838   0.11175   0.75012   0.00000  Uiso   1.00
C749   C     0.86181   0.38845   0.25026   0.00000  Uiso   1.00
C750   C     0.61175   0.36161   0.75011   0.00000  Uiso   1.00
C751   C     0.88824   0.13840   0.24988   0.00000  Uiso   1.00
C752   C     0.86162   0.38825   0.75012   0.00000  Uiso   1.00
C753   C     0.63819   0.11155   0.25026   0.00000  Uiso   1.00
C754   C     0.88825   0.13839   0.75011   0.00000  Uiso   1.00
C755   C     0.50000   0.25000   0.64420   0.00000  Uiso   1.00
C756   C     0.61176   0.36160   0.24988   0.00000  Uiso   1.00
C757   C     0.96722   0.26991   0.41911   0.00000  Uiso   1.00
C758   C     0.52604   0.22168   0.58178   0.00000  Uiso   1.00
C759   C     0.72162   0.47424   0.41861   0.00000  Uiso   1.00
C760   C     0.78260   0.02036   0.58275   0.00000  Uiso   1.00
C761   C     0.53278   0.23008   0.41910   0.00000  Uiso   1.00
C762   C     0.97396   0.27832   0.58178   0.00000  Uiso   1.00
C763   C     0.77837   0.02577   0.41861   0.00000  Uiso   1.00
C764   C     0.71741   0.47964   0.58275   0.00000  Uiso   1.00
C765   C     0.76330   0.03623   0.91816   0.00000  Uiso   1.00
C766   C     0.50000   0.25000   0.85573   0.00000  Uiso   1.00
C767   C     0.74575   0.46206   0.08198   0.00000  Uiso   1.00
C768   C     0.96438   0.26459   0.91792   0.00000  Uiso   1.00
C769   C     0.53485   0.23459   0.08133   0.00000  Uiso   1.00
C770   C     0.73670   0.46377   0.91816   0.00000  Uiso   1.00
C771   C     0.75426   0.03794   0.08198   0.00000  Uiso   1.00
C772   C     0.53562   0.23541   0.91792   0.00000  Uiso   1.00
C773   C     0.96515   0.26541   0.08133   0.00000  Uiso   1.00
C774   C     0.50000   0.25000   0.39852   0.00000  Uiso   1.00
C775   C     0.50000   0.25000   0.60177   0.00000  Uiso   1.00
C776   C     0.75000   0.00000   0.39845   0.00000  Uiso   1.00
C777   C     0.50000   0.25000   0.14413   0.00000  Uiso   1.00
C778   C     0.75000  -0.00000   0.60230   0.00000  Uiso   1.00
C779   C     0.75000   0.00000   0.89826   0.00000  Uiso   1.00
C780   C     0.75000   0.00000   0.10187   0.00000  Uiso   1.00
C781   C     0.50000   0.25000   0.89814   0.00000  Uiso   1.00
C782   C     0.50000   0.25000   0.10161   0.00000  Uiso   1.00
C783   C     0.52812   0.22381   0.45933   0.00000  Uiso   1.00
C784   C     0.97577   0.28041   0.54090   0.00000  Uiso   1.00
C785   C     0.78156   0.02240   0.45944   0.00000  Uiso   1.00
C786   C     0.71813   0.47735   0.54172   0.00000  Uiso   1.00
C787   C     0.97188   0.27618   0.45933   0.00000  Uiso   1.00
C788   C     0.75000   0.00000   0.85580   0.00000  Uiso   1.00
C789   C     0.52423   0.21958   0.54090   0.00000  Uiso   1.00
C790   C     0.71844   0.47760   0.45944   0.00000  Uiso   1.00
C791   C     0.78189   0.02264   0.54172   0.00000  Uiso   1.00
C792   C     0.73891   0.46269   0.95914   0.00000  Uiso   1.00
C793   C     0.75332   0.03805   0.04093   0.00000  Uiso   1.00
C794   C     0.53660   0.23664   0.95895   0.00000  Uiso   1.00
C795   C     0.96374   0.26128   0.04053   0.00000  Uiso   1.00
C796   C     0.76109   0.03731   0.95914   0.00000  Uiso   1.00
C797   C     0.74668   0.46195   0.04093   0.00000  Uiso   1.00
C798   C     0.96340   0.26336   0.95895   0.00000  Uiso   1.00
C799   C     0.75000   0.00000   0.14429   0.00000  Uiso   1.00
C800   C     0.53626   0.23872   0.04053   0.00000  Uiso   1.00
C801   C     0.50000   0.25000   0.47982   0.00000  Uiso   1.00
C802   C     0.50000   0.25000   0.52063   0.00000  Uiso   1.00
C803   C     0.75000  -0.00000   0.48007   0.00000  Uiso   1.00
C804   C     0.75000  -0.00000   0.52121   0.00000  Uiso   1.00
C805   C     0.75000   0.00000   0.97935   0.00000  Uiso   1.00
C806   C     0.75000   0.00000   0.02047   0.00000  Uiso   1.00
C807   C     0.50000   0.25000   0.97911   0.00000  Uiso   1.00
C808   C     0.50000   0.25000   0.02004   0.00000  Uiso   1.00
C809   C     0.54948   0.19133   0.47920   0.00000  Uiso   1.00
C810   C     0.66996   0.07999   0.25005   0.00000  Uiso   1.00
C811   C     0.95466   0.31229   0.51954   0.00000  Uiso   1.00
C812   C     0.81483   0.04167   0.48014   0.00000  Uiso   1.00
C813   C     0.68724   0.45468   0.52046   0.00000  Uiso   1.00
C814   C     0.95052   0.30866   0.47920   0.00000  Uiso   1.00
C815   C     0.54534   0.18770   0.51954   0.00000  Uiso   1.00
C816   C     0.68518   0.45833   0.48014   0.00000  Uiso   1.00
C817   C     0.81277   0.04531   0.52046   0.00000  Uiso   1.00
C818   C     0.73315   0.42529   0.98099   0.00000  Uiso   1.00
C819   C     0.75427   0.07531   0.01964   0.00000  Uiso   1.00
C820   C     0.57323   0.22654   0.98074   0.00000  Uiso   1.00
H821   H     0.94988   0.33210   0.36615   0.00000  Uiso   1.00
H822   H     0.51051   0.15261   0.62622   0.00000  Uiso   1.00
H823   H     0.60585   0.46613   0.54274   0.00000  Uiso   1.00
H824   H     0.98976   0.37167   0.44122   0.00000  Uiso   1.00
H825   H     0.95724   0.43056   0.40553   0.00000  Uiso   1.00
H826   H     0.87987   0.43689   0.40231   0.00000  Uiso   1.00
H827   H     0.83485   0.38464   0.43538   0.00000  Uiso   1.00
H828   H     0.86692   0.32499   0.47014   0.00000  Uiso   1.00
H829   H     0.62254   0.15631   0.53934   0.00000  Uiso   1.00
H830   H     0.63866   0.08447   0.56092   0.00000  Uiso   1.00
H831   H     0.58118   0.03275   0.57016   0.00000  Uiso   1.00
H832   H     0.50785   0.05300   0.55720   0.00000  Uiso   1.00
H833   H     0.65514   0.48520   0.36963   0.00000  Uiso   1.00
H834   H     0.99131   0.12503   0.53491   0.00000  Uiso   1.00
H835   H     0.62561   0.01324   0.45809   0.00000  Uiso   1.00
H836   H     0.55655   0.49783   0.42871   0.00000  Uiso   1.00
H837   H     0.53554   0.42458   0.41573   0.00000  Uiso   1.00
H838   H     0.58275   0.36598   0.43371   0.00000  Uiso   1.00
H839   H     0.65194   0.38080   0.46270   0.00000  Uiso   1.00
H840   H     0.79672   0.12711   0.53575   0.00000  Uiso   1.00
H841   H     0.84557   0.18005   0.56238   0.00000  Uiso   1.00
H842   H     0.91801   0.15978   0.58046   0.00000  Uiso   1.00
H843   H     0.94152   0.08634   0.57167   0.00000  Uiso   1.00
H844   H     0.61732   0.43043   0.33295   0.00000  Uiso   1.00
H845   H     0.89416   0.03383   0.54273   0.00000  Uiso   1.00
H846   H     0.64882   0.42763   0.97770   0.00000  Uiso   1.00
H847   H     0.60035   0.36872   0.96516   0.00000  Uiso   1.00
H848   H     0.62820   0.29809   0.95119   0.00000  Uiso   1.00
H849   H     0.70505   0.28619   0.94847   0.00000  Uiso   1.00
H850   H     0.75372   0.34465   0.96163   0.00000  Uiso   1.00
H851   H     0.66985   0.07440   0.02262   0.00000  Uiso   1.00
H852   H     0.62460   0.12655   0.05415   0.00000  Uiso   1.00
H853   H     0.65669   0.18849   0.08635   0.00000  Uiso   1.00
H854   H     0.73279   0.20023   0.08290   0.00000  Uiso   1.00
H855   H     0.63875   0.35595   0.33840   0.00000  Uiso   1.00
H856   H     0.77740   0.15062   0.04519   0.00000  Uiso   1.00
H857   H     0.55471   0.14498   0.99026   0.00000  Uiso   1.00
H858   H     0.59625   0.08358   0.96990   0.00000  Uiso   1.00
H859   H     0.66419   0.09336   0.93686   0.00000  Uiso   1.00
H860   H     0.69035   0.16534   0.92301   0.00000  Uiso   1.00
H861   H     0.65068   0.22686   0.94524   0.00000  Uiso   1.00
H862   H     0.93162   0.18704   0.05623   0.00000  Uiso   1.00
H863   H     0.87787   0.15284   0.09524   0.00000  Uiso   1.00
H864   H     0.80615   0.18270   0.09815   0.00000  Uiso   1.00
H865   H     0.78616   0.23924   0.05300   0.00000  Uiso   1.00
H866   H     0.69853   0.33620   0.38035   0.00000  Uiso   1.00
H867   H     0.83985   0.27673   0.01667   0.00000  Uiso   1.00
H868   H     0.85118   0.07237   0.97770   0.00000  Uiso   1.00
H869   H     0.89965   0.13129   0.96516   0.00000  Uiso   1.00
H870   H     0.87180   0.20192   0.95119   0.00000  Uiso   1.00
H871   H     0.79495   0.21381   0.94847   0.00000  Uiso   1.00
H872   H     0.74628   0.15534   0.96163   0.00000  Uiso   1.00
H873   H     0.83015   0.42560   0.02262   0.00000  Uiso   1.00
H874   H     0.87540   0.37345   0.05415   0.00000  Uiso   1.00
H875   H     0.84330   0.31151   0.08636   0.00000  Uiso   1.00
H876   H     0.76721   0.29977   0.08290   0.00000  Uiso   1.00
H877   H     0.73654   0.39052   0.41747   0.00000  Uiso   1.00
H878   H     0.72260   0.34938   0.04519   0.00000  Uiso   1.00
H879   H     0.94530   0.35502   0.99027   0.00000  Uiso   1.00
H880   H     0.90376   0.41642   0.96990   0.00000  Uiso   1.00
H881   H     0.83582   0.40664   0.93686   0.00000  Uiso   1.00
H882   H     0.80965   0.33466   0.92301   0.00000  Uiso   1.00
H883   H     0.84932   0.27314   0.94525   0.00000  Uiso   1.00
H884   H     0.56838   0.31296   0.05623   0.00000  Uiso   1.00
H885   H     0.62213   0.34716   0.09524   0.00000  Uiso   1.00
H886   H     0.69385   0.31730   0.09815   0.00000  Uiso   1.00
H887   H     0.71384   0.26076   0.05300   0.00000  Uiso   1.00
H888   H     0.79469   0.09589   0.61882   0.00000  Uiso   1.00
H889   H     0.66016   0.22327   0.01667   0.00000  Uiso   1.00
H890   H     0.85372   0.11608   0.66118   0.00000  Uiso   1.00
H891   H     0.91057   0.06534   0.67509   0.00000  Uiso   1.00
H892   H     0.90824   0.49402   0.64654   0.00000  Uiso   1.00
H893   H     0.88131   0.34808   0.33645   0.00000  Uiso   1.00
H894   H     0.84952   0.47362   0.60386   0.00000  Uiso   1.00
H895   H     0.55010   0.16789   0.36614   0.00000  Uiso   1.00
H896   H     0.61867   0.15190   0.33644   0.00000  Uiso   1.00
H897   H     0.68101   0.19498   0.35231   0.00000  Uiso   1.00
H898   H     0.67491   0.25399   0.39861   0.00000  Uiso   1.00
H899   H     0.60684   0.26997   0.42924   0.00000  Uiso   1.00
H900   H     0.89027   0.26480   0.58885   0.00000  Uiso   1.00
H901   H     0.83933   0.30642   0.62666   0.00000  Uiso   1.00
H902   H     0.86296   0.36877   0.66346   0.00000  Uiso   1.00
H903   H     0.93806   0.38885   0.66361   0.00000  Uiso   1.00
H904   H     0.81897   0.30498   0.35232   0.00000  Uiso   1.00
H905   H     0.98951   0.34739   0.62621   0.00000  Uiso   1.00
H906   H     0.84485   0.01483   0.36961   0.00000  Uiso   1.00
H907   H     0.88265   0.06963   0.33294   0.00000  Uiso   1.00
H908   H     0.86120   0.14410   0.33841   0.00000  Uiso   1.00
H909   H     0.80143   0.16382   0.38038   0.00000  Uiso   1.00
H910   H     0.76344   0.10949   0.41750   0.00000  Uiso   1.00
H911   H     0.70531   0.40410   0.61882   0.00000  Uiso   1.00
H912   H     0.64628   0.38391   0.66117   0.00000  Uiso   1.00
H913   H     0.58943   0.43466   0.67509   0.00000  Uiso   1.00
H914   H     0.59177   0.00597   0.64653   0.00000  Uiso   1.00
H915   H     0.82508   0.24598   0.39862   0.00000  Uiso   1.00
H916   H     0.65049   0.02638   0.60386   0.00000  Uiso   1.00
H917   H     0.84167   0.05663   0.89358   0.00000  Uiso   1.00
H918   H     0.86224   0.11665   0.85244   0.00000  Uiso   1.00
H919   H     0.80847   0.16663   0.82908   0.00000  Uiso   1.00
H920   H     0.73383   0.15651   0.84682   0.00000  Uiso   1.00
H921   H     0.71285   0.09644   0.88744   0.00000  Uiso   1.00
H922   H     0.80138   0.41429   0.12214   0.00000  Uiso   1.00
H923   H     0.78472   0.36146   0.17207   0.00000  Uiso   1.00
H924   H     0.71078   0.34419   0.18706   0.00000  Uiso   1.00
H925   H     0.65339   0.37882   0.15114   0.00000  Uiso   1.00
H926   H     0.89317   0.23001   0.42925   0.00000  Uiso   1.00
H927   H     0.66947   0.42959   0.09915   0.00000  Uiso   1.00
H928   H     0.94670   0.34213   0.88959   0.00000  Uiso   1.00
H929   H     0.88892   0.36165   0.84548   0.00000  Uiso   1.00
H930   H     0.83786   0.30796   0.82380   0.00000  Uiso   1.00
H931   H     0.84490   0.23436   0.84591   0.00000  Uiso   1.00
H932   H     0.90295   0.21419   0.88937   0.00000  Uiso   1.00
H933   H     0.59250   0.26583   0.13262   0.00000  Uiso   1.00
H934   H     0.63872   0.22503   0.17567   0.00000  Uiso   1.00
H935   H     0.63853   0.14734   0.17266   0.00000  Uiso   1.00
H936   H     0.59209   0.11050   0.12653   0.00000  Uiso   1.00
H937   H     0.60973   0.23522   0.58883   0.00000  Uiso   1.00
H938   H     0.54676   0.15093   0.08222   0.00000  Uiso   1.00
H939   H     0.65833   0.44337   0.89357   0.00000  Uiso   1.00
H940   H     0.63776   0.38335   0.85244   0.00000  Uiso   1.00
H941   H     0.69153   0.33337   0.82908   0.00000  Uiso   1.00
H942   H     0.76617   0.34349   0.84682   0.00000  Uiso   1.00
H943   H     0.78715   0.40356   0.88744   0.00000  Uiso   1.00
H944   H     0.69862   0.08571   0.12214   0.00000  Uiso   1.00
H945   H     0.71527   0.13854   0.17207   0.00000  Uiso   1.00
H946   H     0.78921   0.15581   0.18706   0.00000  Uiso   1.00
H947   H     0.84661   0.12118   0.15114   0.00000  Uiso   1.00
H948   H     0.66069   0.19361   0.62664   0.00000  Uiso   1.00
H949   H     0.83053   0.07041   0.09915   0.00000  Uiso   1.00
H950   H     0.55330   0.15787   0.88959   0.00000  Uiso   1.00
H951   H     0.61108   0.13835   0.84548   0.00000  Uiso   1.00
H952   H     0.66214   0.19204   0.82379   0.00000  Uiso   1.00
H953   H     0.65510   0.26564   0.84590   0.00000  Uiso   1.00
H954   H     0.59705   0.28582   0.88937   0.00000  Uiso   1.00
H955   H     0.90750   0.23417   0.13263   0.00000  Uiso   1.00
H956   H     0.86128   0.27497   0.17567   0.00000  Uiso   1.00
H957   H     0.86146   0.35266   0.17266   0.00000  Uiso   1.00
H958   H     0.90790   0.38949   0.12653   0.00000  Uiso   1.00
H959   H     0.63707   0.13126   0.66345   0.00000  Uiso   1.00
H960   H     0.95324   0.34907   0.08222   0.00000  Uiso   1.00
H961   H     0.51022   0.12832   0.44123   0.00000  Uiso   1.00
H962   H     0.54273   0.06943   0.40553   0.00000  Uiso   1.00
H963   H     0.62010   0.06309   0.40230   0.00000  Uiso   1.00
H964   H     0.66513   0.11534   0.43536   0.00000  Uiso   1.00
H965   H     0.63307   0.17499   0.47013   0.00000  Uiso   1.00
H966   H     0.87746   0.34371   0.53935   0.00000  Uiso   1.00
H967   H     0.86137   0.41555   0.56094   0.00000  Uiso   1.00
H968   H     0.91887   0.46725   0.57019   0.00000  Uiso   1.00
H969   H     0.99219   0.44698   0.55720   0.00000  Uiso   1.00
H970   H     0.56198   0.11117   0.66362   0.00000  Uiso   1.00
H971   H     0.50871   0.37495   0.53490   0.00000  Uiso   1.00
H972   H     0.87439   0.48678   0.45803   0.00000  Uiso   1.00
H973   H     0.94342   0.00221   0.42861   0.00000  Uiso   1.00
H974   H     0.96441   0.07547   0.41565   0.00000  Uiso   1.00
H975   H     0.91722   0.13406   0.43369   0.00000  Uiso   1.00
H976   H     0.84805   0.11921   0.46271   0.00000  Uiso   1.00
H977   H     0.70333   0.37289   0.53573   0.00000  Uiso   1.00
H978   H     0.65451   0.31992   0.56236   0.00000  Uiso   1.00
H979   H     0.58206   0.34015   0.58045   0.00000  Uiso   1.00
H980   H     0.55851   0.41358   0.57168   0.00000  Uiso   1.00
O981   O     0.75000   0.00000   0.25000   0.00000  Uiso   1.00
O982   O     0.75000   0.46539   0.66251   0.00000  Uiso   1.00
O983   O     0.96539   0.25000   0.33749   0.00000  Uiso   1.00
O984   O     0.53462   0.25000   0.66251   0.00000  Uiso   1.00
O985   O     0.50000   0.21539   0.83749   0.00000  Uiso   1.00
O986   O     0.50000   0.28462   0.16251   0.00000  Uiso   1.00
O987   O     0.78462   0.00000   0.83749   0.00000  Uiso   1.00
O988   O     0.71539   0.00000   0.16251   0.00000  Uiso   1.00
O989   O     0.50000   0.28462   0.83749   0.00000  Uiso   1.00
O990   O     0.50000   0.21539   0.16251   0.00000  Uiso   1.00
O991   O     0.71539   0.00000   0.83749   0.00000  Uiso   1.00
O992   O     0.75000   0.00000   0.75000   0.00000  Uiso   1.00
O993   O     0.78462   0.00000   0.16251   0.00000  Uiso   1.00
O994   O     0.70127   0.08332   0.27298   0.00000  Uiso   1.00
O995   O     0.79874   0.41668   0.72702   0.00000  Uiso   1.00
O996   O     0.91668   0.20127   0.27298   0.00000  Uiso   1.00
O997   O     0.58332   0.29874   0.72702   0.00000  Uiso   1.00
O998   O     0.79874   0.41668   0.27298   0.00000  Uiso   1.00
O999   O     0.70127   0.08332   0.72702   0.00000  Uiso   1.00
O1000  O     0.58332   0.29874   0.27298   0.00000  Uiso   1.00
O1001  O     0.91668   0.20127   0.72702   0.00000  Uiso   1.00
O1002  O     0.70127   0.41668   0.72702   0.00000  Uiso   1.00
O1003  O     0.50000   0.25000   0.25000   0.00000  Uiso   1.00
O1004  O     0.79874   0.08332   0.27298   0.00000  Uiso   1.00
O1005  O     0.91668   0.29874   0.72702   0.00000  Uiso   1.00
O1006  O     0.58332   0.20127   0.27298   0.00000  Uiso   1.00
O1007  O     0.79874   0.08332   0.72702   0.00000  Uiso   1.00
O1008  O     0.70127   0.41668   0.27298   0.00000  Uiso   1.00
O1009  O     0.58332   0.20127   0.72702   0.00000  Uiso   1.00
O1010  O     0.91668   0.29874   0.27298   0.00000  Uiso   1.00
O1011  O     0.95127   0.33332   0.77298   0.00000  Uiso   1.00
O1012  O     0.54874   0.16668   0.22702   0.00000  Uiso   1.00
O1013  O     0.66668   0.45127   0.77298   0.00000  Uiso   1.00
O1014  O     0.50000   0.25000   0.75000   0.00000  Uiso   1.00
O1015  O     0.83332   0.04874   0.22702   0.00000  Uiso   1.00
O1016  O     0.54874   0.16668   0.77298   0.00000  Uiso   1.00
O1017  O     0.95127   0.33332   0.22702   0.00000  Uiso   1.00
O1018  O     0.83332   0.04874   0.77298   0.00000  Uiso   1.00
O1019  O     0.66668   0.45127   0.22702   0.00000  Uiso   1.00
O1020  O     0.95127   0.16668   0.22702   0.00000  Uiso   1.00
O1021  O     0.54874   0.33332   0.77298   0.00000  Uiso   1.00
O1022  O     0.66668   0.04874   0.22702   0.00000  Uiso   1.00
O1023  O     0.83332   0.45127   0.77298   0.00000  Uiso   1.00
O1024  O     0.54874   0.33332   0.22702   0.00000  Uiso   1.00
O1025  O     0.75000   0.46539   0.33749   0.00000  Uiso   1.00
O1026  O     0.95127   0.16668   0.77298   0.00000  Uiso   1.00
O1027  O     0.83332   0.45127   0.22702   0.00000  Uiso   1.00
O1028  O     0.66668   0.04874   0.77298   0.00000  Uiso   1.00
O1029  O     0.75000   0.03462   0.66251   0.00000  Uiso   1.00
O1030  O     0.53462   0.25000   0.33749   0.00000  Uiso   1.00
O1031  O     0.96539   0.25000   0.66251   0.00000  Uiso   1.00
O1032  O     0.75000   0.03462   0.33749   0.00000  Uiso   1.00
Zn1033 Zn    0.70053   0.00000   0.21730   0.00000  Uiso   1.00
Zn1034 Zn    0.54948   0.25000   0.28270   0.00000  Uiso   1.00
Zn1035 Zn    0.75000   0.45053   0.71730   0.00000  Uiso   1.00
Zn1036 Zn    0.75000   0.04948   0.28270   0.00000  Uiso   1.00
Zn1037 Zn    0.54948   0.25000   0.71730   0.00000  Uiso   1.00
Zn1038 Zn    0.95053   0.25000   0.28270   0.00000  Uiso   1.00
Zn1039 Zn    0.75000   0.04948   0.71730   0.00000  Uiso   1.00
Zn1040 Zn    0.75000   0.45053   0.28270   0.00000  Uiso   1.00
Zn1041 Zn    0.79948   0.00000   0.78270   0.00000  Uiso   1.00
Zn1042 Zn    0.50000   0.20053   0.21730   0.00000  Uiso   1.00
Zn1043 Zn    0.50000   0.29948   0.78270   0.00000  Uiso   1.00
Zn1044 Zn    0.79948   0.00000   0.21730   0.00000  Uiso   1.00
Zn1045 Zn    0.70053   0.00000   0.78270   0.00000  Uiso   1.00
Zn1046 Zn    0.50000   0.29948   0.21730   0.00000  Uiso   1.00
Zn1047 Zn    0.50000   0.20053   0.78270   0.00000  Uiso   1.00
Zn1048 Zn    0.95053   0.25000   0.71730   0.00000  Uiso   1.00
C1049  C     0.25000   0.50000   0.35589   0.00000  Uiso   1.00
C1050  C     0.32999   0.91996   0.75004   0.00000  Uiso   1.00
C1051  C     0.42577   0.76312   0.02021   0.00000  Uiso   1.00
C1052  C     0.26686   0.57471   0.98099   0.00000  Uiso   1.00
C1053  C     0.24573   0.92469   0.01964   0.00000  Uiso   1.00
C1054  C     0.42677   0.77346   0.98074   0.00000  Uiso   1.00
C1055  C     0.07423   0.73688   0.02021   0.00000  Uiso   1.00
C1056  C     0.42649   0.77995   0.40005   0.00000  Uiso   1.00
C1057  C     0.42280   0.81321   0.37349   0.00000  Uiso   1.00
C1058  C     0.38408   0.82219   0.35648   0.00000  Uiso   1.00
C1059  C     0.34891   0.79795   0.36551   0.00000  Uiso   1.00
C1060  C     0.35235   0.76472   0.39165   0.00000  Uiso   1.00
C1061  C     0.41996   0.67002   0.24996   0.00000  Uiso   1.00
C1062  C     0.39094   0.75577   0.40894   0.00000  Uiso   1.00
C1063  C     0.05667   0.69635   0.60423   0.00000  Uiso   1.00
C1064  C     0.09909   0.70814   0.60500   0.00000  Uiso   1.00
C1065  C     0.12795   0.68470   0.62640   0.00000  Uiso   1.00
C1066  C     0.11461   0.64958   0.64723   0.00000  Uiso   1.00
C1067  C     0.07227   0.63820   0.64725   0.00000  Uiso   1.00
C1068  C     0.04325   0.66167   0.62609   0.00000  Uiso   1.00
C1069  C     0.19810   0.94164   0.39671   0.00000  Uiso   1.00
C1070  C     0.16471   0.95275   0.37222   0.00000  Uiso   1.00
C1071  C     0.14329   0.92184   0.35143   0.00000  Uiso   1.00
C1072  C     0.08003   0.82999   0.75004   0.00000  Uiso   1.00
C1073  C     0.15540   0.87984   0.35447   0.00000  Uiso   1.00
C1074  C     0.18909   0.86870   0.37816   0.00000  Uiso   1.00
C1075  C     0.21049   0.89947   0.39918   0.00000  Uiso   1.00
C1076  C     0.31906   0.53395   0.60665   0.00000  Uiso   1.00
C1077  C     0.31976   0.57376   0.62415   0.00000  Uiso   1.00
C1078  C     0.35295   0.58514   0.64837   0.00000  Uiso   1.00
C1079  C     0.38498   0.55652   0.65621   0.00000  Uiso   1.00
C1080  C     0.38374   0.51639   0.64002   0.00000  Uiso   1.00
C1081  C     0.35074   0.50501   0.61557   0.00000  Uiso   1.00
C1082  C     0.07350   0.72004   0.40005   0.00000  Uiso   1.00
C1083  C     0.33004   0.92001   0.25005   0.00000  Uiso   1.00
C1084  C     0.07718   0.68677   0.37348   0.00000  Uiso   1.00
C1085  C     0.11590   0.67779   0.35647   0.00000  Uiso   1.00
C1086  C     0.15108   0.70202   0.36551   0.00000  Uiso   1.00
C1087  C     0.14764   0.73525   0.39164   0.00000  Uiso   1.00
C1088  C     0.10906   0.74421   0.40893   0.00000  Uiso   1.00
C1089  C     0.44334   0.80366   0.60423   0.00000  Uiso   1.00
C1090  C     0.40092   0.79187   0.60501   0.00000  Uiso   1.00
C1091  C     0.37207   0.81532   0.62641   0.00000  Uiso   1.00
C1092  C     0.38542   0.85045   0.64723   0.00000  Uiso   1.00
C1093  C     0.42776   0.86182   0.64724   0.00000  Uiso   1.00
C1094  C     0.17001   0.58004   0.75004   0.00000  Uiso   1.00
C1095  C     0.45677   0.83834   0.62608   0.00000  Uiso   1.00
C1096  C     0.30189   0.55838   0.39671   0.00000  Uiso   1.00
C1097  C     0.33527   0.54728   0.37221   0.00000  Uiso   1.00
C1098  C     0.35667   0.57821   0.35142   0.00000  Uiso   1.00
C1099  C     0.34456   0.62020   0.35448   0.00000  Uiso   1.00
C1100  C     0.31087   0.63133   0.37818   0.00000  Uiso   1.00
C1101  C     0.28948   0.60055   0.39919   0.00000  Uiso   1.00
C1102  C     0.18094   0.96604   0.60665   0.00000  Uiso   1.00
C1103  C     0.18025   0.92623   0.62414   0.00000  Uiso   1.00
C1104  C     0.14706   0.91486   0.64836   0.00000  Uiso   1.00
C1105  C     0.08004   0.82998   0.24996   0.00000  Uiso   1.00
C1106  C     0.11502   0.94348   0.65621   0.00000  Uiso   1.00
C1107  C     0.11626   0.98361   0.64001   0.00000  Uiso   1.00
C1108  C     0.14927   0.99498   0.61557   0.00000  Uiso   1.00
C1109  C     0.27596   0.57328   0.89482   0.00000  Uiso   1.00
C1110  C     0.31804   0.57860   0.88388   0.00000  Uiso   1.00
C1111  C     0.32974   0.61244   0.86053   0.00000  Uiso   1.00
C1112  C     0.29943   0.64065   0.84739   0.00000  Uiso   1.00
C1113  C     0.25736   0.63496   0.85741   0.00000  Uiso   1.00
C1114  C     0.24558   0.60118   0.88076   0.00000  Uiso   1.00
C1115  C     0.23666   0.92424   0.10566   0.00000  Uiso   1.00
C1116  C     0.41997   0.67001   0.75004   0.00000  Uiso   1.00
C1117  C     0.26906   0.90534   0.12704   0.00000  Uiso   1.00
C1118  C     0.25972   0.87594   0.15574   0.00000  Uiso   1.00
C1119  C     0.21803   0.86628   0.16427   0.00000  Uiso   1.00
C1120  C     0.18565   0.88560   0.14376   0.00000  Uiso   1.00
C1121  C     0.19486   0.91395   0.11409   0.00000  Uiso   1.00
C1122  C     0.42773   0.77714   0.89412   0.00000  Uiso   1.00
C1123  C     0.42424   0.81857   0.88064   0.00000  Uiso   1.00
C1124  C     0.39174   0.82964   0.85552   0.00000  Uiso   1.00
C1125  C     0.36295   0.79936   0.84328   0.00000  Uiso   1.00
C1126  C     0.36686   0.75788   0.85583   0.00000  Uiso   1.00
C1127  C     0.17005   0.91994   0.75008   0.00000  Uiso   1.00
C1128  C     0.39942   0.74663   0.88081   0.00000  Uiso   1.00
C1129  C     0.06766   0.71138   0.10300   0.00000  Uiso   1.00
C1130  C     0.09339   0.73205   0.12999   0.00000  Uiso   1.00
C1131  C     0.11897   0.70899   0.15497   0.00000  Uiso   1.00
C1132  C     0.11859   0.66520   0.15357   0.00000  Uiso   1.00
C1133  C     0.09256   0.64442   0.12735   0.00000  Uiso   1.00
C1134  C     0.06741   0.66740   0.10191   0.00000  Uiso   1.00
C1135  C     0.22404   0.92672   0.89482   0.00000  Uiso   1.00
C1136  C     0.18196   0.92140   0.88388   0.00000  Uiso   1.00
C1137  C     0.17027   0.88756   0.86053   0.00000  Uiso   1.00
C1138  C     0.32996   0.58005   0.24994   0.00000  Uiso   1.00
C1139  C     0.20057   0.85935   0.84739   0.00000  Uiso   1.00
C1140  C     0.24264   0.86504   0.85741   0.00000  Uiso   1.00
C1141  C     0.25442   0.89882   0.88077   0.00000  Uiso   1.00
C1142  C     0.26334   0.57576   0.10566   0.00000  Uiso   1.00
C1143  C     0.23094   0.59466   0.12704   0.00000  Uiso   1.00
C1144  C     0.24028   0.62406   0.15574   0.00000  Uiso   1.00
C1145  C     0.28196   0.63372   0.16427   0.00000  Uiso   1.00
C1146  C     0.31435   0.61440   0.14376   0.00000  Uiso   1.00
C1147  C     0.30514   0.58605   0.11409   0.00000  Uiso   1.00
C1148  C     0.07227   0.72286   0.89412   0.00000  Uiso   1.00
C1149  C     0.41996   0.82998   0.75005   0.00000  Uiso   1.00
C1150  C     0.07576   0.68143   0.88064   0.00000  Uiso   1.00
C1151  C     0.10826   0.67036   0.85552   0.00000  Uiso   1.00
C1152  C     0.13705   0.70064   0.84328   0.00000  Uiso   1.00
C1153  C     0.13314   0.74212   0.85583   0.00000  Uiso   1.00
C1154  C     0.10058   0.75337   0.88081   0.00000  Uiso   1.00
C1155  C     0.43234   0.78862   0.10300   0.00000  Uiso   1.00
C1156  C     0.40661   0.76795   0.12999   0.00000  Uiso   1.00
C1157  C     0.38103   0.79101   0.15497   0.00000  Uiso   1.00
C1158  C     0.38141   0.83480   0.15357   0.00000  Uiso   1.00
C1159  C     0.40744   0.85558   0.12735   0.00000  Uiso   1.00
C1160  C     0.25000   0.50000   0.64443   0.00000  Uiso   1.00
C1161  C     0.07993   0.66991   0.25012   0.00000  Uiso   1.00
C1162  C     0.43259   0.83260   0.10191   0.00000  Uiso   1.00
C1163  C     0.06930   0.65599   0.45780   0.00000  Uiso   1.00
C1164  C     0.04400   0.62564   0.43995   0.00000  Uiso   1.00
C1165  C     0.06233   0.59228   0.41994   0.00000  Uiso   1.00
C1166  C     0.10596   0.58870   0.41814   0.00000  Uiso   1.00
C1167  C     0.13136   0.61822   0.43669   0.00000  Uiso   1.00
C1168  C     0.11315   0.65188   0.45639   0.00000  Uiso   1.00
C1169  C     0.44451   0.85384   0.53681   0.00000  Uiso   1.00
C1170  C     0.40279   0.86582   0.54370   0.00000  Uiso   1.00
C1171  C     0.39359   0.90655   0.55587   0.00000  Uiso   1.00
C1172  C     0.32995   0.58006   0.75008   0.00000  Uiso   1.00
C1173  C     0.42590   0.93565   0.56101   0.00000  Uiso   1.00
C1174  C     0.46739   0.92411   0.55384   0.00000  Uiso   1.00
C1175  C     0.47669   0.88338   0.54162   0.00000  Uiso   1.00
C1176  C     0.35573   0.55171   0.46138   0.00000  Uiso   1.00
C1177  C     0.38325   0.51891   0.45219   0.00000  Uiso   1.00
C1178  C     0.42237   0.52756   0.43583   0.00000  Uiso   1.00
C1179  C     0.43440   0.56899   0.42884   0.00000  Uiso   1.00
C1180  C     0.40770   0.60195   0.43885   0.00000  Uiso   1.00
C1181  C     0.36855   0.59344   0.45523   0.00000  Uiso   1.00
C1182  C     0.15845   0.92362   0.53849   0.00000  Uiso   1.00
C1183  C     0.17004   0.91995   0.24994   0.00000  Uiso   1.00
C1184  C     0.17173   0.88198   0.54349   0.00000  Uiso   1.00
C1185  C     0.14414   0.85193   0.55841   0.00000  Uiso   1.00
C1186  C     0.10326   0.86329   0.56847   0.00000  Uiso   1.00
C1187  C     0.08979   0.90457   0.56319   0.00000  Uiso   1.00
C1188  C     0.11687   0.93445   0.54742   0.00000  Uiso   1.00
C1189  C     0.43069   0.84400   0.45780   0.00000  Uiso   1.00
C1190  C     0.45598   0.87435   0.43995   0.00000  Uiso   1.00
C1191  C     0.43764   0.90771   0.41994   0.00000  Uiso   1.00
C1192  C     0.39401   0.91128   0.41814   0.00000  Uiso   1.00
C1193  C     0.36862   0.88176   0.43670   0.00000  Uiso   1.00
C1194  C     0.08004   0.67002   0.75005   0.00000  Uiso   1.00
C1195  C     0.38684   0.84810   0.45640   0.00000  Uiso   1.00
C1196  C     0.05550   0.64616   0.53681   0.00000  Uiso   1.00
C1197  C     0.09723   0.63419   0.54369   0.00000  Uiso   1.00
C1198  C     0.10644   0.59346   0.55586   0.00000  Uiso   1.00
C1199  C     0.07414   0.56435   0.56099   0.00000  Uiso   1.00
C1200  C     0.03265   0.57588   0.55383   0.00000  Uiso   1.00
C1201  C     0.02333   0.61661   0.54163   0.00000  Uiso   1.00
C1202  C     0.14427   0.94830   0.46139   0.00000  Uiso   1.00
C1203  C     0.11674   0.98111   0.45224   0.00000  Uiso   1.00
C1204  C     0.07761   0.97247   0.43590   0.00000  Uiso   1.00
C1205  C     0.42007   0.83009   0.25012   0.00000  Uiso   1.00
C1206  C     0.06557   0.93105   0.42891   0.00000  Uiso   1.00
C1207  C     0.09227   0.89808   0.43888   0.00000  Uiso   1.00
C1208  C     0.13144   0.90658   0.45524   0.00000  Uiso   1.00
C1209  C     0.34158   0.57635   0.53849   0.00000  Uiso   1.00
C1210  C     0.32832   0.61800   0.54350   0.00000  Uiso   1.00
C1211  C     0.35592   0.64803   0.55843   0.00000  Uiso   1.00
C1212  C     0.39680   0.63666   0.56848   0.00000  Uiso   1.00
C1213  C     0.41025   0.59537   0.56319   0.00000  Uiso   1.00
C1214  C     0.38315   0.56551   0.54741   0.00000  Uiso   1.00
C1215  C     0.20493   0.89071   0.96912   0.00000  Uiso   1.00
C1216  C     0.13842   0.88824   0.24987   0.00000  Uiso   1.00
C1217  C     0.16138   0.89703   0.97062   0.00000  Uiso   1.00
C1218  C     0.13387   0.86375   0.96372   0.00000  Uiso   1.00
C1219  C     0.14961   0.82388   0.95565   0.00000  Uiso   1.00
C1220  C     0.19287   0.81723   0.95422   0.00000  Uiso   1.00
C1221  C     0.22045   0.85046   0.96119   0.00000  Uiso   1.00
C1222  C     0.22696   0.60950   0.03245   0.00000  Uiso   1.00
C1223  C     0.18357   0.60272   0.03445   0.00000  Uiso   1.00
C1224  C     0.15802   0.63176   0.05296   0.00000  Uiso   1.00
C1225  C     0.17602   0.66654   0.07094   0.00000  Uiso   1.00
C1226  C     0.21901   0.67383   0.06812   0.00000  Uiso   1.00
C1227  C     0.36159   0.61175   0.75015   0.00000  Uiso   1.00
C1228  C     0.24418   0.64602   0.04751   0.00000  Uiso   1.00
C1229  C     0.09962   0.69047   0.96921   0.00000  Uiso   1.00
C1230  C     0.08460   0.64971   0.97606   0.00000  Uiso   1.00
C1231  C     0.10793   0.61489   0.96444   0.00000  Uiso   1.00
C1232  C     0.14630   0.62047   0.94575   0.00000  Uiso   1.00
C1233  C     0.16143   0.66090   0.93871   0.00000  Uiso   1.00
C1234  C     0.13858   0.69581   0.95094   0.00000  Uiso   1.00
C1235  C     0.39079   0.73708   0.03566   0.00000  Uiso   1.00
C1236  C     0.40010   0.69961   0.05574   0.00000  Uiso   1.00
C1237  C     0.36967   0.67991   0.07807   0.00000  Uiso   1.00
C1238  C     0.11151   0.63816   0.25031   0.00000  Uiso   1.00
C1239  C     0.32934   0.69631   0.07927   0.00000  Uiso   1.00
C1240  C     0.31827   0.72901   0.05461   0.00000  Uiso   1.00
C1241  C     0.34888   0.74958   0.03299   0.00000  Uiso   1.00
C1242  C     0.29507   0.60929   0.96912   0.00000  Uiso   1.00
C1243  C     0.33862   0.60297   0.97062   0.00000  Uiso   1.00
C1244  C     0.36613   0.63626   0.96372   0.00000  Uiso   1.00
C1245  C     0.35039   0.67612   0.95565   0.00000  Uiso   1.00
C1246  C     0.30713   0.68277   0.95422   0.00000  Uiso   1.00
C1247  C     0.27955   0.64954   0.96119   0.00000  Uiso   1.00
C1248  C     0.27304   0.89049   0.03244   0.00000  Uiso   1.00
C1249  C     0.38826   0.86161   0.75013   0.00000  Uiso   1.00
C1250  C     0.31643   0.89728   0.03445   0.00000  Uiso   1.00
C1251  C     0.34198   0.86824   0.05296   0.00000  Uiso   1.00
C1252  C     0.32398   0.83346   0.07095   0.00000  Uiso   1.00
C1253  C     0.28099   0.82617   0.06812   0.00000  Uiso   1.00
C1254  C     0.25582   0.85398   0.04751   0.00000  Uiso   1.00
C1255  C     0.40038   0.80953   0.96921   0.00000  Uiso   1.00
C1256  C     0.41540   0.85029   0.97606   0.00000  Uiso   1.00
C1257  C     0.39207   0.88511   0.96444   0.00000  Uiso   1.00
C1258  C     0.35370   0.87953   0.94575   0.00000  Uiso   1.00
C1259  C     0.33857   0.83910   0.93871   0.00000  Uiso   1.00
C1260  C     0.36158   0.61176   0.24987   0.00000  Uiso   1.00
C1261  C     0.36142   0.80419   0.95094   0.00000  Uiso   1.00
C1262  C     0.10921   0.76292   0.03566   0.00000  Uiso   1.00
C1263  C     0.09990   0.80039   0.05574   0.00000  Uiso   1.00
C1264  C     0.13033   0.82009   0.07807   0.00000  Uiso   1.00
C1265  C     0.17066   0.80369   0.07927   0.00000  Uiso   1.00
C1266  C     0.18173   0.77099   0.05460   0.00000  Uiso   1.00
C1267  C     0.15112   0.75042   0.03299   0.00000  Uiso   1.00
C1268  C    -0.00000   0.75000   0.35597   0.00000  Uiso   1.00
C1269  C     0.13841   0.88825   0.75015   0.00000  Uiso   1.00
C1270  C     0.38849   0.86184   0.25031   0.00000  Uiso   1.00
C1271  C     0.11174   0.63839   0.75013   0.00000  Uiso   1.00
C1272  C     0.13838   0.61175   0.75012   0.00000  Uiso   1.00
C1273  C     0.36181   0.88845   0.25026   0.00000  Uiso   1.00
C1274  C     0.11175   0.86161   0.75011   0.00000  Uiso   1.00
C1275  C     0.38824   0.63840   0.24988   0.00000  Uiso   1.00
C1276  C     0.36162   0.88825   0.75012   0.00000  Uiso   1.00
C1277  C     0.13819   0.61155   0.25026   0.00000  Uiso   1.00
C1278  C     0.38825   0.63839   0.75011   0.00000  Uiso   1.00
C1279  C     0.00000   0.75000   0.64420   0.00000  Uiso   1.00
C1280  C     0.11176   0.86160   0.24988   0.00000  Uiso   1.00
C1281  C     0.46722   0.76991   0.41911   0.00000  Uiso   1.00
C1282  C     0.02604   0.72168   0.58178   0.00000  Uiso   1.00
C1283  C     0.22162   0.97424   0.41861   0.00000  Uiso   1.00
C1284  C     0.28260   0.52036   0.58275   0.00000  Uiso   1.00
C1285  C     0.03278   0.73008   0.41910   0.00000  Uiso   1.00
C1286  C     0.47396   0.77832   0.58178   0.00000  Uiso   1.00
C1287  C     0.27837   0.52577   0.41861   0.00000  Uiso   1.00
C1288  C     0.21741   0.97964   0.58275   0.00000  Uiso   1.00
C1289  C     0.26330   0.53623   0.91816   0.00000  Uiso   1.00
C1290  C     0.00000   0.75000   0.85573   0.00000  Uiso   1.00
C1291  C     0.24575   0.96206   0.08198   0.00000  Uiso   1.00
C1292  C     0.46438   0.76459   0.91792   0.00000  Uiso   1.00
C1293  C     0.03485   0.73459   0.08133   0.00000  Uiso   1.00
C1294  C     0.23670   0.96377   0.91816   0.00000  Uiso   1.00
C1295  C     0.25426   0.53794   0.08198   0.00000  Uiso   1.00
C1296  C     0.03562   0.73541   0.91792   0.00000  Uiso   1.00
C1297  C     0.46515   0.76541   0.08133   0.00000  Uiso   1.00
C1298  C    -0.00000   0.75000   0.39852   0.00000  Uiso   1.00
C1299  C     0.00000   0.75000   0.60177   0.00000  Uiso   1.00
C1300  C     0.25000   0.50000   0.39845   0.00000  Uiso   1.00
C1301  C     0.00000   0.75000   0.14413   0.00000  Uiso   1.00
C1302  C     0.25000   0.50000   0.60230   0.00000  Uiso   1.00
C1303  C     0.25000   0.50000   0.89826   0.00000  Uiso   1.00
C1304  C     0.25000   0.50000   0.10187   0.00000  Uiso   1.00
C1305  C     0.00000   0.75000   0.89814   0.00000  Uiso   1.00
C1306  C    -0.00000   0.75000   0.10161   0.00000  Uiso   1.00
C1307  C     0.02812   0.72381   0.45933   0.00000  Uiso   1.00
C1308  C     0.47577   0.78041   0.54090   0.00000  Uiso   1.00
C1309  C     0.28156   0.52240   0.45944   0.00000  Uiso   1.00
C1310  C     0.21813   0.97735   0.54172   0.00000  Uiso   1.00
C1311  C     0.47188   0.77618   0.45933   0.00000  Uiso   1.00
C1312  C     0.25000   0.50000   0.85580   0.00000  Uiso   1.00
C1313  C     0.02423   0.71958   0.54090   0.00000  Uiso   1.00
C1314  C     0.21844   0.97760   0.45944   0.00000  Uiso   1.00
C1315  C     0.28189   0.52264   0.54172   0.00000  Uiso   1.00
C1316  C     0.23891   0.96269   0.95914   0.00000  Uiso   1.00
C1317  C     0.25332   0.53805   0.04093   0.00000  Uiso   1.00
C1318  C     0.03660   0.73664   0.95895   0.00000  Uiso   1.00
C1319  C     0.46374   0.76128   0.04053   0.00000  Uiso   1.00
C1320  C     0.26109   0.53731   0.95914   0.00000  Uiso   1.00
C1321  C     0.24668   0.96195   0.04093   0.00000  Uiso   1.00
C1322  C     0.46340   0.76336   0.95895   0.00000  Uiso   1.00
C1323  C     0.25000   0.50000   0.14429   0.00000  Uiso   1.00
C1324  C     0.03626   0.73872   0.04053   0.00000  Uiso   1.00
C1325  C    -0.00000   0.75000   0.47982   0.00000  Uiso   1.00
C1326  C    -0.00000   0.75000   0.52063   0.00000  Uiso   1.00
C1327  C     0.25000   0.50000   0.48007   0.00000  Uiso   1.00
C1328  C     0.25000   0.50000   0.52121   0.00000  Uiso   1.00
C1329  C     0.25000   0.50000   0.97935   0.00000  Uiso   1.00
C1330  C     0.25000   0.50000   0.02047   0.00000  Uiso   1.00
C1331  C     0.00000   0.75000   0.97911   0.00000  Uiso   1.00
C1332  C     0.00000   0.75000   0.02004   0.00000  Uiso   1.00
C1333  C     0.04948   0.69133   0.47920   0.00000  Uiso   1.00
C1334  C     0.16996   0.57999   0.25005   0.00000  Uiso   1.00
C1335  C     0.45466   0.81229   0.51954   0.00000  Uiso   1.00
C1336  C     0.31483   0.54167   0.48014   0.00000  Uiso   1.00
C1337  C     0.18724   0.95468   0.52046   0.00000  Uiso   1.00
C1338  C     0.45052   0.80866   0.47920   0.00000  Uiso   1.00
C1339  C     0.04534   0.68770   0.51954   0.00000  Uiso   1.00
C1340  C     0.18518   0.95833   0.48014   0.00000  Uiso   1.00
C1341  C     0.31277   0.54531   0.52046   0.00000  Uiso   1.00
C1342  C     0.23315   0.92529   0.98099   0.00000  Uiso   1.00
C1343  C     0.25427   0.57531   0.01964   0.00000  Uiso   1.00
C1344  C     0.07323   0.72654   0.98074   0.00000  Uiso   1.00
H1345  H     0.44988   0.83210   0.36615   0.00000  Uiso   1.00
H1346  H     0.01051   0.65261   0.62622   0.00000  Uiso   1.00
H1347  H     0.10585   0.96613   0.54274   0.00000  Uiso   1.00
H1348  H     0.48976   0.87167   0.44122   0.00000  Uiso   1.00
H1349  H     0.45724   0.93056   0.40553   0.00000  Uiso   1.00
H1350  H     0.37987   0.93689   0.40231   0.00000  Uiso   1.00
H1351  H     0.33485   0.88464   0.43538   0.00000  Uiso   1.00
H1352  H     0.36692   0.82499   0.47014   0.00000  Uiso   1.00
H1353  H     0.12254   0.65631   0.53934   0.00000  Uiso   1.00
H1354  H     0.13866   0.58447   0.56092   0.00000  Uiso   1.00
H1355  H     0.08118   0.53275   0.57016   0.00000  Uiso   1.00
H1356  H     0.00785   0.55300   0.55720   0.00000  Uiso   1.00
H1357  H     0.15514   0.98520   0.36963   0.00000  Uiso   1.00
H1358  H     0.49131   0.62503   0.53491   0.00000  Uiso   1.00
H1359  H     0.12561   0.51324   0.45809   0.00000  Uiso   1.00
H1360  H     0.05655   0.99783   0.42871   0.00000  Uiso   1.00
H1361  H     0.03554   0.92458   0.41573   0.00000  Uiso   1.00
H1362  H     0.08275   0.86598   0.43371   0.00000  Uiso   1.00
H1363  H     0.15194   0.88080   0.46270   0.00000  Uiso   1.00
H1364  H     0.29672   0.62711   0.53575   0.00000  Uiso   1.00
H1365  H     0.34557   0.68005   0.56238   0.00000  Uiso   1.00
H1366  H     0.41801   0.65978   0.58046   0.00000  Uiso   1.00
H1367  H     0.44152   0.58634   0.57167   0.00000  Uiso   1.00
H1368  H     0.11732   0.93043   0.33295   0.00000  Uiso   1.00
H1369  H     0.39416   0.53383   0.54273   0.00000  Uiso   1.00
H1370  H     0.14882   0.92763   0.97770   0.00000  Uiso   1.00
H1371  H     0.10035   0.86872   0.96516   0.00000  Uiso   1.00
H1372  H     0.12820   0.79809   0.95119   0.00000  Uiso   1.00
H1373  H     0.20505   0.78619   0.94847   0.00000  Uiso   1.00
H1374  H     0.25372   0.84465   0.96163   0.00000  Uiso   1.00
H1375  H     0.16985   0.57440   0.02262   0.00000  Uiso   1.00
H1376  H     0.12460   0.62655   0.05415   0.00000  Uiso   1.00
H1377  H     0.15669   0.68849   0.08635   0.00000  Uiso   1.00
H1378  H     0.23279   0.70023   0.08290   0.00000  Uiso   1.00
H1379  H     0.13875   0.85595   0.33840   0.00000  Uiso   1.00
H1380  H     0.27740   0.65062   0.04519   0.00000  Uiso   1.00
H1381  H     0.05471   0.64498   0.99026   0.00000  Uiso   1.00
H1382  H     0.09625   0.58358   0.96990   0.00000  Uiso   1.00
H1383  H     0.16419   0.59336   0.93686   0.00000  Uiso   1.00
H1384  H     0.19035   0.66534   0.92301   0.00000  Uiso   1.00
H1385  H     0.15068   0.72686   0.94524   0.00000  Uiso   1.00
H1386  H     0.43162   0.68704   0.05623   0.00000  Uiso   1.00
H1387  H     0.37787   0.65284   0.09524   0.00000  Uiso   1.00
H1388  H     0.30615   0.68270   0.09815   0.00000  Uiso   1.00
H1389  H     0.28616   0.73924   0.05300   0.00000  Uiso   1.00
H1390  H     0.19853   0.83620   0.38035   0.00000  Uiso   1.00
H1391  H     0.33985   0.77673   0.01667   0.00000  Uiso   1.00
H1392  H     0.35118   0.57237   0.97770   0.00000  Uiso   1.00
H1393  H     0.39965   0.63129   0.96516   0.00000  Uiso   1.00
H1394  H     0.37180   0.70192   0.95119   0.00000  Uiso   1.00
H1395  H     0.29495   0.71381   0.94847   0.00000  Uiso   1.00
H1396  H     0.24628   0.65534   0.96163   0.00000  Uiso   1.00
H1397  H     0.33015   0.92560   0.02262   0.00000  Uiso   1.00
H1398  H     0.37540   0.87345   0.05415   0.00000  Uiso   1.00
H1399  H     0.34330   0.81151   0.08636   0.00000  Uiso   1.00
H1400  H     0.26721   0.79977   0.08290   0.00000  Uiso   1.00
H1401  H     0.23654   0.89052   0.41747   0.00000  Uiso   1.00
H1402  H     0.22260   0.84938   0.04519   0.00000  Uiso   1.00
H1403  H     0.44530   0.85502   0.99027   0.00000  Uiso   1.00
H1404  H     0.40376   0.91642   0.96990   0.00000  Uiso   1.00
H1405  H     0.33582   0.90664   0.93686   0.00000  Uiso   1.00
H1406  H     0.30965   0.83466   0.92301   0.00000  Uiso   1.00
H1407  H     0.34932   0.77314   0.94525   0.00000  Uiso   1.00
H1408  H     0.06838   0.81296   0.05623   0.00000  Uiso   1.00
H1409  H     0.12213   0.84716   0.09524   0.00000  Uiso   1.00
H1410  H     0.19385   0.81730   0.09815   0.00000  Uiso   1.00
H1411  H     0.21384   0.76076   0.05300   0.00000  Uiso   1.00
H1412  H     0.29469   0.59589   0.61882   0.00000  Uiso   1.00
H1413  H     0.16016   0.72327   0.01667   0.00000  Uiso   1.00
H1414  H     0.35372   0.61608   0.66118   0.00000  Uiso   1.00
H1415  H     0.41057   0.56534   0.67509   0.00000  Uiso   1.00
H1416  H     0.40824   0.99402   0.64654   0.00000  Uiso   1.00
H1417  H     0.38131   0.84808   0.33645   0.00000  Uiso   1.00
H1418  H     0.34952   0.97362   0.60386   0.00000  Uiso   1.00
H1419  H     0.05010   0.66789   0.36614   0.00000  Uiso   1.00
H1420  H     0.11867   0.65190   0.33644   0.00000  Uiso   1.00
H1421  H     0.18101   0.69498   0.35231   0.00000  Uiso   1.00
H1422  H     0.17491   0.75399   0.39861   0.00000  Uiso   1.00
H1423  H     0.10684   0.76997   0.42924   0.00000  Uiso   1.00
H1424  H     0.39027   0.76480   0.58885   0.00000  Uiso   1.00
H1425  H     0.33933   0.80642   0.62666   0.00000  Uiso   1.00
H1426  H     0.36296   0.86877   0.66346   0.00000  Uiso   1.00
H1427  H     0.43806   0.88885   0.66361   0.00000  Uiso   1.00
H1428  H     0.31897   0.80498   0.35232   0.00000  Uiso   1.00
H1429  H     0.48951   0.84739   0.62621   0.00000  Uiso   1.00
H1430  H     0.34485   0.51483   0.36961   0.00000  Uiso   1.00
H1431  H     0.38265   0.56963   0.33294   0.00000  Uiso   1.00
H1432  H     0.36120   0.64410   0.33841   0.00000  Uiso   1.00
H1433  H     0.30143   0.66382   0.38038   0.00000  Uiso   1.00
H1434  H     0.26344   0.60949   0.41750   0.00000  Uiso   1.00
H1435  H     0.20531   0.90410   0.61882   0.00000  Uiso   1.00
H1436  H     0.14628   0.88391   0.66117   0.00000  Uiso   1.00
H1437  H     0.08943   0.93466   0.67509   0.00000  Uiso   1.00
H1438  H     0.09177   0.50597   0.64653   0.00000  Uiso   1.00
H1439  H     0.32508   0.74598   0.39862   0.00000  Uiso   1.00
H1440  H     0.15049   0.52638   0.60386   0.00000  Uiso   1.00
H1441  H     0.34167   0.55663   0.89358   0.00000  Uiso   1.00
H1442  H     0.36224   0.61665   0.85244   0.00000  Uiso   1.00
H1443  H     0.30847   0.66663   0.82908   0.00000  Uiso   1.00
H1444  H     0.23383   0.65651   0.84682   0.00000  Uiso   1.00
H1445  H     0.21285   0.59644   0.88744   0.00000  Uiso   1.00
H1446  H     0.30138   0.91429   0.12214   0.00000  Uiso   1.00
H1447  H     0.28472   0.86146   0.17207   0.00000  Uiso   1.00
H1448  H     0.21078   0.84419   0.18706   0.00000  Uiso   1.00
H1449  H     0.15339   0.87882   0.15114   0.00000  Uiso   1.00
H1450  H     0.39317   0.73001   0.42925   0.00000  Uiso   1.00
H1451  H     0.16947   0.92959   0.09915   0.00000  Uiso   1.00
H1452  H     0.44670   0.84213   0.88959   0.00000  Uiso   1.00
H1453  H     0.38892   0.86165   0.84548   0.00000  Uiso   1.00
H1454  H     0.33786   0.80796   0.82380   0.00000  Uiso   1.00
H1455  H     0.34490   0.73436   0.84591   0.00000  Uiso   1.00
H1456  H     0.40295   0.71419   0.88937   0.00000  Uiso   1.00
H1457  H     0.09250   0.76583   0.13262   0.00000  Uiso   1.00
H1458  H     0.13872   0.72503   0.17567   0.00000  Uiso   1.00
H1459  H     0.13853   0.64734   0.17266   0.00000  Uiso   1.00
H1460  H     0.09209   0.61050   0.12653   0.00000  Uiso   1.00
H1461  H     0.10973   0.73522   0.58883   0.00000  Uiso   1.00
H1462  H     0.04676   0.65093   0.08222   0.00000  Uiso   1.00
H1463  H     0.15833   0.94337   0.89357   0.00000  Uiso   1.00
H1464  H     0.13776   0.88335   0.85244   0.00000  Uiso   1.00
H1465  H     0.19153   0.83337   0.82908   0.00000  Uiso   1.00
H1466  H     0.26617   0.84349   0.84682   0.00000  Uiso   1.00
H1467  H     0.28715   0.90356   0.88744   0.00000  Uiso   1.00
H1468  H     0.19862   0.58571   0.12214   0.00000  Uiso   1.00
H1469  H     0.21527   0.63854   0.17207   0.00000  Uiso   1.00
H1470  H     0.28921   0.65581   0.18706   0.00000  Uiso   1.00
H1471  H     0.34661   0.62118   0.15114   0.00000  Uiso   1.00
H1472  H     0.16069   0.69361   0.62664   0.00000  Uiso   1.00
H1473  H     0.33053   0.57041   0.09915   0.00000  Uiso   1.00
H1474  H     0.05330   0.65787   0.88959   0.00000  Uiso   1.00
H1475  H     0.11108   0.63835   0.84548   0.00000  Uiso   1.00
H1476  H     0.16214   0.69204   0.82379   0.00000  Uiso   1.00
H1477  H     0.15510   0.76564   0.84590   0.00000  Uiso   1.00
H1478  H     0.09705   0.78582   0.88937   0.00000  Uiso   1.00
H1479  H     0.40750   0.73417   0.13263   0.00000  Uiso   1.00
H1480  H     0.36128   0.77497   0.17567   0.00000  Uiso   1.00
H1481  H     0.36146   0.85266   0.17266   0.00000  Uiso   1.00
H1482  H     0.40790   0.88949   0.12653   0.00000  Uiso   1.00
H1483  H     0.13707   0.63126   0.66345   0.00000  Uiso   1.00
H1484  H     0.45324   0.84907   0.08222   0.00000  Uiso   1.00
H1485  H     0.01022   0.62832   0.44123   0.00000  Uiso   1.00
H1486  H     0.04273   0.56943   0.40553   0.00000  Uiso   1.00
H1487  H     0.12010   0.56309   0.40230   0.00000  Uiso   1.00
H1488  H     0.16513   0.61534   0.43536   0.00000  Uiso   1.00
H1489  H     0.13307   0.67499   0.47013   0.00000  Uiso   1.00
H1490  H     0.37746   0.84371   0.53935   0.00000  Uiso   1.00
H1491  H     0.36137   0.91555   0.56094   0.00000  Uiso   1.00
H1492  H     0.41887   0.96725   0.57019   0.00000  Uiso   1.00
H1493  H     0.49219   0.94698   0.55720   0.00000  Uiso   1.00
H1494  H     0.06198   0.61117   0.66362   0.00000  Uiso   1.00
H1495  H     0.00871   0.87495   0.53490   0.00000  Uiso   1.00
H1496  H     0.37439   0.98678   0.45803   0.00000  Uiso   1.00
H1497  H     0.44342   0.50221   0.42861   0.00000  Uiso   1.00
H1498  H     0.46441   0.57547   0.41565   0.00000  Uiso   1.00
H1499  H     0.41722   0.63406   0.43369   0.00000  Uiso   1.00
H1500  H     0.34805   0.61921   0.46271   0.00000  Uiso   1.00
H1501  H     0.20333   0.87289   0.53573   0.00000  Uiso   1.00
H1502  H     0.15451   0.81992   0.56236   0.00000  Uiso   1.00
H1503  H     0.08206   0.84015   0.58045   0.00000  Uiso   1.00
H1504  H     0.05851   0.91358   0.57168   0.00000  Uiso   1.00
O1505  O     0.25000   0.50000   0.25000   0.00000  Uiso   1.00
O1506  O     0.25000   0.96539   0.66251   0.00000  Uiso   1.00
O1507  O     0.46539   0.75000   0.33749   0.00000  Uiso   1.00
O1508  O     0.03462   0.75000   0.66251   0.00000  Uiso   1.00
O1509  O     0.00000   0.71539   0.83749   0.00000  Uiso   1.00
O1510  O     0.00000   0.78462   0.16251   0.00000  Uiso   1.00
O1511  O     0.28462   0.50000   0.83749   0.00000  Uiso   1.00
O1512  O     0.21539   0.50000   0.16251   0.00000  Uiso   1.00
O1513  O     0.00000   0.78462   0.83749   0.00000  Uiso   1.00
O1514  O     0.00000   0.71539   0.16251   0.00000  Uiso   1.00
O1515  O     0.21539   0.50000   0.83749   0.00000  Uiso   1.00
O1516  O     0.25000   0.50000   0.75000   0.00000  Uiso   1.00
O1517  O     0.28462   0.50000   0.16251   0.00000  Uiso   1.00
O1518  O     0.20127   0.58332   0.27298   0.00000  Uiso   1.00
O1519  O     0.29874   0.91668   0.72702   0.00000  Uiso   1.00
O1520  O     0.41668   0.70127   0.27298   0.00000  Uiso   1.00
O1521  O     0.08332   0.79874   0.72702   0.00000  Uiso   1.00
O1522  O     0.29874   0.91668   0.27298   0.00000  Uiso   1.00
O1523  O     0.20127   0.58332   0.72702   0.00000  Uiso   1.00
O1524  O     0.08332   0.79874   0.27298   0.00000  Uiso   1.00
O1525  O     0.41668   0.70127   0.72702   0.00000  Uiso   1.00
O1526  O     0.20127   0.91668   0.72702   0.00000  Uiso   1.00
O1527  O     0.00000   0.75000   0.25000   0.00000  Uiso   1.00
O1528  O     0.29874   0.58332   0.27298   0.00000  Uiso   1.00
O1529  O     0.41668   0.79874   0.72702   0.00000  Uiso   1.00
O1530  O     0.08332   0.70127   0.27298   0.00000  Uiso   1.00
O1531  O     0.29874   0.58332   0.72702   0.00000  Uiso   1.00
O1532  O     0.20127   0.91668   0.27298   0.00000  Uiso   1.00
O1533  O     0.08332   0.70127   0.72702   0.00000  Uiso   1.00
O1534  O     0.41668   0.79874   0.27298   0.00000  Uiso   1.00
O1535  O     0.45127   0.83332   0.77298   0.00000  Uiso   1.00
O1536  O     0.04874   0.66668   0.22702   0.00000  Uiso   1.00
O1537  O     0.16668   0.95127   0.77298   0.00000  Uiso   1.00
O1538  O     0.00000   0.75000   0.75000   0.00000  Uiso   1.00
O1539  O     0.33332   0.54874   0.22702   0.00000  Uiso   1.00
O1540  O     0.04874   0.66668   0.77298   0.00000  Uiso   1.00
O1541  O     0.45127   0.83332   0.22702   0.00000  Uiso   1.00
O1542  O     0.33332   0.54874   0.77298   0.00000  Uiso   1.00
O1543  O     0.16668   0.95127   0.22702   0.00000  Uiso   1.00
O1544  O     0.45127   0.66668   0.22702   0.00000  Uiso   1.00
O1545  O     0.04874   0.83332   0.77298   0.00000  Uiso   1.00
O1546  O     0.16668   0.54874   0.22702   0.00000  Uiso   1.00
O1547  O     0.33332   0.95127   0.77298   0.00000  Uiso   1.00
O1548  O     0.04874   0.83332   0.22702   0.00000  Uiso   1.00
O1549  O     0.25000   0.96539   0.33749   0.00000  Uiso   1.00
O1550  O     0.45127   0.66668   0.77298   0.00000  Uiso   1.00
O1551  O     0.33332   0.95127   0.22702   0.00000  Uiso   1.00
O1552  O     0.16668   0.54874   0.77298   0.00000  Uiso   1.00
O1553  O     0.25000   0.53462   0.66251   0.00000  Uiso   1.00
O1554  O     0.03462   0.75000   0.33749   0.00000  Uiso   1.00
O1555  O     0.46539   0.75000   0.66251   0.00000  Uiso   1.00
O1556  O     0.25000   0.53462   0.33749   0.00000  Uiso   1.00
Zn1557 Zn    0.20053   0.50000   0.21730   0.00000  Uiso   1.00
Zn1558 Zn    0.04948   0.75000   0.28270   0.00000  Uiso   1.00
Zn1559 Zn    0.25000   0.95053   0.71730   0.00000  Uiso   1.00
Zn1560 Zn    0.25000   0.54948   0.28270   0.00000  Uiso   1.00
Zn1561 Zn    0.04948   0.75000   0.71730   0.00000  Uiso   1.00
Zn1562 Zn    0.45053   0.75000   0.28270   0.00000  Uiso   1.00
Zn1563 Zn    0.25000   0.54948   0.71730   0.00000  Uiso   1.00
Zn1564 Zn    0.25000   0.95053   0.28270   0.00000  Uiso   1.00
Zn1565 Zn    0.29948   0.50000   0.78270   0.00000  Uiso   1.00
Zn1566 Zn    0.00000   0.70053   0.21730   0.00000  Uiso   1.00
Zn1567 Zn    0.00000   0.79948   0.78270   0.00000  Uiso   1.00
Zn1568 Zn    0.29948   0.50000   0.21730   0.00000  Uiso   1.00
Zn1569 Zn    0.20053   0.50000   0.78270   0.00000  Uiso   1.00
Zn1570 Zn    0.00000   0.79948   0.21730   0.00000  Uiso   1.00
Zn1571 Zn    0.00000   0.70053   0.78270   0.00000  Uiso   1.00
Zn1572 Zn    0.45053   0.75000   0.71730   0.00000  Uiso   1.00
C1573  C     0.75000   0.50000   0.35589   0.00000  Uiso   1.00
C1574  C     0.82999   0.91996   0.75004   0.00000  Uiso   1.00
C1575  C     0.92577   0.76312   0.02021   0.00000  Uiso   1.00
C1576  C     0.76686   0.57471   0.98099   0.00000  Uiso   1.00
C1577  C     0.74573   0.92469   0.01964   0.00000  Uiso   1.00
C1578  C     0.92677   0.77346   0.98074   0.00000  Uiso   1.00
C1579  C     0.57423   0.73688   0.02021   0.00000  Uiso   1.00
C1580  C     0.92649   0.77995   0.40005   0.00000  Uiso   1.00
C1581  C     0.92280   0.81321   0.37349   0.00000  Uiso   1.00
C1582  C     0.88408   0.82219   0.35648   0.00000  Uiso   1.00
C1583  C     0.84891   0.79795   0.36551   0.00000  Uiso   1.00
C1584  C     0.85235   0.76472   0.39165   0.00000  Uiso   1.00
C1585  C     0.91996   0.67002   0.24996   0.00000  Uiso   1.00
C1586  C     0.89094   0.75577   0.40894   0.00000  Uiso   1.00
C1587  C     0.55667   0.69635   0.60423   0.00000  Uiso   1.00
C1588  C     0.59909   0.70814   0.60500   0.00000  Uiso   1.00
C1589  C     0.62795   0.68470   0.62640   0.00000  Uiso   1.00
C1590  C     0.61461   0.64958   0.64723   0.00000  Uiso   1.00
C1591  C     0.57227   0.63820   0.64725   0.00000  Uiso   1.00
C1592  C     0.54325   0.66167   0.62609   0.00000  Uiso   1.00
C1593  C     0.69810   0.94164   0.39671   0.00000  Uiso   1.00
C1594  C     0.66471   0.95275   0.37222   0.00000  Uiso   1.00
C1595  C     0.64329   0.92184   0.35143   0.00000  Uiso   1.00
C1596  C     0.58003   0.82999   0.75004   0.00000  Uiso   1.00
C1597  C     0.65540   0.87984   0.35447   0.00000  Uiso   1.00
C1598  C     0.68909   0.86870   0.37816   0.00000  Uiso   1.00
C1599  C     0.71049   0.89947   0.39918   0.00000  Uiso   1.00
C1600  C     0.81906   0.53395   0.60665   0.00000  Uiso   1.00
C1601  C     0.81976   0.57376   0.62415   0.00000  Uiso   1.00
C1602  C     0.85295   0.58514   0.64837   0.00000  Uiso   1.00
C1603  C     0.88498   0.55652   0.65621   0.00000  Uiso   1.00
C1604  C     0.88374   0.51639   0.64002   0.00000  Uiso   1.00
C1605  C     0.85074   0.50501   0.61557   0.00000  Uiso   1.00
C1606  C     0.57350   0.72004   0.40005   0.00000  Uiso   1.00
C1607  C     0.83004   0.92001   0.25005   0.00000  Uiso   1.00
C1608  C     0.57718   0.68677   0.37348   0.00000  Uiso   1.00
C1609  C     0.61590   0.67779   0.35647   0.00000  Uiso   1.00
C1610  C     0.65108   0.70202   0.36551   0.00000  Uiso   1.00
C1611  C     0.64764   0.73525   0.39164   0.00000  Uiso   1.00
C1612  C     0.60906   0.74421   0.40893   0.00000  Uiso   1.00
C1613  C     0.94334   0.80366   0.60423   0.00000  Uiso   1.00
C1614  C     0.90092   0.79187   0.60501   0.00000  Uiso   1.00
C1615  C     0.87207   0.81532   0.62641   0.00000  Uiso   1.00
C1616  C     0.88542   0.85045   0.64723   0.00000  Uiso   1.00
C1617  C     0.92776   0.86182   0.64724   0.00000  Uiso   1.00
C1618  C     0.67001   0.58004   0.75004   0.00000  Uiso   1.00
C1619  C     0.95677   0.83834   0.62608   0.00000  Uiso   1.00
C1620  C     0.80189   0.55838   0.39671   0.00000  Uiso   1.00
C1621  C     0.83527   0.54728   0.37221   0.00000  Uiso   1.00
C1622  C     0.85667   0.57821   0.35142   0.00000  Uiso   1.00
C1623  C     0.84456   0.62020   0.35448   0.00000  Uiso   1.00
C1624  C     0.81087   0.63133   0.37818   0.00000  Uiso   1.00
C1625  C     0.78948   0.60055   0.39919   0.00000  Uiso   1.00
C1626  C     0.68094   0.96604   0.60665   0.00000  Uiso   1.00
C1627  C     0.68025   0.92623   0.62414   0.00000  Uiso   1.00
C1628  C     0.64706   0.91486   0.64836   0.00000  Uiso   1.00
C1629  C     0.58004   0.82998   0.24996   0.00000  Uiso   1.00
C1630  C     0.61502   0.94348   0.65621   0.00000  Uiso   1.00
C1631  C     0.61626   0.98361   0.64001   0.00000  Uiso   1.00
C1632  C     0.64927   0.99498   0.61557   0.00000  Uiso   1.00
C1633  C     0.77596   0.57328   0.89482   0.00000  Uiso   1.00
C1634  C     0.81804   0.57860   0.88388   0.00000  Uiso   1.00
C1635  C     0.82974   0.61244   0.86053   0.00000  Uiso   1.00
C1636  C     0.79943   0.64065   0.84739   0.00000  Uiso   1.00
C1637  C     0.75736   0.63496   0.85741   0.00000  Uiso   1.00
C1638  C     0.74558   0.60118   0.88076   0.00000  Uiso   1.00
C1639  C     0.73666   0.92424   0.10566   0.00000  Uiso   1.00
C1640  C     0.91997   0.67001   0.75004   0.00000  Uiso   1.00
C1641  C     0.76906   0.90534   0.12704   0.00000  Uiso   1.00
C1642  C     0.75972   0.87594   0.15574   0.00000  Uiso   1.00
C1643  C     0.71803   0.86628   0.16427   0.00000  Uiso   1.00
C1644  C     0.68565   0.88560   0.14376   0.00000  Uiso   1.00
C1645  C     0.69486   0.91395   0.11409   0.00000  Uiso   1.00
C1646  C     0.92773   0.77714   0.89412   0.00000  Uiso   1.00
C1647  C     0.92424   0.81857   0.88064   0.00000  Uiso   1.00
C1648  C     0.89174   0.82964   0.85552   0.00000  Uiso   1.00
C1649  C     0.86295   0.79936   0.84328   0.00000  Uiso   1.00
C1650  C     0.86686   0.75788   0.85583   0.00000  Uiso   1.00
C1651  C     0.67005   0.91994   0.75008   0.00000  Uiso   1.00
C1652  C     0.89942   0.74663   0.88081   0.00000  Uiso   1.00
C1653  C     0.56766   0.71138   0.10300   0.00000  Uiso   1.00
C1654  C     0.59339   0.73205   0.12999   0.00000  Uiso   1.00
C1655  C     0.61897   0.70899   0.15497   0.00000  Uiso   1.00
C1656  C     0.61859   0.66520   0.15357   0.00000  Uiso   1.00
C1657  C     0.59256   0.64442   0.12735   0.00000  Uiso   1.00
C1658  C     0.56741   0.66740   0.10191   0.00000  Uiso   1.00
C1659  C     0.72404   0.92672   0.89482   0.00000  Uiso   1.00
C1660  C     0.68196   0.92140   0.88388   0.00000  Uiso   1.00
C1661  C     0.67027   0.88756   0.86053   0.00000  Uiso   1.00
C1662  C     0.82996   0.58005   0.24994   0.00000  Uiso   1.00
C1663  C     0.70057   0.85935   0.84739   0.00000  Uiso   1.00
C1664  C     0.74264   0.86504   0.85741   0.00000  Uiso   1.00
C1665  C     0.75442   0.89882   0.88077   0.00000  Uiso   1.00
C1666  C     0.76334   0.57576   0.10566   0.00000  Uiso   1.00
C1667  C     0.73094   0.59466   0.12704   0.00000  Uiso   1.00
C1668  C     0.74028   0.62406   0.15574   0.00000  Uiso   1.00
C1669  C     0.78196   0.63372   0.16427   0.00000  Uiso   1.00
C1670  C     0.81435   0.61440   0.14376   0.00000  Uiso   1.00
C1671  C     0.80514   0.58605   0.11409   0.00000  Uiso   1.00
C1672  C     0.57227   0.72286   0.89412   0.00000  Uiso   1.00
C1673  C     0.91996   0.82998   0.75005   0.00000  Uiso   1.00
C1674  C     0.57576   0.68143   0.88064   0.00000  Uiso   1.00
C1675  C     0.60826   0.67036   0.85552   0.00000  Uiso   1.00
C1676  C     0.63705   0.70064   0.84328   0.00000  Uiso   1.00
C1677  C     0.63314   0.74212   0.85583   0.00000  Uiso   1.00
C1678  C     0.60058   0.75337   0.88081   0.00000  Uiso   1.00
C1679  C     0.93234   0.78862   0.10300   0.00000  Uiso   1.00
C1680  C     0.90661   0.76795   0.12999   0.00000  Uiso   1.00
C1681  C     0.88103   0.79101   0.15497   0.00000  Uiso   1.00
C1682  C     0.88141   0.83480   0.15357   0.00000  Uiso   1.00
C1683  C     0.90744   0.85558   0.12735   0.00000  Uiso   1.00
C1684  C     0.75000   0.50000   0.64443   0.00000  Uiso   1.00
C1685  C     0.57993   0.66991   0.25012   0.00000  Uiso   1.00
C1686  C     0.93259   0.83260   0.10191   0.00000  Uiso   1.00
C1687  C     0.56930   0.65599   0.45780   0.00000  Uiso   1.00
C1688  C     0.54400   0.62564   0.43995   0.00000  Uiso   1.00
C1689  C     0.56233   0.59228   0.41994   0.00000  Uiso   1.00
C1690  C     0.60596   0.58870   0.41814   0.00000  Uiso   1.00
C1691  C     0.63136   0.61822   0.43669   0.00000  Uiso   1.00
C1692  C     0.61315   0.65188   0.45639   0.00000  Uiso   1.00
C1693  C     0.94451   0.85384   0.53681   0.00000  Uiso   1.00
C1694  C     0.90279   0.86582   0.54370   0.00000  Uiso   1.00
C1695  C     0.89359   0.90655   0.55587   0.00000  Uiso   1.00
C1696  C     0.82995   0.58006   0.75008   0.00000  Uiso   1.00
C1697  C     0.92590   0.93565   0.56101   0.00000  Uiso   1.00
C1698  C     0.96739   0.92411   0.55384   0.00000  Uiso   1.00
C1699  C     0.97669   0.88338   0.54162   0.00000  Uiso   1.00
C1700  C     0.85573   0.55171   0.46138   0.00000  Uiso   1.00
C1701  C     0.88325   0.51891   0.45219   0.00000  Uiso   1.00
C1702  C     0.92237   0.52756   0.43583   0.00000  Uiso   1.00
C1703  C     0.93440   0.56899   0.42884   0.00000  Uiso   1.00
C1704  C     0.90770   0.60195   0.43885   0.00000  Uiso   1.00
C1705  C     0.86855   0.59344   0.45523   0.00000  Uiso   1.00
C1706  C     0.65845   0.92362   0.53849   0.00000  Uiso   1.00
C1707  C     0.67004   0.91995   0.24994   0.00000  Uiso   1.00
C1708  C     0.67173   0.88198   0.54349   0.00000  Uiso   1.00
C1709  C     0.64414   0.85193   0.55841   0.00000  Uiso   1.00
C1710  C     0.60326   0.86329   0.56847   0.00000  Uiso   1.00
C1711  C     0.58979   0.90457   0.56319   0.00000  Uiso   1.00
C1712  C     0.61687   0.93445   0.54742   0.00000  Uiso   1.00
C1713  C     0.93069   0.84400   0.45780   0.00000  Uiso   1.00
C1714  C     0.95598   0.87435   0.43995   0.00000  Uiso   1.00
C1715  C     0.93764   0.90771   0.41994   0.00000  Uiso   1.00
C1716  C     0.89401   0.91128   0.41814   0.00000  Uiso   1.00
C1717  C     0.86862   0.88176   0.43670   0.00000  Uiso   1.00
C1718  C     0.58004   0.67002   0.75005   0.00000  Uiso   1.00
C1719  C     0.88684   0.84810   0.45640   0.00000  Uiso   1.00
C1720  C     0.55550   0.64616   0.53681   0.00000  Uiso   1.00
C1721  C     0.59723   0.63419   0.54369   0.00000  Uiso   1.00
C1722  C     0.60644   0.59346   0.55586   0.00000  Uiso   1.00
C1723  C     0.57414   0.56435   0.56099   0.00000  Uiso   1.00
C1724  C     0.53265   0.57588   0.55383   0.00000  Uiso   1.00
C1725  C     0.52333   0.61661   0.54163   0.00000  Uiso   1.00
C1726  C     0.64427   0.94830   0.46139   0.00000  Uiso   1.00
C1727  C     0.61674   0.98111   0.45224   0.00000  Uiso   1.00
C1728  C     0.57761   0.97247   0.43590   0.00000  Uiso   1.00
C1729  C     0.92007   0.83009   0.25012   0.00000  Uiso   1.00
C1730  C     0.56557   0.93105   0.42891   0.00000  Uiso   1.00
C1731  C     0.59227   0.89808   0.43888   0.00000  Uiso   1.00
C1732  C     0.63144   0.90658   0.45524   0.00000  Uiso   1.00
C1733  C     0.84158   0.57635   0.53849   0.00000  Uiso   1.00
C1734  C     0.82832   0.61800   0.54350   0.00000  Uiso   1.00
C1735  C     0.85592   0.64803   0.55843   0.00000  Uiso   1.00
C1736  C     0.89680   0.63666   0.56848   0.00000  Uiso   1.00
C1737  C     0.91025   0.59537   0.56319   0.00000  Uiso   1.00
C1738  C     0.88315   0.56551   0.54741   0.00000  Uiso   1.00
C1739  C     0.70493   0.89071   0.96912   0.00000  Uiso   1.00
C1740  C     0.63842   0.88824   0.24987   0.00000  Uiso   1.00
C1741  C     0.66138   0.89703   0.97062   0.00000  Uiso   1.00
C1742  C     0.63387   0.86375   0.96372   0.00000  Uiso   1.00
C1743  C     0.64961   0.82388   0.95565   0.00000  Uiso   1.00
C1744  C     0.69287   0.81723   0.95422   0.00000  Uiso   1.00
C1745  C     0.72045   0.85046   0.96119   0.00000  Uiso   1.00
C1746  C     0.72696   0.60950   0.03245   0.00000  Uiso   1.00
C1747  C     0.68357   0.60272   0.03445   0.00000  Uiso   1.00
C1748  C     0.65802   0.63176   0.05296   0.00000  Uiso   1.00
C1749  C     0.67602   0.66654   0.07094   0.00000  Uiso   1.00
C1750  C     0.71901   0.67383   0.06812   0.00000  Uiso   1.00
C1751  C     0.86159   0.61175   0.75015   0.00000  Uiso   1.00
C1752  C     0.74418   0.64602   0.04751   0.00000  Uiso   1.00
C1753  C     0.59962   0.69047   0.96921   0.00000  Uiso   1.00
C1754  C     0.58460   0.64971   0.97606   0.00000  Uiso   1.00
C1755  C     0.60793   0.61489   0.96444   0.00000  Uiso   1.00
C1756  C     0.64630   0.62047   0.94575   0.00000  Uiso   1.00
C1757  C     0.66143   0.66090   0.93871   0.00000  Uiso   1.00
C1758  C     0.63858   0.69581   0.95094   0.00000  Uiso   1.00
C1759  C     0.89079   0.73708   0.03566   0.00000  Uiso   1.00
C1760  C     0.90010   0.69961   0.05574   0.00000  Uiso   1.00
C1761  C     0.86967   0.67991   0.07807   0.00000  Uiso   1.00
C1762  C     0.61151   0.63816   0.25031   0.00000  Uiso   1.00
C1763  C     0.82934   0.69631   0.07927   0.00000  Uiso   1.00
C1764  C     0.81827   0.72901   0.05461   0.00000  Uiso   1.00
C1765  C     0.84888   0.74958   0.03299   0.00000  Uiso   1.00
C1766  C     0.79507   0.60929   0.96912   0.00000  Uiso   1.00
C1767  C     0.83862   0.60297   0.97062   0.00000  Uiso   1.00
C1768  C     0.86613   0.63626   0.96372   0.00000  Uiso   1.00
C1769  C     0.85039   0.67612   0.95565   0.00000  Uiso   1.00
C1770  C     0.80713   0.68277   0.95422   0.00000  Uiso   1.00
C1771  C     0.77955   0.64954   0.96119   0.00000  Uiso   1.00
C1772  C     0.77304   0.89049   0.03244   0.00000  Uiso   1.00
C1773  C     0.88826   0.86161   0.75013   0.00000  Uiso   1.00
C1774  C     0.81643   0.89728   0.03445   0.00000  Uiso   1.00
C1775  C     0.84198   0.86824   0.05296   0.00000  Uiso   1.00
C1776  C     0.82398   0.83346   0.07095   0.00000  Uiso   1.00
C1777  C     0.78099   0.82617   0.06812   0.00000  Uiso   1.00
C1778  C     0.75582   0.85398   0.04751   0.00000  Uiso   1.00
C1779  C     0.90038   0.80953   0.96921   0.00000  Uiso   1.00
C1780  C     0.91540   0.85029   0.97606   0.00000  Uiso   1.00
C1781  C     0.89207   0.88511   0.96444   0.00000  Uiso   1.00
C1782  C     0.85370   0.87953   0.94575   0.00000  Uiso   1.00
C1783  C     0.83857   0.83910   0.93871   0.00000  Uiso   1.00
C1784  C     0.86158   0.61176   0.24987   0.00000  Uiso   1.00
C1785  C     0.86142   0.80419   0.95094   0.00000  Uiso   1.00
C1786  C     0.60921   0.76292   0.03566   0.00000  Uiso   1.00
C1787  C     0.59990   0.80039   0.05574   0.00000  Uiso   1.00
C1788  C     0.63033   0.82009   0.07807   0.00000  Uiso   1.00
C1789  C     0.67066   0.80369   0.07927   0.00000  Uiso   1.00
C1790  C     0.68173   0.77099   0.05460   0.00000  Uiso   1.00
C1791  C     0.65112   0.75042   0.03299   0.00000  Uiso   1.00
C1792  C     0.50000   0.75000   0.35597   0.00000  Uiso   1.00
C1793  C     0.63841   0.88825   0.75015   0.00000  Uiso   1.00
C1794  C     0.88849   0.86184   0.25031   0.00000  Uiso   1.00
C1795  C     0.61174   0.63839   0.75013   0.00000  Uiso   1.00
C1796  C     0.63838   0.61175   0.75012   0.00000  Uiso   1.00
C1797  C     0.86181   0.88845   0.25026   0.00000  Uiso   1.00
C1798  C     0.61175   0.86161   0.75011   0.00000  Uiso   1.00
C1799  C     0.88824   0.63840   0.24988   0.00000  Uiso   1.00
C1800  C     0.86162   0.88825   0.75012   0.00000  Uiso   1.00
C1801  C     0.63819   0.61155   0.25026   0.00000  Uiso   1.00
C1802  C     0.88825   0.63839   0.75011   0.00000  Uiso   1.00
C1803  C     0.50000   0.75000   0.64420   0.00000  Uiso   1.00
C1804  C     0.61176   0.86160   0.24988   0.00000  Uiso   1.00
C1805  C     0.96722   0.76991   0.41911   0.00000  Uiso   1.00
C1806  C     0.52604   0.72168   0.58178   0.00000  Uiso   1.00
C1807  C     0.72162   0.97424   0.41861   0.00000  Uiso   1.00
C1808  C     0.78260   0.52036   0.58275   0.00000  Uiso   1.00
C1809  C     0.53278   0.73008   0.41910   0.00000  Uiso   1.00
C1810  C     0.97396   0.77832   0.58178   0.00000  Uiso   1.00
C1811  C     0.77837   0.52577   0.41861   0.00000  Uiso   1.00
C1812  C     0.71741   0.97964   0.58275   0.00000  Uiso   1.00
C1813  C     0.76330   0.53623   0.91816   0.00000  Uiso   1.00
C1814  C     0.50000   0.75000   0.85573   0.00000  Uiso   1.00
C1815  C     0.74575   0.96206   0.08198   0.00000  Uiso   1.00
C1816  C     0.96438   0.76459   0.91792   0.00000  Uiso   1.00
C1817  C     0.53485   0.73459   0.08133   0.00000  Uiso   1.00
C1818  C     0.73670   0.96377   0.91816   0.00000  Uiso   1.00
C1819  C     0.75426   0.53794   0.08198   0.00000  Uiso   1.00
C1820  C     0.53562   0.73541   0.91792   0.00000  Uiso   1.00
C1821  C     0.96515   0.76541   0.08133   0.00000  Uiso   1.00
C1822  C     0.50000   0.75000   0.39852   0.00000  Uiso   1.00
C1823  C     0.50000   0.75000   0.60177   0.00000  Uiso   1.00
C1824  C     0.75000   0.50000   0.39845   0.00000  Uiso   1.00
C1825  C     0.50000   0.75000   0.14413   0.00000  Uiso   1.00
C1826  C     0.75000   0.50000   0.60230   0.00000  Uiso   1.00
C1827  C     0.75000   0.50000   0.89826   0.00000  Uiso   1.00
C1828  C     0.75000   0.50000   0.10187   0.00000  Uiso   1.00
C1829  C     0.50000   0.75000   0.89814   0.00000  Uiso   1.00
C1830  C     0.50000   0.75000   0.10161   0.00000  Uiso   1.00
C1831  C     0.52812   0.72381   0.45933   0.00000  Uiso   1.00
C1832  C     0.97577   0.78041   0.54090   0.00000  Uiso   1.00
C1833  C     0.78156   0.52240   0.45944   0.00000  Uiso   1.00
C1834  C     0.71813   0.97735   0.54172   0.00000  Uiso   1.00
C1835  C     0.97188   0.77618   0.45933   0.00000  Uiso   1.00
C1836  C     0.75000   0.50000   0.85580   0.00000  Uiso   1.00
C1837  C     0.52423   0.71958   0.54090   0.00000  Uiso   1.00
C1838  C     0.71844   0.97760   0.45944   0.00000  Uiso   1.00
C1839  C     0.78189   0.52264   0.54172   0.00000  Uiso   1.00
C1840  C     0.73891   0.96269   0.95914   0.00000  Uiso   1.00
C1841  C     0.75332   0.53805   0.04093   0.00000  Uiso   1.00
C1842  C     0.53660   0.73664   0.95895   0.00000  Uiso   1.00
C1843  C     0.96374   0.76128   0.04053   0.00000  Uiso   1.00
C1844  C     0.76109   0.53731   0.95914   0.00000  Uiso   1.00
C1845  C     0.74668   0.96195   0.04093   0.00000  Uiso   1.00
C1846  C     0.96340   0.76336   0.95895   0.00000  Uiso   1.00
C1847  C     0.75000   0.50000   0.14429   0.00000  Uiso   1.00
C1848  C     0.53626   0.73872   0.04053   0.00000  Uiso   1.00
C1849  C     0.50000   0.75000   0.47982   0.00000  Uiso   1.00
C1850  C     0.50000   0.75000   0.52063   0.00000  Uiso   1.00
C1851  C     0.75000   0.50000   0.48007   0.00000  Uiso   1.00
C1852  C     0.75000   0.50000   0.52121   0.00000  Uiso   1.00
C1853  C     0.75000   0.50000   0.97935   0.00000  Uiso   1.00
C1854  C     0.75000   0.50000   0.02047   0.00000  Uiso   1.00
C1855  C     0.50000   0.75000   0.97911   0.00000  Uiso   1.00
C1856  C     0.50000   0.75000   0.02004   0.00000  Uiso   1.00
C1857  C     0.54948   0.69133   0.47920   0.00000  Uiso   1.00
C1858  C     0.66996   0.57999   0.25005   0.00000  Uiso   1.00
C1859  C     0.95466   0.81229   0.51954   0.00000  Uiso   1.00
C1860  C     0.81483   0.54167   0.48014   0.00000  Uiso   1.00
C1861  C     0.68724   0.95468   0.52046   0.00000  Uiso   1.00
C1862  C     0.95052   0.80866   0.47920   0.00000  Uiso   1.00
C1863  C     0.54534   0.68770   0.51954   0.00000  Uiso   1.00
C1864  C     0.68518   0.95833   0.48014   0.00000  Uiso   1.00
C1865  C     0.81277   0.54531   0.52046   0.00000  Uiso   1.00
C1866  C     0.73315   0.92529   0.98099   0.00000  Uiso   1.00
C1867  C     0.75427   0.57531   0.01964   0.00000  Uiso   1.00
C1868  C     0.57323   0.72654   0.98074   0.00000  Uiso   1.00
H1869  H     0.94988   0.83210   0.36615   0.00000  Uiso   1.00
H1870  H     0.51051   0.65261   0.62622   0.00000  Uiso   1.00
H1871  H     0.60585   0.96613   0.54274   0.00000  Uiso   1.00
H1872  H     0.98976   0.87167   0.44122   0.00000  Uiso   1.00
H1873  H     0.95724   0.93056   0.40553   0.00000  Uiso   1.00
H1874  H     0.87987   0.93689   0.40231   0.00000  Uiso   1.00
H1875  H     0.83485   0.88464   0.43538   0.00000  Uiso   1.00
H1876  H     0.86692   0.82499   0.47014   0.00000  Uiso   1.00
H1877  H     0.62254   0.65631   0.53934   0.00000  Uiso   1.00
H1878  H     0.63866   0.58447   0.56092   0.00000  Uiso   1.00
H1879  H     0.58118   0.53275   0.57016   0.00000  Uiso   1.00
H1880  H     0.50785   0.55300   0.55720   0.00000  Uiso   1.00
H1881  H     0.65514   0.98520   0.36963   0.00000  Uiso   1.00
H1882  H     0.99131   0.62503   0.53491   0.00000  Uiso   1.00
H1883  H     0.62561   0.51324   0.45809   0.00000  Uiso   1.00
H1884  H     0.55655   0.99783   0.42871   0.00000  Uiso   1.00
H1885  H     0.53554   0.92458   0.41573   0.00000  Uiso   1.00
H1886  H     0.58275   0.86598   0.43371   0.00000  Uiso   1.00
H1887  H     0.65194   0.88080   0.46270   0.00000  Uiso   1.00
H1888  H     0.79672   0.62711   0.53575   0.00000  Uiso   1.00
H1889  H     0.84557   0.68005   0.56238   0.00000  Uiso   1.00
H1890  H     0.91801   0.65978   0.58046   0.00000  Uiso   1.00
H1891  H     0.94152   0.58634   0.57167   0.00000  Uiso   1.00
H1892  H     0.61732   0.93043   0.33295   0.00000  Uiso   1.00
H1893  H     0.89416   0.53383   0.54273   0.00000  Uiso   1.00
H1894  H     0.64882   0.92763   0.97770   0.00000  Uiso   1.00
H1895  H     0.60035   0.86872   0.96516   0.00000  Uiso   1.00
H1896  H     0.62820   0.79809   0.95119   0.00000  Uiso   1.00
H1897  H     0.70505   0.78619   0.94847   0.00000  Uiso   1.00
H1898  H     0.75372   0.84465   0.96163   0.00000  Uiso   1.00
H1899  H     0.66985   0.57440   0.02262   0.00000  Uiso   1.00
H1900  H     0.62460   0.62655   0.05415   0.00000  Uiso   1.00
H1901  H     0.65669   0.68849   0.08635   0.00000  Uiso   1.00
H1902  H     0.73279   0.70023   0.08290   0.00000  Uiso   1.00
H1903  H     0.63875   0.85595   0.33840   0.00000  Uiso   1.00
H1904  H     0.77740   0.65062   0.04519   0.00000  Uiso   1.00
H1905  H     0.55471   0.64498   0.99026   0.00000  Uiso   1.00
H1906  H     0.59625   0.58358   0.96990   0.00000  Uiso   1.00
H1907  H     0.66419   0.59336   0.93686   0.00000  Uiso   1.00
H1908  H     0.69035   0.66534   0.92301   0.00000  Uiso   1.00
H1909  H     0.65068   0.72686   0.94524   0.00000  Uiso   1.00
H1910  H     0.93162   0.68704   0.05623   0.00000  Uiso   1.00
H1911  H     0.87787   0.65284   0.09524   0.00000  Uiso   1.00
H1912  H     0.80615   0.68270   0.09815   0.00000  Uiso   1.00
H1913  H     0.78616   0.73924   0.05300   0.00000  Uiso   1.00
H1914  H     0.69853   0.83620   0.38035   0.00000  Uiso   1.00
H1915  H     0.83985   0.77673   0.01667   0.00000  Uiso   1.00
H1916  H     0.85118   0.57237   0.97770   0.00000  Uiso   1.00
H1917  H     0.89965   0.63129   0.96516   0.00000  Uiso   1.00
H1918  H     0.87180   0.70192   0.95119   0.00000  Uiso   1.00
H1919  H     0.79495   0.71381   0.94847   0.00000  Uiso   1.00
H1920  H     0.74628   0.65534   0.96163   0.00000  Uiso   1.00
H1921  H     0.83015   0.92560   0.02262   0.00000  Uiso   1.00
H1922  H     0.87540   0.87345   0.05415   0.00000  Uiso   1.00
H1923  H     0.84330   0.81151   0.08636   0.00000  Uiso   1.00
H1924  H     0.76721   0.79977   0.08290   0.00000  Uiso   1.00
H1925  H     0.73654   0.89052   0.41747   0.00000  Uiso   1.00
H1926  H     0.72260   0.84938   0.04519   0.00000  Uiso   1.00
H1927  H     0.94530   0.85502   0.99027   0.00000  Uiso   1.00
H1928  H     0.90376   0.91642   0.96990   0.00000  Uiso   1.00
H1929  H     0.83582   0.90664   0.93686   0.00000  Uiso   1.00
H1930  H     0.80965   0.83466   0.92301   0.00000  Uiso   1.00
H1931  H     0.84932   0.77314   0.94525   0.00000  Uiso   1.00
H1932  H     0.56838   0.81296   0.05623   0.00000  Uiso   1.00
H1933  H     0.62213   0.84716   0.09524   0.00000  Uiso   1.00
H1934  H     0.69385   0.81730   0.09815   0.00000  Uiso   1.00
H1935  H     0.71384   0.76076   0.05300   0.00000  Uiso   1.00
H1936  H     0.79469   0.59589   0.61882   0.00000  Uiso   1.00
H1937  H     0.66016   0.72327   0.01667   0.00000  Uiso   1.00
H1938  H     0.85372   0.61608   0.66118   0.00000  Uiso   1.00
H1939  H     0.91057   0.56534   0.67509   0.00000  Uiso   1.00
H1940  H     0.90824   0.99402   0.64654   0.00000  Uiso   1.00
H1941  H     0.88131   0.84808   0.33645   0.00000  Uiso   1.00
H1942  H     0.84952   0.97362   0.60386   0.00000  Uiso   1.00
H1943  H     0.55010   0.66789   0.36614   0.00000  Uiso   1.00
H1944  H     0.61867   0.65190   0.33644   0.00000  Uiso   1.00
H1945  H     0.68101   0.69498   0.35231   0.00000  Uiso   1.00
H1946  H     0.67491   0.75399   0.39861   0.00000  Uiso   1.00
H1947  H     0.60684   0.76997   0.42924   0.00000  Uiso   1.00
H1948  H     0.89027   0.76480   0.58885   0.00000  Uiso   1.00
H1949  H     0.83933   0.80642   0.62666   0.00000  Uiso   1.00
H1950  H     0.86296   0.86877   0.66346   0.00000  Uiso   1.00
H1951  H     0.93806   0.88885   0.66361   0.00000  Uiso   1.00
H1952  H     0.81897   0.80498   0.35232   0.00000  Uiso   1.00
H1953  H     0.98951   0.84739   0.62621   0.00000  Uiso   1.00
H1954  H     0.84485   0.51483   0.36961   0.00000  Uiso   1.00
H1955  H     0.88265   0.56963   0.33294   0.00000  Uiso   1.00
H1956  H     0.86120   0.64410   0.33841   0.00000  Uiso   1.00
H1957  H     0.80143   0.66382   0.38038   0.00000  Uiso   1.00
H1958  H     0.76344   0.60949   0.41750   0.00000  Uiso   1.00
H1959  H     0.70531   0.90410   0.61882   0.00000  Uiso   1.00
H1960  H     0.64628   0.88391   0.66117   0.00000  Uiso   1.00
H1961  H     0.58943   0.93466   0.67509   0.00000  Uiso   1.00
H1962  H     0.59177   0.50597   0.64653   0.00000  Uiso   1.00
H1963  H     0.82508   0.74598   0.39862   0.00000  Uiso   1.00
H1964  H     0.65049   0.52638   0.60386   0.00000  Uiso   1.00
H1965  H     0.84167   0.55663   0.89358   0.00000  Uiso   1.00
H1966  H     0.86224   0.61665   0.85244   0.00000  Uiso   1.00
H1967  H     0.80847   0.66663   0.82908   0.00000  Uiso   1.00
H1968  H     0.73383   0.65651   0.84682   0.00000  Uiso   1.00
H1969  H     0.71285   0.59644   0.88744   0.00000  Uiso   1.00
H1970  H     0.80138   0.91429   0.12214   0.00000  Uiso   1.00
H1971  H     0.78472   0.86146   0.17207   0.00000  Uiso   1.00
H1972  H     0.71078   0.84419   0.18706   0.00000  Uiso   1.00
H1973  H     0.65339   0.87882   0.15114   0.00000  Uiso   1.00
H1974  H     0.89317   0.73001   0.42925   0.00000  Uiso   1.00
H1975  H     0.66947   0.92959   0.09915   0.00000  Uiso   1.00
H1976  H     0.94670   0.84213   0.88959   0.00000  Uiso   1.00
H1977  H     0.88892   0.86165   0.84548   0.00000  Uiso   1.00
H1978  H     0.83786   0.80796   0.82380   0.00000  Uiso   1.00
H1979  H     0.84490   0.73436   0.84591   0.00000  Uiso   1.00
H1980  H     0.90295   0.71419   0.88937   0.00000  Uiso   1.00
H1981  H     0.59250   0.76583   0.13262   0.00000  Uiso   1.00
H1982  H     0.63872   0.72503   0.17567   0.00000  Uiso   1.00
H1983  H     0.63853   0.64734   0.17266   0.00000  Uiso   1.00
H1984  H     0.59209   0.61050   0.12653   0.00000  Uiso   1.00
H1985  H     0.60973   0.73522   0.58883   0.00000  Uiso   1.00
H1986  H     0.54676   0.65093   0.08222   0.00000  Uiso   1.00
H1987  H     0.65833   0.94337   0.89357   0.00000  Uiso   1.00
H1988  H     0.63776   0.88335   0.85244   0.00000  Uiso   1.00
H1989  H     0.69153   0.83337   0.82908   0.00000  Uiso   1.00
H1990  H     0.76617   0.84349   0.84682   0.00000  Uiso   1.00
H1991  H     0.78715   0.90356   0.88744   0.00000  Uiso   1.00
H1992  H     0.69862   0.58571   0.12214   0.00000  Uiso   1.00
H1993  H     0.71527   0.63854   0.17207   0.00000  Uiso   1.00
H1994  H     0.78921   0.65581   0.18706   0.00000  Uiso   1.00
H1995  H     0.84661   0.62118   0.15114   0.00000  Uiso   1.00
H1996  H     0.66069   0.69361   0.62664   0.00000  Uiso   1.00
H1997  H     0.83053   0.57041   0.09915   0.00000  Uiso   1.00
H1998  H     0.55330   0.65787   0.88959   0.00000  Uiso   1.00
H1999  H     0.61108   0.63835   0.84548   0.00000  Uiso   1.00
H2000  H     0.66214   0.69204   0.82379   0.00000  Uiso   1.00
H2001  H     0.65510   0.76564   0.84590   0.00000  Uiso   1.00
H2002  H     0.59705   0.78582   0.88937   0.00000  Uiso   1.00
H2003  H     0.90750   0.73417   0.13263   0.00000  Uiso   1.00
H2004  H     0.86128   0.77497   0.17567   0.00000  Uiso   1.00
H2005  H     0.86146   0.85266   0.17266   0.00000  Uiso   1.00
H2006  H     0.90790   0.88949   0.12653   0.00000  Uiso   1.00
H2007  H     0.63707   0.63126   0.66345   0.00000  Uiso   1.00
H2008  H     0.95324   0.84907   0.08222   0.00000  Uiso   1.00
H2009  H     0.51022   0.62832   0.44123   0.00000  Uiso   1.00
H2010  H     0.54273   0.56943   0.40553   0.00000  Uiso   1.00
H2011  H     0.62010   0.56309   0.40230   0.00000  Uiso   1.00
H2012  H     0.66513   0.61534   0.43536   0.00000  Uiso   1.00
H2013  H     0.63307   0.67499   0.47013   0.00000  Uiso   1.00
H2014  H     0.87746   0.84371   0.53935   0.00000  Uiso   1.00
H2015  H     0.86137   0.91555   0.56094   0.00000  Uiso   1.00
H2016  H     0.91887   0.96725   0.57019   0.00000  Uiso   1.00
H2017  H     0.99219   0.94698   0.55720   0.00000  Uiso   1.00
H2018  H     0.56198   0.61117   0.66362   0.00000  Uiso   1.00
H2019  H     0.50871   0.87495   0.53490   0.00000  Uiso   1.00
H2020  H     0.87439   0.98678   0.45803   0.00000  Uiso   1.00
H2021  H     0.94342   0.50221   0.42861   0.00000  Uiso   1.00
H2022  H     0.96441   0.57547   0.41565   0.00000  Uiso   1.00
H2023  H     0.91722   0.63406   0.43369   0.00000  Uiso   1.00
H2024  H     0.84805   0.61921   0.46271   0.00000  Uiso   1.00
H2025  H     0.70333   0.87289   0.53573   0.00000  Uiso   1.00
H2026  H     0.65451   0.81992   0.56236   0.00000  Uiso   1.00
H2027  H     0.58206   0.84015   0.58045   0.00000  Uiso   1.00
H2028  H     0.55851   0.91358   0.57168   0.00000  Uiso   1.00
O2029  O     0.75000   0.50000   0.25000   0.00000  Uiso   1.00
O2030  O     0.75000   0.96539   0.66251   0.00000  Uiso   1.00
O2031  O     0.96539   0.75000   0.33749   0.00000  Uiso   1.00
O2032  O     0.53462   0.75000   0.66251   0.00000  Uiso   1.00
O2033  O     0.50000   0.71539   0.83749   0.00000  Uiso   1.00
O2034  O     0.50000   0.78462   0.16251   0.00000  Uiso   1.00
O2035  O     0.78462   0.50000   0.83749   0.00000  Uiso   1.00
O2036  O     0.71539   0.50000   0.16251   0.00000  Uiso   1.00
O2037  O     0.50000   0.78462   0.83749   0.00000  Uiso   1.00
O2038  O     0.50000   0.71539   0.16251   0.00000  Uiso   1.00
O2039  O     0.71539   0.50000   0.83749   0.00000  Uiso   1.00
O2040  O     0.75000   0.50000   0.75000   0.00000  Uiso   1.00
O2041  O     0.78462   0.50000   0.16251   0.00000  Uiso   1.00
O2042  O     0.70127   0.58332   0.27298   0.00000  Uiso   1.00
O2043  O     0.79874   0.91668   0.72702   0.00000  Uiso   1.00
O2044  O     0.91668   0.70127   0.27298   0.00000  Uiso   1.00
O2045  O     0.58332   0.79874   0.72702   0.00000  Uiso   1.00
O2046  O     0.79874   0.91668   0.27298   0.00000  Uiso   1.00
O2047  O     0.70127   0.58332   0.72702   0.00000  Uiso   1.00
O2048  O     0.58332   0.79874   0.27298   0.00000  Uiso   1.00
O2049  O     0.91668   0.70127   0.72702   0.00000  Uiso   1.00
O2050  O     0.70127   0.91668   0.72702   0.00000  Uiso   1.00
O2051  O     0.50000   0.75000   0.25000   0.00000  Uiso   1.00
O2052  O     0.79874   0.58332   0.27298   0.00000  Uiso   1.00
O2053  O     0.91668   0.79874   0.72702   0.00000  Uiso   1.00
O2054  O     0.58332   0.70127   0.27298   0.00000  Uiso   1.00
O2055  O     0.79874   0.58332   0.72702   0.00000  Uiso   1.00
O2056  O     0.70127   0.91668   0.27298   0.00000  Uiso   1.00
O2057  O     0.58332   0.70127   0.72702   0.00000  Uiso   1.00
O2058  O     0.91668   0.79874   0.27298   0.00000  Uiso   1.00
O2059  O     0.95127   0.83332   0.77298   0.00000  Uiso   1.00
O2060  O     0.54874   0.66668   0.22702   0.00000  Uiso   1.00
O2061  O     0.66668   0.95127   0.77298   0.00000  Uiso   1.00
O2062  O     0.50000   0.75000   0.75000   0.00000  Uiso   1.00
O2063  O     0.83332   0.54874   0.22702   0.00000  Uiso   1.00
O2064  O     0.54874   0.66668   0.77298   0.00000  Uiso   1.00
O2065  O     0.95127   0.83332   0.22702   0.00000  Uiso   1.00
O2066  O     0.83332   0.54874   0.77298   0.00000  Uiso   1.00
O2067  O     0.66668   0.95127   0.22702   0.00000  Uiso   1.00
O2068  O     0.95127   0.66668   0.22702   0.00000  Uiso   1.00
O2069  O     0.54874   0.83332   0.77298   0.00000  Uiso   1.00
O2070  O     0.66668   0.54874   0.22702   0.00000  Uiso   1.00
O2071  O     0.83332   0.95127   0.77298   0.00000  Uiso   1.00
O2072  O     0.54874   0.83332   0.22702   0.00000  Uiso   1.00
O2073  O     0.75000   0.96539   0.33749   0.00000  Uiso   1.00
O2074  O     0.95127   0.66668   0.77298   0.00000  Uiso   1.00
O2075  O     0.83332   0.95127   0.22702   0.00000  Uiso   1.00
O2076  O     0.66668   0.54874   0.77298   0.00000  Uiso   1.00
O2077  O     0.75000   0.53462   0.66251   0.00000  Uiso   1.00
O2078  O     0.53462   0.75000   0.33749   0.00000  Uiso   1.00
O2079  O     0.96539   0.75000   0.66251   0.00000  Uiso   1.00
O2080  O     0.75000   0.53462   0.33749   0.00000  Uiso   1.00
Zn2081 Zn    0.70053   0.50000   0.21730   0.00000  Uiso   1.00
Zn2082 Zn    0.54948   0.75000   0.28270   0.00000  Uiso   1.00
Zn2083 Zn    0.75000   0.95053   0.71730   0.00000  Uiso   1.00
Zn2084 Zn    0.75000   0.54948   0.28270   0.00000  Uiso   1.00
Zn2085 Zn    0.54948   0.75000   0.71730   0.00000  Uiso   1.00
Zn2086 Zn    0.95053   0.75000   0.28270   0.00000  Uiso   1.00
Zn2087 Zn    0.75000   0.54948   0.71730   0.00000  Uiso   1.00
Zn2088 Zn    0.75000   0.95053   0.28270   0.00000  Uiso   1.00
Zn2089 Zn    0.79948   0.50000   0.78270   0.00000  Uiso   1.00
Zn2090 Zn    0.50000   0.70053   0.21730   0.00000  Uiso   1.00
Zn2091 Zn    0.50000   0.79948   0.78270   0.00000  Uiso   1.00
Zn2092 Zn    0.79948   0.50000   0.21730   0.00000  Uiso   1.00
Zn2093 Zn    0.70053   0.50000   0.78270   0.00000  Uiso   1.00
Zn2094 Zn    0.50000   0.79948   0.21730   0.00000  Uiso   1.00
Zn2095 Zn    0.50000   0.70053   0.78270   0.00000  Uiso   1.00
Zn2096 Zn    0.95053   0.75000   0.71730   0.00000  Uiso   1.00
loop_
_geom_bond_atom_site_label_1
_geom_bond_atom_site_label_2
_geom_bond_distance
_geom_bond_site_symmetry_2
_ccdc_geom_bond_type
C1     C252    1.473   .     S
C1     O508    1.274   .     A
C1     O1549   1.274   1_545 S
C2     C228    1.429   .     S
C2     O499    1.280   .     A
C2     O471    1.280   .     A
C3     C187    1.490   .     S
C3     C271    1.402   .     A
C3     C6      1.405   1_554 S
C4     C272    1.424   .     A
C4     C194    1.481   .     S
C4     C295    1.397   1_556 S
C5     C200    1.465   .     S
C5     C273    1.398   .     A
C5     C294    1.397   1_554 S
C6     C274    1.428   .     A
C6     C207    1.481   .     S
C6     C3      1.405   1_556 S
C7     C276    1.402   .     A
C7     C214    1.490   .     S
C7     C296    1.405   1_554 S
C8     C233    1.492   .     S
C8     C9      1.409   .     A
C8     C14     1.405   .     A
C9     C10     1.398   .     A
C9     H297    1.083   .     S
C10    C11     1.397   .     A
C10    H369    1.082   .     S
C11    H380    1.082   .     S
C11    C12     1.398   .     A
C12    H391    1.082   .     S
C12    C14     1.398   .     A
C13    C227    1.428   .     S
C13    O472    1.280   .     A
C13    O496    1.280   .     A
C14    H402    1.083   .     S
C15    C20     1.406   .     A
C15    C16     1.404   .     A
C15    C234    1.488   .     S
C16    H413    1.083   .     S
C16    C17     1.399   .     A
C17    C18     1.398   .     A
C17    H424    1.082   .     S
C18    H435    1.082   .     S
C18    C19     1.398   .     A
C19    C20     1.398   .     A
C19    H446    1.082   .     S
C20    H298    1.083   .     S
C21    C22     1.407   .     A
C21    C27     1.405   .     A
C21    C235    1.489   .     S
C22    C23     1.398   .     A
C22    H309    1.083   .     S
C23    H320    1.082   .     S
C23    C25     1.398   .     A
C24    O497    1.280   .     A
C24    C226    1.428   .     S
C24    O473    1.280   .     A
C25    C26     1.398   .     A
C25    H331    1.082   .     S
C26    H342    1.082   .     S
C26    C27     1.399   .     A
C27    H353    1.083   .     S
C28    C33     1.403   .     A
C28    C236    1.491   .     S
C28    C29     1.407   .     A
C29    C30     1.398   .     A
C29    H364    1.083   .     S
C30    C31     1.398   .     A
C30    H366    1.082   .     S
C31    H367    1.082   .     S
C31    C32     1.398   .     A
C32    C33     1.398   .     A
C32    H1416   1.082   1_545 S
C33    H1418   1.081   1_545 S
C34    C36     1.409   .     A
C34    C40     1.405   .     A
C34    C237    1.492   .     S
C35    C225    1.429   .     S
C35    O474    1.280   .     A
C35    O503    1.280   .     A
C36    C37     1.398   .     A
C36    H371    1.083   .     S
C37    C38     1.397   .     A
C37    H372    1.082   .     S
C38    C39     1.398   .     A
C38    H373    1.082   .     S
C39    C40     1.398   .     A
C39    H374    1.082   .     S
C40    H375    1.083   .     S
C41    C238    1.488   .     S
C41    C47     1.406   .     A
C41    C42     1.404   .     A
C42    C43     1.399   .     A
C42    H376    1.083   .     S
C43    C44     1.398   .     A
C43    H377    1.082   .     S
C44    C45     1.398   .     A
C44    H378    1.082   .     S
C45    C47     1.398   .     A
C45    H379    1.082   .     S
C46    C224    1.429   .     S
C46    O475    1.280   .     A
C46    O504    1.280   .     A
C47    H381    1.083   .     S
C48    C239    1.489   .     S
C48    C53     1.405   .     A
C48    C49     1.407   .     A
C49    C50     1.398   .     A
C49    H382    1.083   .     S
C50    H383    1.082   .     S
C50    C51     1.398   .     A
C51    C52     1.398   .     A
C51    H384    1.082   .     S
C52    C53     1.399   .     A
C52    H385    1.082   .     S
C53    H386    1.083   .     S
C54    C55     1.407   .     A
C54    C60     1.403   .     A
C54    C240    1.491   .     S
C55    C56     1.398   .     A
C55    H387    1.083   .     S
C56    H388    1.082   .     S
C56    C58     1.398   .     A
C57    C232    1.428   .     S
C57    O476    1.280   .     A
C57    O500    1.280   .     A
C58    C59     1.398   .     A
C58    H389    1.082   .     S
C59    C60     1.398   .     A
C59    H1438   1.082   .     S
C60    H1440   1.081   .     S
C61    C241    1.487   .     S
C61    C62     1.405   .     A
C61    C66     1.403   .     A
C62    H393    1.083   .     S
C62    C63     1.398   .     A
C63    C64     1.398   .     A
C63    H394    1.082   .     S
C64    H395    1.082   .     S
C64    C65     1.398   .     A
C65    H396    1.082   .     S
C65    C66     1.398   .     A
C66    H397    1.080   .     S
C67    C69     1.407   .     A
C67    C73     1.404   .     A
C67    C243    1.486   .     S
C68    O477    1.280   .     A
C68    C230    1.428   .     S
C68    O502    1.280   .     A
C69    C70     1.398   .     A
C69    H398    1.083   .     S
C70    C71     1.396   .     A
C70    H399    1.081   .     S
C71    H400    1.082   .     S
C71    C72     1.397   .     A
C72    C73     1.399   .     A
C72    H401    1.082   .     S
C73    H403    1.083   .     S
C74    C244    1.485   .     S
C74    C80     1.404   .     A
C74    C75     1.406   .     A
C75    H404    1.083   .     S
C75    C76     1.398   .     A
C76    H405    1.082   .     S
C76    C77     1.398   .     A
C77    C78     1.398   .     A
C77    H406    1.082   .     S
C78    C80     1.398   .     A
C78    H407    1.082   .     S
C79    O489    1.280   .     A
C79    C221    1.428   .     S
C79    O478    1.280   .     A
C80    H408    1.082   .     S
C81    C86     1.403   .     A
C81    C82     1.407   .     A
C81    C245    1.486   .     S
C82    H409    1.082   .     S
C82    C83     1.398   .     A
C83    C84     1.398   .     A
C83    H410    1.082   .     S
C84    H411    1.080   .     S
C84    C85     1.397   .     A
C85    C86     1.399   .     A
C85    H412    1.082   .     S
C86    H414    1.083   .     S
C87    C93     1.403   .     A
C87    C88     1.405   .     A
C87    C246    1.487   .     S
C88    C89     1.398   .     A
C88    H415    1.083   .     S
C89    C91     1.398   .     A
C89    H416    1.082   .     S
C90    C212    1.428   .     S
C90    O480    1.280   .     A
C90    O491    1.280   .     A
C91    H417    1.082   .     S
C91    C92     1.398   .     A
C92    H418    1.082   .     S
C92    C93     1.398   .     A
C93    H419    1.080   .     S
C94    C247    1.486   .     S
C94    C95     1.407   .     A
C94    C99     1.404   .     A
C95    C96     1.398   .     A
C95    H420    1.083   .     S
C96    H421    1.081   .     S
C96    C97     1.396   .     A
C97    C98     1.397   .     A
C97    H422    1.082   .     S
C98    C99     1.399   .     A
C98    H423    1.082   .     S
C99    H425    1.083   .     S
C100   C106    1.404   .     A
C100   C248    1.485   .     S
C100   C102    1.406   .     A
C101   C201    1.429   .     S
C101   O481    1.280   .     A
C101   O487    1.280   .     A
C102   H426    1.083   .     S
C102   C103    1.398   .     A
C103   H427    1.082   .     S
C103   C104    1.398   .     A
C104   C105    1.398   .     A
C104   H428    1.082   .     S
C105   C106    1.398   .     A
C105   H429    1.082   .     S
C106   H430    1.082   .     S
C107   C108    1.407   .     A
C107   C114    1.403   .     A
C107   C249    1.486   .     S
C108   C109    1.398   .     A
C108   H431    1.082   .     S
C109   H432    1.082   .     S
C109   C110    1.398   .     A
C110   C111    1.397   .     A
C110   H433    1.080   .     S
C111   H434    1.082   .     S
C111   C114    1.399   .     A
C112   C254    1.458   .     S
C112   O1506   1.269   1_545 A
C112   O505    1.269   .     S
C113   O482    1.280   .     A
C113   O488    1.281   .     A
C113   C190    1.429   .     S
C114   H436    1.083   .     S
C115   C285    1.490   .     S
C115   C116    1.403   .     A
C115   C120    1.406   .     A
C116   H437    1.082   .     S
C116   C117    1.398   .     A
C117   H438    1.081   .     S
C117   C118    1.398   .     A
C118   C119    1.398   .     A
C118   H439    1.082   .     S
C119   H440    1.082   .     S
C119   C120    1.398   .     A
C120   H441    1.083   .     S
C121   C127    1.402   .     A
C121   C287    1.489   .     S
C121   C122    1.406   .     A
C122   H442    1.082   .     S
C122   C123    1.397   .     A
C123   C125    1.398   .     A
C123   H443    1.082   .     S
C124   O494    1.280   .     A
C124   O483    1.280   .     A
C124   C179    1.428   .     S
C125   H444    1.080   .     S
C125   C126    1.396   .     A
C126   C127    1.398   .     A
C126   H445    1.082   .     S
C127   H971    1.082   .     S
C128   C288    1.492   .     S
C128   C129    1.403   .     A
C128   C133    1.408   .     A
C129   C130    1.398   .     A
C129   H1496   1.082   1_545 S
C130   C131    1.397   .     A
C130   H449    1.081   .     S
C131   H450    1.080   .     S
C131   C132    1.397   .     A
C132   C133    1.398   .     A
C132   H451    1.083   .     S
C133   H452    1.082   .     S
C134   C289    1.487   .     S
C134   C140    1.405   .     A
C134   C136    1.405   .     A
C135   C168    1.428   .     S
C135   O495    1.280   .     A
C135   O484    1.280   .     A
C136   H453    1.083   .     S
C136   C137    1.399   .     A
C137   H454    1.082   .     S
C137   C138    1.398   .     A
C138   H455    1.083   .     S
C138   C139    1.398   .     A
C139   C140    1.397   .     A
C139   H456    1.079   .     S
C140   H299    1.082   .     S
C141   C147    1.406   .     A
C141   C290    1.490   .     S
C141   C142    1.403   .     A
C142   H300    1.082   .     S
C142   C143    1.398   .     A
C143   C144    1.398   .     A
C143   H301    1.081   .     S
C144   C145    1.398   .     A
C144   H302    1.082   .     S
C145   H303    1.082   .     S
C145   C147    1.398   .     A
C146   O485    1.280   .     A
C146   O492    1.280   .     A
C146   C223    1.429   .     S
C147   H304    1.083   .     S
C148   C291    1.489   .     S
C148   C149    1.406   .     A
C148   C153    1.402   .     A
C149   H305    1.082   .     S
C149   C150    1.397   .     A
C150   C151    1.398   .     A
C150   H306    1.082   .     S
C151   C152    1.396   .     A
C151   H307    1.080   .     S
C152   C153    1.398   .     A
C152   H308    1.082   .     S
C153   H834    1.082   1_455 S
C154   C155    1.403   .     A
C154   C160    1.408   .     A
C154   C292    1.492   .     S
C155   C156    1.398   .     A
C155   H1359   1.082   .     S
C156   H312    1.081   .     S
C156   C158    1.397   .     A
C157   O493    1.281   .     A
C157   O486    1.280   .     A
C157   C222    1.429   .     S
C158   C159    1.397   .     A
C158   H313    1.080   .     S
C159   C160    1.398   .     A
C159   H314    1.083   .     S
C160   H315    1.082   .     S
C161   C162    1.405   .     A
C161   C293    1.487   .     S
C161   C166    1.405   .     A
C162   H316    1.083   .     S
C162   C163    1.399   .     A
C163   H317    1.082   .     S
C163   C164    1.398   .     A
C164   C165    1.398   .     A
C164   H318    1.083   .     S
C165   C166    1.397   .     A
C165   H319    1.079   .     S
C166   H321    1.082   .     S
C167   C169    1.405   .     A
C167   C173    1.403   .     A
C167   C294    1.481   .     S
C168   C232    1.201   .     T
C169   H322    1.083   .     S
C169   C170    1.397   .     A
C170   C171    1.396   .     A
C170   H323    1.082   .     S
C171   H324    1.080   .     S
C171   C172    1.397   .     A
C172   H325    1.082   .     S
C172   C173    1.398   .     A
C173   H326    1.077   .     S
C174   C175    1.402   .     A
C174   C180    1.389   .     A
C174   C295    1.465   .     S
C175   C176    1.391   .     A
C175   H327    1.083   .     S
C176   H328    1.080   .     S
C176   C177    1.395   .     A
C177   H329    1.075   .     S
C177   C178    1.394   .     A
C178   H330    1.079   .     S
C178   C180    1.393   .     A
C179   C230    1.201   .     T
C180   H332    1.073   .     S
C181   C296    1.481   .     S
C181   C182    1.405   .     A
C181   C186    1.405   .     A
C182   H333    1.083   .     S
C182   C183    1.396   .     A
C183   H334    1.082   .     S
C183   C184    1.396   .     A
C184   H335    1.081   .     S
C184   C185    1.398   .     A
C185   H336    1.080   .     S
C185   C186    1.397   .     A
C186   H337    1.080   .     S
C187   C193    1.399   .     A
C187   C188    1.414   .     A
C188   H338    1.083   .     S
C188   C189    1.390   .     A
C189   C191    1.390   .     A
C189   H339    1.080   .     S
C190   C229    1.202   .     T
C191   H340    1.078   .     S
C191   C192    1.394   .     A
C192   H341    1.077   .     S
C192   C193    1.394   .     A
C193   H343    1.073   .     S
C194   C195    1.405   .     A
C194   C199    1.403   .     A
C195   C196    1.397   .     A
C195   H344    1.083   .     S
C196   C197    1.396   .     A
C196   H345    1.082   .     S
C197   C198    1.397   .     A
C197   H346    1.080   .     S
C198   H347    1.082   .     S
C198   C199    1.398   .     A
C199   H348    1.077   .     S
C200   C202    1.402   .     A
C200   C206    1.389   .     A
C201   C228    1.202   .     T
C202   C203    1.391   .     A
C202   H349    1.083   .     S
C203   C204    1.395   .     A
C203   H350    1.080   .     S
C204   H351    1.075   .     S
C204   C205    1.394   .     A
C205   H352    1.079   .     S
C205   C206    1.393   .     A
C206   H354    1.073   .     S
C207   C208    1.405   .     A
C207   C213    1.405   .     A
C208   H355    1.083   .     S
C208   C209    1.396   .     A
C209   H356    1.082   .     S
C209   C210    1.396   .     A
C210   H357    1.081   .     S
C210   C211    1.398   .     A
C211   H358    1.080   .     S
C211   C213    1.397   .     A
C212   C227    1.201   .     T
C213   H359    1.080   .     S
C214   C219    1.399   .     A
C214   C215    1.414   .     A
C215   H360    1.083   .     S
C215   C216    1.390   .     A
C216   H361    1.080   .     S
C216   C217    1.390   .     A
C217   C218    1.394   .     A
C217   H362    1.078   .     S
C218   H363    1.077   .     S
C218   C219    1.394   .     A
C219   H365    1.073   .     S
C220   C250    1.472   .     S
C220   O983    1.276   1_455 A
C220   O506    1.276   .     S
C221   C226    1.201   .     T
C222   C225    1.202   .     T
C223   C224    1.202   .     T
C229   C286    1.429   .     S
C231   C251    1.468   .     S
C231   O460    1.273   .     A
C231   O1031   1.273   1_455 S
C233   C774    1.416   .     A
C233   C263    1.414   .     A
C234   C265    1.417   .     A
C234   C251    1.409   .     A
C235   C266    1.421   .     A
C235   C1300   1.407   .     S
C236   C267    1.422   .     A
C236   C254    1.400   .     S
C237   C259    1.414   .     A
C237   C250    1.416   .     S
C238   C260    1.417   .     A
C238   C775    1.409   .     S
C239   C252    1.407   .     A
C239   C261    1.421   .     A
C240   C1302   1.400   .     A
C240   C262    1.422   .     A
C241   C272    1.420   .     A
C241   C255    1.410   .     A
C242   C257    1.467   .     S
C242   O461    1.272   .     S
C242   O465    1.272   .     S
C243   C273    1.421   .     A
C243   C1304   1.399   .     A
C244   C274    1.420   .     A
C244   C781    1.406   .     S
C245   C276    1.419   .     A
C245   C258    1.404   .     S
C246   C268    1.420   .     A
C246   C1303   1.410   .     S
C247   C269    1.421   .     A
C247   C256    1.399   .     S
C248   C270    1.420   .     A
C248   C257    1.406   .     A
C249   C782    1.404   .     A
C249   C271    1.419   .     A
C250   C757    1.416   1_455 A
C251   C762    1.409   1_455 S
C252   C1283   1.407   1_545 S
C253   C258    1.472   .     S
C253   O466    1.274   .     A
C253   O462    1.274   .     A
C254   C1288   1.400   1_545 A
C255   C1294   1.410   1_545 S
C255   C264    1.469   .     S
C256   C1291   1.399   1_545 A
C256   C275    1.468   .     S
C257   C768    1.406   1_455 S
C258   C773    1.404   1_455 A
C259   C285    1.418   .     A
C259   C277    1.416   .     S
C260   C802    1.425   .     A
C260   C287    1.427   .     A
C261   C288    1.420   .     A
C261   C279    1.426   .     S
C262   C289    1.426   .     A
C262   C1328   1.435   .     A
C263   C801    1.416   .     A
C263   C290    1.418   .     A
C264   O463    1.273   .     S
C264   O467    1.273   .     S
C265   C291    1.427   .     A
C265   C278    1.425   .     S
C266   C292    1.420   .     A
C266   C1327   1.426   .     A
C267   C293    1.426   .     A
C267   C280    1.435   .     S
C268   C1329   1.425   .     A
C268   C294    1.424   .     A
C269   C295    1.398   .     A
C269   C282    1.409   .     S
C270   C296    1.428   .     A
C270   C283    1.426   .     A
C271   C808    1.404   .     A
C272   C281    1.425   .     S
C273   C1330   1.409   .     A
C274   C807    1.426   .     S
C275   O469    1.272   .     A
C275   O464    1.272   .     A
C276   C284    1.404   .     S
C277   C278    1.412   .     A
C277   C787    1.416   1_455 A
C278   C784    1.425   1_455 A
C279   C280    1.424   .     A
C279   C1314   1.426   1_545 A
C280   C1310   1.435   1_545 A
C281   C1316   1.425   1_545 A
C281   C282    1.423   1_556 S
C282   C1321   1.409   1_545 A
C282   C281    1.423   1_554 S
C283   C798    1.426   1_455 S
C283   C284    1.416   1_556 S
C284   C795    1.404   1_455 A
C284   C283    1.416   1_554 S
C285   C291    1.407   .     A
C286   O498    1.280   .     A
C286   O470    1.280   .     A
C287   C290    1.407   .     A
C288   C293    1.402   .     A
C289   C292    1.402   .     A
C294   C5      1.397   1_556 S
C295   C4      1.397   1_554 S
C296   C7      1.405   1_556 S
H310   C677    1.082   .     S
H311   C1203   1.082   1_545 S
H368   C1080   1.082   .     S
H370   C1081   1.081   .     S
H390   C1107   1.082   1_545 S
H392   C1108   1.081   1_545 S
H447   C651    1.082   1_455 S
H448   C1177   1.082   .     S
O457   Zn520   1.942   .     S
O457   Zn512   1.942   .     S
O457   Zn509   1.942   .     S
O457   Zn1564  1.942   1_545 S
O458   C1160   1.269   .     A
O458   Zn511   1.954   .     S
O459   C744    1.276   .     A
O459   Zn514   1.954   .     S
O460   Zn513   1.954   .     S
O461   Zn523   1.954   .     S
O462   Zn522   1.954   .     S
O463   Zn517   1.954   .     S
O464   Zn509   1.954   .     S
O465   Zn519   1.954   .     S
O466   Zn518   1.954   .     S
O467   Zn521   1.954   .     S
O468   Zn515   1.942   .     S
O468   Zn517   1.942   .     S
O468   Zn521   1.942   .     S
O468   Zn1559  1.942   1_545 S
O469   Zn520   1.954   .     S
O470   Zn512   1.923   .     S
O471   Zn511   1.923   .     S
O472   Zn514   1.921   .     S
O473   Zn513   1.921   .     S
O474   Zn516   1.923   .     S
O475   Zn515   1.923   .     S
O476   Zn510   1.921   .     S
O477   Zn524   1.921   .     S
O478   Zn511   1.921   .     S
O479   Zn522   1.942   .     S
O479   Zn1038  1.942   1_455 S
O479   Zn518   1.942   .     S
O479   Zn510   1.942   .     S
O480   Zn512   1.921   .     S
O481   Zn524   1.923   .     S
O482   Zn510   1.923   .     S
O483   Zn515   1.921   .     S
O484   Zn516   1.921   .     S
O485   Zn513   1.923   .     S
O486   Zn514   1.923   .     S
O487   Zn1043  1.923   .     S
O488   Zn518   1.923   .     S
O489   Zn1569  1.921   .     S
O490   Zn523   1.942   .     S
O490   Zn1048  1.942   1_455 S
O490   Zn519   1.942   .     S
O490   Zn513   1.942   .     S
O491   Zn520   1.921   .     S
O492   Zn523   1.923   .     S
O493   Zn1046  1.923   .     S
O494   Zn517   1.921   .     S
O495   Zn1557  1.921   .     S
O496   Zn1042  1.921   .     S
O497   Zn519   1.921   .     S
O498   Zn509   1.923   .     S
O499   Zn1565  1.923   .     S
O500   Zn522   1.921   .     S
O501   Zn516   1.954   .     S
O501   C1049   1.274   .     S
O502   Zn1047  1.921   .     S
O503   Zn1568  1.923   .     S
O504   Zn521   1.923   .     S
O505   Zn515   1.954   .     S
O506   Zn510   1.954   .     S
O507   Zn524   1.954   .     S
O507   C755    1.273   .     S
O508   Zn512   1.954   .     S
Zn509  O1543   1.921   1_545 S
Zn511  O1516   1.942   .     S
Zn514  O1003   1.942   .     S
Zn516  O1505   1.942   .     S
Zn517  O1547   1.923   1_545 S
Zn518  O1020   1.921   1_455 S
Zn519  O1011   1.923   1_455 S
Zn520  O1551   1.923   1_545 S
Zn521  O1537   1.921   1_545 S
Zn522  O1017   1.923   1_455 S
Zn523  O1026   1.921   1_455 S
Zn524  O1014   1.942   .     S
C525   C776    1.473   .     S
C525   O1032   1.274   .     A
C525   O2073   1.274   1_545 S
C526   C752    1.429   .     S
C526   O1023   1.280   .     A
C526   O995    1.280   .     A
C527   C711    1.490   .     S
C527   C795    1.402   .     A
C527   C530    1.405   1_554 S
C528   C796    1.424   .     A
C528   C718    1.481   .     S
C528   C819    1.397   1_556 S
C529   C724    1.465   .     S
C529   C797    1.398   .     A
C529   C818    1.397   1_554 S
C530   C798    1.428   .     A
C530   C731    1.481   .     S
C530   C527    1.405   1_556 S
C531   C800    1.402   .     A
C531   C738    1.490   .     S
C531   C820    1.405   1_554 S
C532   C757    1.492   .     S
C532   C533    1.409   .     A
C532   C538    1.405   .     A
C533   C534    1.398   .     A
C533   H821    1.083   .     S
C534   C535    1.397   .     A
C534   H893    1.082   .     S
C535   H904    1.082   .     S
C535   C536    1.398   .     A
C536   H915    1.082   .     S
C536   C538    1.398   .     A
C537   C751    1.428   .     S
C537   O996    1.280   .     A
C537   O1020   1.280   .     A
C538   H926    1.083   .     S
C539   C544    1.406   .     A
C539   C540    1.404   .     A
C539   C758    1.488   .     S
C540   H937    1.083   .     S
C540   C541    1.399   .     A
C541   C542    1.398   .     A
C541   H948    1.082   .     S
C542   H959    1.082   .     S
C542   C543    1.398   .     A
C543   C544    1.398   .     A
C543   H970    1.082   .     S
C544   H822    1.083   .     S
C545   C546    1.407   .     A
C545   C551    1.405   .     A
C545   C759    1.489   .     S
C546   C547    1.398   .     A
C546   H833    1.083   .     S
C547   H844    1.082   .     S
C547   C549    1.398   .     A
C548   O1021   1.280   .     A
C548   C750    1.428   .     S
C548   O997    1.280   .     A
C549   C550    1.398   .     A
C549   H855    1.082   .     S
C550   H866    1.082   .     S
C550   C551    1.399   .     A
C551   H877    1.083   .     S
C552   C557    1.403   .     A
C552   C760    1.491   .     S
C552   C553    1.407   .     A
C553   C554    1.398   .     A
C553   H888    1.083   .     S
C554   C555    1.398   .     A
C554   H890    1.082   .     S
C555   H891    1.082   .     S
C555   C556    1.398   .     A
C556   C557    1.398   .     A
C556   H1940   1.082   1_545 S
C557   H1942   1.081   1_545 S
C558   C560    1.409   .     A
C558   C564    1.405   .     A
C558   C761    1.492   .     S
C559   C749    1.429   .     S
C559   O998    1.280   .     A
C559   O1027   1.280   .     A
C560   C561    1.398   .     A
C560   H895    1.083   .     S
C561   C562    1.397   .     A
C561   H896    1.082   .     S
C562   C563    1.398   .     A
C562   H897    1.082   .     S
C563   C564    1.398   .     A
C563   H898    1.082   .     S
C564   H899    1.083   .     S
C565   C762    1.488   .     S
C565   C571    1.406   .     A
C565   C566    1.404   .     A
C566   C567    1.399   .     A
C566   H900    1.083   .     S
C567   C568    1.398   .     A
C567   H901    1.082   .     S
C568   C569    1.398   .     A
C568   H902    1.082   .     S
C569   C571    1.398   .     A
C569   H903    1.082   .     S
C570   C748    1.429   .     S
C570   O999    1.280   .     A
C570   O1028   1.280   .     A
C571   H905    1.083   .     S
C572   C763    1.489   .     S
C572   C577    1.405   .     A
C572   C573    1.407   .     A
C573   C574    1.398   .     A
C573   H906    1.083   .     S
C574   H907    1.082   .     S
C574   C575    1.398   .     A
C575   C576    1.398   .     A
C575   H908    1.082   .     S
C576   C577    1.399   .     A
C576   H909    1.082   .     S
C577   H910    1.083   .     S
C578   C579    1.407   .     A
C578   C584    1.403   .     A
C578   C764    1.491   .     S
C579   C580    1.398   .     A
C579   H911    1.083   .     S
C580   H912    1.082   .     S
C580   C582    1.398   .     A
C581   C756    1.428   .     S
C581   O1000   1.280   .     A
C581   O1024   1.280   .     A
C582   C583    1.398   .     A
C582   H913    1.082   .     S
C583   C584    1.398   .     A
C583   H1962   1.082   .     S
C584   H1964   1.081   .     S
C585   C765    1.487   .     S
C585   C586    1.405   .     A
C585   C590    1.403   .     A
C586   H917    1.083   .     S
C586   C587    1.398   .     A
C587   C588    1.398   .     A
C587   H918    1.082   .     S
C588   H919    1.082   .     S
C588   C589    1.398   .     A
C589   H920    1.082   .     S
C589   C590    1.398   .     A
C590   H921    1.080   .     S
C591   C593    1.407   .     A
C591   C597    1.404   .     A
C591   C767    1.486   .     S
C592   O1001   1.280   .     A
C592   C754    1.428   .     S
C592   O1026   1.280   .     A
C593   C594    1.398   .     A
C593   H922    1.083   .     S
C594   C595    1.396   .     A
C594   H923    1.081   .     S
C595   H924    1.082   .     S
C595   C596    1.397   .     A
C596   C597    1.399   .     A
C596   H925    1.082   .     S
C597   H927    1.083   .     S
C598   C768    1.485   .     S
C598   C604    1.404   .     A
C598   C599    1.406   .     A
C599   H928    1.083   .     S
C599   C600    1.398   .     A
C600   H929    1.082   .     S
C600   C601    1.398   .     A
C601   C602    1.398   .     A
C601   H930    1.082   .     S
C602   C604    1.398   .     A
C602   H931    1.082   .     S
C603   O1013   1.280   .     A
C603   C745    1.428   .     S
C603   O1002   1.280   .     A
C604   H932    1.082   .     S
C605   C610    1.403   .     A
C605   C606    1.407   .     A
C605   C769    1.486   .     S
C606   H933    1.082   .     S
C606   C607    1.398   .     A
C607   C608    1.398   .     A
C607   H934    1.082   .     S
C608   H935    1.080   .     S
C608   C609    1.397   .     A
C609   C610    1.399   .     A
C609   H936    1.082   .     S
C610   H938    1.083   .     S
C611   C617    1.403   .     A
C611   C612    1.405   .     A
C611   C770    1.487   .     S
C612   C613    1.398   .     A
C612   H939    1.083   .     S
C613   C615    1.398   .     A
C613   H940    1.082   .     S
C614   C736    1.428   .     S
C614   O1004   1.280   .     A
C614   O1015   1.280   .     A
C615   H941    1.082   .     S
C615   C616    1.398   .     A
C616   H942    1.082   .     S
C616   C617    1.398   .     A
C617   H943    1.080   .     S
C618   C771    1.486   .     S
C618   C619    1.407   .     A
C618   C623    1.404   .     A
C619   C620    1.398   .     A
C619   H944    1.083   .     S
C620   H945    1.081   .     S
C620   C621    1.396   .     A
C621   C622    1.397   .     A
C621   H946    1.082   .     S
C622   C623    1.399   .     A
C622   H947    1.082   .     S
C623   H949    1.083   .     S
C624   C630    1.404   .     A
C624   C772    1.485   .     S
C624   C626    1.406   .     A
C625   C725    1.429   .     S
C625   O1005   1.280   .     A
C625   O1011   1.280   .     A
C626   H950    1.083   .     S
C626   C627    1.398   .     A
C627   H951    1.082   .     S
C627   C628    1.398   .     A
C628   C629    1.398   .     A
C628   H952    1.082   .     S
C629   C630    1.398   .     A
C629   H953    1.082   .     S
C630   H954    1.082   .     S
C631   C632    1.407   .     A
C631   C638    1.403   .     A
C631   C773    1.486   .     S
C632   C633    1.398   .     A
C632   H955    1.082   .     S
C633   H956    1.082   .     S
C633   C634    1.398   .     A
C634   C635    1.397   .     A
C634   H957    1.080   .     S
C635   H958    1.082   .     S
C635   C638    1.399   .     A
C636   C778    1.458   .     S
C636   O2030   1.269   1_545 A
C636   O1029   1.269   .     S
C637   O1006   1.280   .     A
C637   O1012   1.281   .     A
C637   C714    1.429   .     S
C638   H960    1.083   .     S
C639   C809    1.490   .     S
C639   C640    1.403   .     A
C639   C644    1.406   .     A
C640   H961    1.082   .     S
C640   C641    1.398   .     A
C641   H962    1.081   .     S
C641   C642    1.398   .     A
C642   C643    1.398   .     A
C642   H963    1.082   .     S
C643   H964    1.082   .     S
C643   C644    1.398   .     A
C644   H965    1.083   .     S
C645   C651    1.402   .     A
C645   C811    1.489   .     S
C645   C646    1.406   .     A
C646   H966    1.082   .     S
C646   C647    1.397   .     A
C647   C649    1.398   .     A
C647   H967    1.082   .     S
C648   O1018   1.280   .     A
C648   O1007   1.280   .     A
C648   C703    1.428   .     S
C649   H968    1.080   .     S
C649   C650    1.396   .     A
C650   C651    1.398   .     A
C650   H969    1.082   .     S
C651   H447    1.082   1_655 S
C652   C812    1.492   .     S
C652   C653    1.403   .     A
C652   C657    1.408   .     A
C653   C654    1.398   .     A
C653   H2020   1.082   1_545 S
C654   C655    1.397   .     A
C654   H973    1.081   .     S
C655   H974    1.080   .     S
C655   C656    1.397   .     A
C656   C657    1.398   .     A
C656   H975    1.083   .     S
C657   H976    1.082   .     S
C658   C813    1.487   .     S
C658   C664    1.405   .     A
C658   C660    1.405   .     A
C659   C692    1.428   .     S
C659   O1019   1.280   .     A
C659   O1008   1.280   .     A
C660   H977    1.083   .     S
C660   C661    1.399   .     A
C661   H978    1.082   .     S
C661   C662    1.398   .     A
C662   H979    1.083   .     S
C662   C663    1.398   .     A
C663   C664    1.397   .     A
C663   H980    1.079   .     S
C664   H823    1.082   .     S
C665   C671    1.406   .     A
C665   C814    1.490   .     S
C665   C666    1.403   .     A
C666   H824    1.082   .     S
C666   C667    1.398   .     A
C667   C668    1.398   .     A
C667   H825    1.081   .     S
C668   C669    1.398   .     A
C668   H826    1.082   .     S
C669   H827    1.082   .     S
C669   C671    1.398   .     A
C670   O1009   1.280   .     A
C670   O1016   1.280   .     A
C670   C747    1.429   .     S
C671   H828    1.083   .     S
C672   C815    1.489   .     S
C672   C673    1.406   .     A
C672   C677    1.402   .     A
C673   H829    1.082   .     S
C673   C674    1.397   .     A
C674   C675    1.398   .     A
C674   H830    1.082   .     S
C675   C676    1.396   .     A
C675   H831    1.080   .     S
C676   C677    1.398   .     A
C676   H832    1.082   .     S
C678   C679    1.403   .     A
C678   C684    1.408   .     A
C678   C816    1.492   .     S
C679   C680    1.398   .     A
C679   H1883   1.082   .     S
C680   H836    1.081   .     S
C680   C682    1.397   .     A
C681   O1017   1.281   .     A
C681   O1010   1.280   .     A
C681   C746    1.429   .     S
C682   C683    1.397   .     A
C682   H837    1.080   .     S
C683   C684    1.398   .     A
C683   H838    1.083   .     S
C684   H839    1.082   .     S
C685   C686    1.405   .     A
C685   C817    1.487   .     S
C685   C690    1.405   .     A
C686   H840    1.083   .     S
C686   C687    1.399   .     A
C687   H841    1.082   .     S
C687   C688    1.398   .     A
C688   C689    1.398   .     A
C688   H842    1.083   .     S
C689   C690    1.397   .     A
C689   H843    1.079   .     S
C690   H845    1.082   .     S
C691   C693    1.405   .     A
C691   C697    1.403   .     A
C691   C818    1.481   .     S
C692   C756    1.201   .     T
C693   H846    1.083   .     S
C693   C694    1.397   .     A
C694   C695    1.396   .     A
C694   H847    1.082   .     S
C695   H848    1.080   .     S
C695   C696    1.397   .     A
C696   H849    1.082   .     S
C696   C697    1.398   .     A
C697   H850    1.077   .     S
C698   C699    1.402   .     A
C698   C704    1.389   .     A
C698   C819    1.465   .     S
C699   C700    1.391   .     A
C699   H851    1.083   .     S
C700   H852    1.080   .     S
C700   C701    1.395   .     A
C701   H853    1.075   .     S
C701   C702    1.394   .     A
C702   H854    1.079   .     S
C702   C704    1.393   .     A
C703   C754    1.201   .     T
C704   H856    1.073   .     S
C705   C820    1.481   .     S
C705   C706    1.405   .     A
C705   C710    1.405   .     A
C706   H857    1.083   .     S
C706   C707    1.396   .     A
C707   H858    1.082   .     S
C707   C708    1.396   .     A
C708   H859    1.081   .     S
C708   C709    1.398   .     A
C709   H860    1.080   .     S
C709   C710    1.397   .     A
C710   H861    1.080   .     S
C711   C717    1.399   .     A
C711   C712    1.414   .     A
C712   H862    1.083   .     S
C712   C713    1.390   .     A
C713   C715    1.390   .     A
C713   H863    1.080   .     S
C714   C753    1.202   .     T
C715   H864    1.078   .     S
C715   C716    1.394   .     A
C716   H865    1.077   .     S
C716   C717    1.394   .     A
C717   H867    1.073   .     S
C718   C719    1.405   .     A
C718   C723    1.403   .     A
C719   C720    1.397   .     A
C719   H868    1.083   .     S
C720   C721    1.396   .     A
C720   H869    1.082   .     S
C721   C722    1.397   .     A
C721   H870    1.080   .     S
C722   H871    1.082   .     S
C722   C723    1.398   .     A
C723   H872    1.077   .     S
C724   C726    1.402   .     A
C724   C730    1.389   .     A
C725   C752    1.202   .     T
C726   C727    1.391   .     A
C726   H873    1.083   .     S
C727   C728    1.395   .     A
C727   H874    1.080   .     S
C728   H875    1.075   .     S
C728   C729    1.394   .     A
C729   H876    1.079   .     S
C729   C730    1.393   .     A
C730   H878    1.073   .     S
C731   C732    1.405   .     A
C731   C737    1.405   .     A
C732   H879    1.083   .     S
C732   C733    1.396   .     A
C733   H880    1.082   .     S
C733   C734    1.396   .     A
C734   H881    1.081   .     S
C734   C735    1.398   .     A
C735   H882    1.080   .     S
C735   C737    1.397   .     A
C736   C751    1.201   .     T
C737   H883    1.080   .     S
C738   C743    1.399   .     A
C738   C739    1.414   .     A
C739   H884    1.083   .     S
C739   C740    1.390   .     A
C740   H885    1.080   .     S
C740   C741    1.390   .     A
C741   C742    1.394   .     A
C741   H886    1.078   .     S
C742   H887    1.077   .     S
C742   C743    1.394   .     A
C743   H889    1.073   .     S
C744   C774    1.472   .     S
C744   O1030   1.276   .     S
C745   C750    1.201   .     T
C746   C749    1.202   .     T
C747   C748    1.202   .     T
C753   C810    1.429   .     S
C755   C775    1.468   .     S
C755   O984    1.273   .     A
C757   C250    1.416   1_655 A
C757   C787    1.414   .     A
C758   C789    1.417   .     A
C758   C775    1.409   .     A
C759   C790    1.421   .     A
C759   C1824   1.407   .     S
C760   C791    1.422   .     A
C760   C778    1.400   .     S
C761   C783    1.414   .     A
C761   C774    1.416   .     S
C762   C784    1.417   .     A
C762   C251    1.409   1_655 S
C763   C776    1.407   .     A
C763   C785    1.421   .     A
C764   C1826   1.400   .     A
C764   C786    1.422   .     A
C765   C796    1.420   .     A
C765   C779    1.410   .     A
C766   C781    1.467   .     S
C766   O985    1.272   .     S
C766   O989    1.272   .     S
C767   C797    1.421   .     A
C767   C1828   1.399   .     A
C768   C798    1.420   .     A
C768   C257    1.406   1_655 S
C769   C800    1.419   .     A
C769   C782    1.404   .     S
C770   C792    1.420   .     A
C770   C1827   1.410   .     S
C771   C793    1.421   .     A
C771   C780    1.399   .     S
C772   C794    1.420   .     A
C772   C781    1.406   .     A
C773   C258    1.404   1_655 A
C773   C795    1.419   .     A
C776   C1807   1.407   1_545 S
C777   C782    1.472   .     S
C777   O990    1.274   .     A
C777   O986    1.274   .     A
C778   C1812   1.400   1_545 A
C779   C1818   1.410   1_545 S
C779   C788    1.469   .     S
C780   C1815   1.399   1_545 A
C780   C799    1.468   .     S
C783   C809    1.418   .     A
C783   C801    1.416   .     S
C784   C278    1.425   1_655 A
C784   C811    1.427   .     A
C785   C812    1.420   .     A
C785   C803    1.426   .     S
C786   C813    1.426   .     A
C786   C1852   1.435   .     A
C787   C277    1.416   1_655 A
C787   C814    1.418   .     A
C788   O987    1.273   .     S
C788   O991    1.273   .     S
C789   C815    1.427   .     A
C789   C802    1.425   .     S
C790   C816    1.420   .     A
C790   C1851   1.426   .     A
C791   C817    1.426   .     A
C791   C804    1.435   .     S
C792   C1853   1.425   .     A
C792   C818    1.424   .     A
C793   C819    1.398   .     A
C793   C806    1.409   .     S
C794   C820    1.428   .     A
C794   C807    1.426   .     A
C795   C284    1.404   1_655 A
C796   C805    1.425   .     S
C797   C1854   1.409   .     A
C798   C283    1.426   1_655 S
C799   O993    1.272   .     A
C799   O988    1.272   .     A
C800   C808    1.404   .     S
C801   C802    1.412   .     A
C803   C804    1.424   .     A
C803   C1838   1.426   1_545 A
C804   C1834   1.435   1_545 A
C805   C1840   1.425   1_545 A
C805   C806    1.423   1_556 S
C806   C1845   1.409   1_545 A
C806   C805    1.423   1_554 S
C807   C808    1.416   1_556 S
C808   C807    1.416   1_554 S
C809   C815    1.407   .     A
C810   O1022   1.280   .     A
C810   O994    1.280   .     A
C811   C814    1.407   .     A
C812   C817    1.402   .     A
C813   C816    1.402   .     A
C818   C529    1.397   1_556 S
C819   C528    1.397   1_554 S
C820   C531    1.405   1_556 S
H834   C153    1.082   1_655 S
H835   C1727   1.082   1_545 S
H892   C1604   1.082   .     S
H894   C1605   1.081   .     S
H914   C1631   1.082   1_545 S
H916   C1632   1.081   1_545 S
H972   C1701   1.082   .     S
O981   Zn1044  1.942   .     S
O981   Zn1036  1.942   .     S
O981   Zn1033  1.942   .     S
O981   Zn2088  1.942   1_545 S
O982   C1684   1.269   .     A
O982   Zn1035  1.954   .     S
O983   C220    1.276   1_655 A
O983   Zn1038  1.954   .     S
O984   Zn1037  1.954   .     S
O985   Zn1047  1.954   .     S
O986   Zn1046  1.954   .     S
O987   Zn1041  1.954   .     S
O988   Zn1033  1.954   .     S
O989   Zn1043  1.954   .     S
O990   Zn1042  1.954   .     S
O991   Zn1045  1.954   .     S
O992   Zn1039  1.942   .     S
O992   Zn1041  1.942   .     S
O992   Zn1045  1.942   .     S
O992   Zn2083  1.942   1_545 S
O993   Zn1044  1.954   .     S
O994   Zn1036  1.923   .     S
O995   Zn1035  1.923   .     S
O996   Zn1038  1.921   .     S
O997   Zn1037  1.921   .     S
O998   Zn1040  1.923   .     S
O999   Zn1039  1.923   .     S
O1000  Zn1034  1.921   .     S
O1001  Zn1048  1.921   .     S
O1002  Zn1035  1.921   .     S
O1003  Zn1046  1.942   .     S
O1003  Zn1042  1.942   .     S
O1003  Zn1034  1.942   .     S
O1004  Zn1036  1.921   .     S
O1005  Zn1048  1.923   .     S
O1006  Zn1034  1.923   .     S
O1007  Zn1039  1.921   .     S
O1008  Zn1040  1.921   .     S
O1009  Zn1037  1.923   .     S
O1010  Zn1038  1.923   .     S
O1011  Zn519   1.923   1_655 S
O1012  Zn1042  1.923   .     S
O1013  Zn2093  1.921   .     S
O1014  Zn1047  1.942   .     S
O1014  Zn1043  1.942   .     S
O1014  Zn1037  1.942   .     S
O1015  Zn1044  1.921   .     S
O1016  Zn1047  1.923   .     S
O1017  Zn522   1.923   1_655 S
O1018  Zn1041  1.921   .     S
O1019  Zn2081  1.921   .     S
O1020  Zn518   1.921   1_655 S
O1021  Zn1043  1.921   .     S
O1022  Zn1033  1.923   .     S
O1023  Zn2089  1.923   .     S
O1024  Zn1046  1.921   .     S
O1025  Zn1040  1.954   .     S
O1025  C1573   1.274   .     S
O1026  Zn523   1.921   1_655 S
O1027  Zn2092  1.923   .     S
O1028  Zn1045  1.923   .     S
O1029  Zn1039  1.954   .     S
O1030  Zn1034  1.954   .     S
O1031  Zn1048  1.954   .     S
O1031  C231    1.273   1_655 S
O1032  Zn1036  1.954   .     S
Zn1033 O2067   1.921   1_545 S
Zn1035 O2040   1.942   .     S
Zn1038 O479    1.942   1_655 S
Zn1040 O2029   1.942   .     S
Zn1041 O2071   1.923   1_545 S
Zn1044 O2075   1.923   1_545 S
Zn1045 O2061   1.921   1_545 S
Zn1048 O490    1.942   1_655 S
C1049  C1300   1.473   .     S
C1049  O1556   1.274   .     A
C1050  C1276   1.429   .     S
C1050  O1547   1.280   .     A
C1050  O1519   1.280   .     A
C1051  C1235   1.490   .     S
C1051  C1319   1.402   .     A
C1051  C1054   1.405   1_554 S
C1052  C1320   1.424   .     A
C1052  C1242   1.481   .     S
C1052  C1343   1.397   1_556 S
C1053  C1248   1.465   .     S
C1053  C1321   1.398   .     A
C1053  C1342   1.397   1_554 S
C1054  C1322   1.428   .     A
C1054  C1255   1.481   .     S
C1054  C1051   1.405   1_556 S
C1055  C1324   1.402   .     A
C1055  C1262   1.490   .     S
C1055  C1344   1.405   1_554 S
C1056  C1281   1.492   .     S
C1056  C1057   1.409   .     A
C1056  C1062   1.405   .     A
C1057  C1058   1.398   .     A
C1057  H1345   1.083   .     S
C1058  C1059   1.397   .     A
C1058  H1417   1.082   .     S
C1059  H1428   1.082   .     S
C1059  C1060   1.398   .     A
C1060  H1439   1.082   .     S
C1060  C1062   1.398   .     A
C1061  C1275   1.428   .     S
C1061  O1520   1.280   .     A
C1061  O1544   1.280   .     A
C1062  H1450   1.083   .     S
C1063  C1068   1.406   .     A
C1063  C1064   1.404   .     A
C1063  C1282   1.488   .     S
C1064  H1461   1.083   .     S
C1064  C1065   1.399   .     A
C1065  C1066   1.398   .     A
C1065  H1472   1.082   .     S
C1066  H1483   1.082   .     S
C1066  C1067   1.398   .     A
C1067  C1068   1.398   .     A
C1067  H1494   1.082   .     S
C1068  H1346   1.083   .     S
C1069  C1070   1.407   .     A
C1069  C1075   1.405   .     A
C1069  C1283   1.489   .     S
C1070  C1071   1.398   .     A
C1070  H1357   1.083   .     S
C1071  H1368   1.082   .     S
C1071  C1073   1.398   .     A
C1072  O1545   1.280   .     A
C1072  C1274   1.428   .     S
C1072  O1521   1.280   .     A
C1073  C1074   1.398   .     A
C1073  H1379   1.082   .     S
C1074  H1390   1.082   .     S
C1074  C1075   1.399   .     A
C1075  H1401   1.083   .     S
C1076  C1081   1.403   .     A
C1076  C1284   1.491   .     S
C1076  C1077   1.407   .     A
C1077  C1078   1.398   .     A
C1077  H1412   1.083   .     S
C1078  C1079   1.398   .     A
C1078  H1414   1.082   .     S
C1079  H1415   1.082   .     S
C1079  C1080   1.398   .     A
C1080  C1081   1.398   .     A
C1082  C1084   1.409   .     A
C1082  C1088   1.405   .     A
C1082  C1285   1.492   .     S
C1083  C1273   1.429   .     S
C1083  O1522   1.280   .     A
C1083  O1551   1.280   .     A
C1084  C1085   1.398   .     A
C1084  H1419   1.083   .     S
C1085  C1086   1.397   .     A
C1085  H1420   1.082   .     S
C1086  C1087   1.398   .     A
C1086  H1421   1.082   .     S
C1087  C1088   1.398   .     A
C1087  H1422   1.082   .     S
C1088  H1423   1.083   .     S
C1089  C1286   1.488   .     S
C1089  C1095   1.406   .     A
C1089  C1090   1.404   .     A
C1090  C1091   1.399   .     A
C1090  H1424   1.083   .     S
C1091  C1092   1.398   .     A
C1091  H1425   1.082   .     S
C1092  C1093   1.398   .     A
C1092  H1426   1.082   .     S
C1093  C1095   1.398   .     A
C1093  H1427   1.082   .     S
C1094  C1272   1.429   .     S
C1094  O1523   1.280   .     A
C1094  O1552   1.280   .     A
C1095  H1429   1.083   .     S
C1096  C1287   1.489   .     S
C1096  C1101   1.405   .     A
C1096  C1097   1.407   .     A
C1097  C1098   1.398   .     A
C1097  H1430   1.083   .     S
C1098  H1431   1.082   .     S
C1098  C1099   1.398   .     A
C1099  C1100   1.398   .     A
C1099  H1432   1.082   .     S
C1100  C1101   1.399   .     A
C1100  H1433   1.082   .     S
C1101  H1434   1.083   .     S
C1102  C1103   1.407   .     A
C1102  C1108   1.403   .     A
C1102  C1288   1.491   .     S
C1103  C1104   1.398   .     A
C1103  H1435   1.083   .     S
C1104  H1436   1.082   .     S
C1104  C1106   1.398   .     A
C1105  C1280   1.428   .     S
C1105  O1524   1.280   .     A
C1105  O1548   1.280   .     A
C1106  C1107   1.398   .     A
C1106  H1437   1.082   .     S
C1107  C1108   1.398   .     A
C1107  H390    1.082   1_565 S
C1108  H392    1.081   1_565 S
C1109  C1289   1.487   .     S
C1109  C1110   1.405   .     A
C1109  C1114   1.403   .     A
C1110  H1441   1.083   .     S
C1110  C1111   1.398   .     A
C1111  C1112   1.398   .     A
C1111  H1442   1.082   .     S
C1112  H1443   1.082   .     S
C1112  C1113   1.398   .     A
C1113  H1444   1.082   .     S
C1113  C1114   1.398   .     A
C1114  H1445   1.080   .     S
C1115  C1117   1.407   .     A
C1115  C1121   1.404   .     A
C1115  C1291   1.486   .     S
C1116  O1525   1.280   .     A
C1116  C1278   1.428   .     S
C1116  O1550   1.280   .     A
C1117  C1118   1.398   .     A
C1117  H1446   1.083   .     S
C1118  C1119   1.396   .     A
C1118  H1447   1.081   .     S
C1119  H1448   1.082   .     S
C1119  C1120   1.397   .     A
C1120  C1121   1.399   .     A
C1120  H1449   1.082   .     S
C1121  H1451   1.083   .     S
C1122  C1292   1.485   .     S
C1122  C1128   1.404   .     A
C1122  C1123   1.406   .     A
C1123  H1452   1.083   .     S
C1123  C1124   1.398   .     A
C1124  H1453   1.082   .     S
C1124  C1125   1.398   .     A
C1125  C1126   1.398   .     A
C1125  H1454   1.082   .     S
C1126  C1128   1.398   .     A
C1126  H1455   1.082   .     S
C1127  O1537   1.280   .     A
C1127  C1269   1.428   .     S
C1127  O1526   1.280   .     A
C1128  H1456   1.082   .     S
C1129  C1134   1.403   .     A
C1129  C1130   1.407   .     A
C1129  C1293   1.486   .     S
C1130  H1457   1.082   .     S
C1130  C1131   1.398   .     A
C1131  C1132   1.398   .     A
C1131  H1458   1.082   .     S
C1132  H1459   1.080   .     S
C1132  C1133   1.397   .     A
C1133  C1134   1.399   .     A
C1133  H1460   1.082   .     S
C1134  H1462   1.083   .     S
C1135  C1141   1.403   .     A
C1135  C1136   1.405   .     A
C1135  C1294   1.487   .     S
C1136  C1137   1.398   .     A
C1136  H1463   1.083   .     S
C1137  C1139   1.398   .     A
C1137  H1464   1.082   .     S
C1138  C1260   1.428   .     S
C1138  O1528   1.280   .     A
C1138  O1539   1.280   .     A
C1139  H1465   1.082   .     S
C1139  C1140   1.398   .     A
C1140  H1466   1.082   .     S
C1140  C1141   1.398   .     A
C1141  H1467   1.080   .     S
C1142  C1295   1.486   .     S
C1142  C1143   1.407   .     A
C1142  C1147   1.404   .     A
C1143  C1144   1.398   .     A
C1143  H1468   1.083   .     S
C1144  H1469   1.081   .     S
C1144  C1145   1.396   .     A
C1145  C1146   1.397   .     A
C1145  H1470   1.082   .     S
C1146  C1147   1.399   .     A
C1146  H1471   1.082   .     S
C1147  H1473   1.083   .     S
C1148  C1154   1.404   .     A
C1148  C1296   1.485   .     S
C1148  C1150   1.406   .     A
C1149  C1249   1.429   .     S
C1149  O1529   1.280   .     A
C1149  O1535   1.280   .     A
C1150  H1474   1.083   .     S
C1150  C1151   1.398   .     A
C1151  H1475   1.082   .     S
C1151  C1152   1.398   .     A
C1152  C1153   1.398   .     A
C1152  H1476   1.082   .     S
C1153  C1154   1.398   .     A
C1153  H1477   1.082   .     S
C1154  H1478   1.082   .     S
C1155  C1156   1.407   .     A
C1155  C1162   1.403   .     A
C1155  C1297   1.486   .     S
C1156  C1157   1.398   .     A
C1156  H1479   1.082   .     S
C1157  H1480   1.082   .     S
C1157  C1158   1.398   .     A
C1158  C1159   1.397   .     A
C1158  H1481   1.080   .     S
C1159  H1482   1.082   .     S
C1159  C1162   1.399   .     A
C1160  C1302   1.458   .     S
C1160  O1553   1.269   .     S
C1161  O1530   1.280   .     A
C1161  O1536   1.281   .     A
C1161  C1238   1.429   .     S
C1162  H1484   1.083   .     S
C1163  C1333   1.490   .     S
C1163  C1164   1.403   .     A
C1163  C1168   1.406   .     A
C1164  H1485   1.082   .     S
C1164  C1165   1.398   .     A
C1165  H1486   1.081   .     S
C1165  C1166   1.398   .     A
C1166  C1167   1.398   .     A
C1166  H1487   1.082   .     S
C1167  H1488   1.082   .     S
C1167  C1168   1.398   .     A
C1168  H1489   1.083   .     S
C1169  C1175   1.402   .     A
C1169  C1335   1.489   .     S
C1169  C1170   1.406   .     A
C1170  H1490   1.082   .     S
C1170  C1171   1.397   .     A
C1171  C1173   1.398   .     A
C1171  H1491   1.082   .     S
C1172  O1542   1.280   .     A
C1172  O1531   1.280   .     A
C1172  C1227   1.428   .     S
C1173  H1492   1.080   .     S
C1173  C1174   1.396   .     A
C1174  C1175   1.398   .     A
C1174  H1493   1.082   .     S
C1175  H2019   1.082   .     S
C1176  C1336   1.492   .     S
C1176  C1177   1.403   .     A
C1176  C1181   1.408   .     A
C1177  C1178   1.398   .     A
C1178  C1179   1.397   .     A
C1178  H1497   1.081   .     S
C1179  H1498   1.080   .     S
C1179  C1180   1.397   .     A
C1180  C1181   1.398   .     A
C1180  H1499   1.083   .     S
C1181  H1500   1.082   .     S
C1182  C1337   1.487   .     S
C1182  C1188   1.405   .     A
C1182  C1184   1.405   .     A
C1183  C1216   1.428   .     S
C1183  O1543   1.280   .     A
C1183  O1532   1.280   .     A
C1184  H1501   1.083   .     S
C1184  C1185   1.399   .     A
C1185  H1502   1.082   .     S
C1185  C1186   1.398   .     A
C1186  H1503   1.083   .     S
C1186  C1187   1.398   .     A
C1187  C1188   1.397   .     A
C1187  H1504   1.079   .     S
C1188  H1347   1.082   .     S
C1189  C1195   1.406   .     A
C1189  C1338   1.490   .     S
C1189  C1190   1.403   .     A
C1190  H1348   1.082   .     S
C1190  C1191   1.398   .     A
C1191  C1192   1.398   .     A
C1191  H1349   1.081   .     S
C1192  C1193   1.398   .     A
C1192  H1350   1.082   .     S
C1193  H1351   1.082   .     S
C1193  C1195   1.398   .     A
C1194  O1533   1.280   .     A
C1194  O1540   1.280   .     A
C1194  C1271   1.429   .     S
C1195  H1352   1.083   .     S
C1196  C1339   1.489   .     S
C1196  C1197   1.406   .     A
C1196  C1201   1.402   .     A
C1197  H1353   1.082   .     S
C1197  C1198   1.397   .     A
C1198  C1199   1.398   .     A
C1198  H1354   1.082   .     S
C1199  C1200   1.396   .     A
C1199  H1355   1.080   .     S
C1200  C1201   1.398   .     A
C1200  H1356   1.082   .     S
C1201  H1882   1.082   1_455 S
C1202  C1203   1.403   .     A
C1202  C1208   1.408   .     A
C1202  C1340   1.492   .     S
C1203  C1204   1.398   .     A
C1203  H311    1.082   1_565 S
C1204  H1360   1.081   .     S
C1204  C1206   1.397   .     A
C1205  O1541   1.281   .     A
C1205  O1534   1.280   .     A
C1205  C1270   1.429   .     S
C1206  C1207   1.397   .     A
C1206  H1361   1.080   .     S
C1207  C1208   1.398   .     A
C1207  H1362   1.083   .     S
C1208  H1363   1.082   .     S
C1209  C1210   1.405   .     A
C1209  C1341   1.487   .     S
C1209  C1214   1.405   .     A
C1210  H1364   1.083   .     S
C1210  C1211   1.399   .     A
C1211  H1365   1.082   .     S
C1211  C1212   1.398   .     A
C1212  C1213   1.398   .     A
C1212  H1366   1.083   .     S
C1213  C1214   1.397   .     A
C1213  H1367   1.079   .     S
C1214  H1369   1.082   .     S
C1215  C1217   1.405   .     A
C1215  C1221   1.403   .     A
C1215  C1342   1.481   .     S
C1216  C1280   1.201   .     T
C1217  H1370   1.083   .     S
C1217  C1218   1.397   .     A
C1218  C1219   1.396   .     A
C1218  H1371   1.082   .     S
C1219  H1372   1.080   .     S
C1219  C1220   1.397   .     A
C1220  H1373   1.082   .     S
C1220  C1221   1.398   .     A
C1221  H1374   1.077   .     S
C1222  C1223   1.402   .     A
C1222  C1228   1.389   .     A
C1222  C1343   1.465   .     S
C1223  C1224   1.391   .     A
C1223  H1375   1.083   .     S
C1224  H1376   1.080   .     S
C1224  C1225   1.395   .     A
C1225  H1377   1.075   .     S
C1225  C1226   1.394   .     A
C1226  H1378   1.079   .     S
C1226  C1228   1.393   .     A
C1227  C1278   1.201   .     T
C1228  H1380   1.073   .     S
C1229  C1344   1.481   .     S
C1229  C1230   1.405   .     A
C1229  C1234   1.405   .     A
C1230  H1381   1.083   .     S
C1230  C1231   1.396   .     A
C1231  H1382   1.082   .     S
C1231  C1232   1.396   .     A
C1232  H1383   1.081   .     S
C1232  C1233   1.398   .     A
C1233  H1384   1.080   .     S
C1233  C1234   1.397   .     A
C1234  H1385   1.080   .     S
C1235  C1241   1.399   .     A
C1235  C1236   1.414   .     A
C1236  H1386   1.083   .     S
C1236  C1237   1.390   .     A
C1237  C1239   1.390   .     A
C1237  H1387   1.080   .     S
C1238  C1277   1.202   .     T
C1239  H1388   1.078   .     S
C1239  C1240   1.394   .     A
C1240  H1389   1.077   .     S
C1240  C1241   1.394   .     A
C1241  H1391   1.073   .     S
C1242  C1243   1.405   .     A
C1242  C1247   1.403   .     A
C1243  C1244   1.397   .     A
C1243  H1392   1.083   .     S
C1244  C1245   1.396   .     A
C1244  H1393   1.082   .     S
C1245  C1246   1.397   .     A
C1245  H1394   1.080   .     S
C1246  H1395   1.082   .     S
C1246  C1247   1.398   .     A
C1247  H1396   1.077   .     S
C1248  C1250   1.402   .     A
C1248  C1254   1.389   .     A
C1249  C1276   1.202   .     T
C1250  C1251   1.391   .     A
C1250  H1397   1.083   .     S
C1251  C1252   1.395   .     A
C1251  H1398   1.080   .     S
C1252  H1399   1.075   .     S
C1252  C1253   1.394   .     A
C1253  H1400   1.079   .     S
C1253  C1254   1.393   .     A
C1254  H1402   1.073   .     S
C1255  C1256   1.405   .     A
C1255  C1261   1.405   .     A
C1256  H1403   1.083   .     S
C1256  C1257   1.396   .     A
C1257  H1404   1.082   .     S
C1257  C1258   1.396   .     A
C1258  H1405   1.081   .     S
C1258  C1259   1.398   .     A
C1259  H1406   1.080   .     S
C1259  C1261   1.397   .     A
C1260  C1275   1.201   .     T
C1261  H1407   1.080   .     S
C1262  C1267   1.399   .     A
C1262  C1263   1.414   .     A
C1263  H1408   1.083   .     S
C1263  C1264   1.390   .     A
C1264  H1409   1.080   .     S
C1264  C1265   1.390   .     A
C1265  C1266   1.394   .     A
C1265  H1410   1.078   .     S
C1266  H1411   1.077   .     S
C1266  C1267   1.394   .     A
C1267  H1413   1.073   .     S
C1268  C1298   1.472   .     S
C1268  O2031   1.276   1_455 A
C1268  O1554   1.276   .     S
C1269  C1274   1.201   .     T
C1270  C1273   1.202   .     T
C1271  C1272   1.202   .     T
C1277  C1334   1.429   .     S
C1279  C1299   1.468   .     S
C1279  O1508   1.273   .     A
C1279  O2079   1.273   1_455 S
C1281  C1822   1.416   .     A
C1281  C1311   1.414   .     A
C1282  C1313   1.417   .     A
C1282  C1299   1.409   .     A
C1283  C1314   1.421   .     A
C1283  C252    1.407   1_565 S
C1284  C1315   1.422   .     A
C1284  C1302   1.400   .     S
C1285  C1307   1.414   .     A
C1285  C1298   1.416   .     S
C1286  C1308   1.417   .     A
C1286  C1823   1.409   .     S
C1287  C1300   1.407   .     A
C1287  C1309   1.421   .     A
C1288  C254    1.400   1_565 A
C1288  C1310   1.422   .     A
C1289  C1320   1.420   .     A
C1289  C1303   1.410   .     A
C1290  C1305   1.467   .     S
C1290  O1509   1.272   .     S
C1290  O1513   1.272   .     S
C1291  C1321   1.421   .     A
C1291  C256    1.399   1_565 A
C1292  C1322   1.420   .     A
C1292  C1829   1.406   .     S
C1293  C1324   1.419   .     A
C1293  C1306   1.404   .     S
C1294  C1316   1.420   .     A
C1294  C255    1.410   1_565 S
C1295  C1317   1.421   .     A
C1295  C1304   1.399   .     S
C1296  C1318   1.420   .     A
C1296  C1305   1.406   .     A
C1297  C1830   1.404   .     A
C1297  C1319   1.419   .     A
C1298  C1805   1.416   1_455 A
C1299  C1810   1.409   1_455 S
C1301  C1306   1.472   .     S
C1301  O1514   1.274   .     A
C1301  O1510   1.274   .     A
C1303  C1312   1.469   .     S
C1304  C1323   1.468   .     S
C1305  C1816   1.406   1_455 S
C1306  C1821   1.404   1_455 A
C1307  C1333   1.418   .     A
C1307  C1325   1.416   .     S
C1308  C1850   1.425   .     A
C1308  C1335   1.427   .     A
C1309  C1336   1.420   .     A
C1309  C1327   1.426   .     S
C1310  C1337   1.426   .     A
C1310  C280    1.435   1_565 A
C1311  C1849   1.416   .     A
C1311  C1338   1.418   .     A
C1312  O1511   1.273   .     S
C1312  O1515   1.273   .     S
C1313  C1339   1.427   .     A
C1313  C1326   1.425   .     S
C1314  C1340   1.420   .     A
C1314  C279    1.426   1_565 A
C1315  C1341   1.426   .     A
C1315  C1328   1.435   .     S
C1316  C281    1.425   1_565 A
C1316  C1342   1.424   .     A
C1317  C1343   1.398   .     A
C1317  C1330   1.409   .     S
C1318  C1344   1.428   .     A
C1318  C1331   1.426   .     A
C1319  C1856   1.404   .     A
C1320  C1329   1.425   .     S
C1321  C282    1.409   1_565 A
C1322  C1855   1.426   .     S
C1323  O1517   1.272   .     A
C1323  O1512   1.272   .     A
C1324  C1332   1.404   .     S
C1325  C1326   1.412   .     A
C1325  C1835   1.416   1_455 A
C1326  C1832   1.425   1_455 A
C1327  C1328   1.424   .     A
C1329  C1330   1.423   1_556 S
C1330  C1329   1.423   1_554 S
C1331  C1846   1.426   1_455 S
C1331  C1332   1.416   1_556 S
C1332  C1843   1.404   1_455 A
C1332  C1331   1.416   1_554 S
C1333  C1339   1.407   .     A
C1334  O1546   1.280   .     A
C1334  O1518   1.280   .     A
C1335  C1338   1.407   .     A
C1336  C1341   1.402   .     A
C1337  C1340   1.402   .     A
C1342  C1053   1.397   1_556 S
C1343  C1052   1.397   1_554 S
C1344  C1055   1.405   1_556 S
H1358  C1725   1.082   .     S
H1416  C32     1.082   1_565 S
H1418  C33     1.081   1_565 S
H1495  C1699   1.082   1_455 S
H1496  C129    1.082   1_565 S
O1505  Zn1568  1.942   .     S
O1505  Zn1560  1.942   .     S
O1505  Zn1557  1.942   .     S
O1506  C112    1.269   1_565 A
O1506  Zn1559  1.954   .     S
O1507  C1792   1.276   .     A
O1507  Zn1562  1.954   .     S
O1508  Zn1561  1.954   .     S
O1509  Zn1571  1.954   .     S
O1510  Zn1570  1.954   .     S
O1511  Zn1565  1.954   .     S
O1512  Zn1557  1.954   .     S
O1513  Zn1567  1.954   .     S
O1514  Zn1566  1.954   .     S
O1515  Zn1569  1.954   .     S
O1516  Zn1563  1.942   .     S
O1516  Zn1565  1.942   .     S
O1516  Zn1569  1.942   .     S
O1517  Zn1568  1.954   .     S
O1518  Zn1560  1.923   .     S
O1519  Zn1559  1.923   .     S
O1520  Zn1562  1.921   .     S
O1521  Zn1561  1.921   .     S
O1522  Zn1564  1.923   .     S
O1523  Zn1563  1.923   .     S
O1524  Zn1558  1.921   .     S
O1525  Zn1572  1.921   .     S
O1526  Zn1559  1.921   .     S
O1527  Zn1570  1.942   .     S
O1527  Zn2086  1.942   1_455 S
O1527  Zn1566  1.942   .     S
O1527  Zn1558  1.942   .     S
O1528  Zn1560  1.921   .     S
O1529  Zn1572  1.923   .     S
O1530  Zn1558  1.923   .     S
O1531  Zn1563  1.921   .     S
O1532  Zn1564  1.921   .     S
O1533  Zn1561  1.923   .     S
O1534  Zn1562  1.923   .     S
O1535  Zn2091  1.923   .     S
O1536  Zn1566  1.923   .     S
O1537  Zn521   1.921   1_565 S
O1538  Zn1571  1.942   .     S
O1538  Zn2096  1.942   1_455 S
O1538  Zn1567  1.942   .     S
O1538  Zn1561  1.942   .     S
O1539  Zn1568  1.921   .     S
O1540  Zn1571  1.923   .     S
O1541  Zn2094  1.923   .     S
O1542  Zn1565  1.921   .     S
O1543  Zn509   1.921   1_565 S
O1544  Zn2090  1.921   .     S
O1545  Zn1567  1.921   .     S
O1546  Zn1557  1.923   .     S
O1547  Zn517   1.923   1_565 S
O1548  Zn1570  1.921   .     S
O1549  Zn1564  1.954   .     S
O1549  C1      1.274   1_565 S
O1550  Zn2095  1.921   .     S
O1551  Zn520   1.923   1_565 S
O1552  Zn1569  1.923   .     S
O1553  Zn1563  1.954   .     S
O1554  Zn1558  1.954   .     S
O1555  Zn1572  1.954   .     S
O1555  C1803   1.273   .     S
O1556  Zn1560  1.954   .     S
Zn1559 O468    1.942   1_565 S
Zn1562 O2051   1.942   .     S
Zn1564 O457    1.942   1_565 S
Zn1566 O2068   1.921   1_455 S
Zn1567 O2059   1.923   1_455 S
Zn1570 O2065   1.923   1_455 S
Zn1571 O2074   1.921   1_455 S
Zn1572 O2062   1.942   .     S
C1573  C1824   1.473   .     S
C1573  O2080   1.274   .     A
C1574  C1800   1.429   .     S
C1574  O2071   1.280   .     A
C1574  O2043   1.280   .     A
C1575  C1759   1.490   .     S
C1575  C1843   1.402   .     A
C1575  C1578   1.405   1_554 S
C1576  C1844   1.424   .     A
C1576  C1766   1.481   .     S
C1576  C1867   1.397   1_556 S
C1577  C1772   1.465   .     S
C1577  C1845   1.398   .     A
C1577  C1866   1.397   1_554 S
C1578  C1846   1.428   .     A
C1578  C1779   1.481   .     S
C1578  C1575   1.405   1_556 S
C1579  C1848   1.402   .     A
C1579  C1786   1.490   .     S
C1579  C1868   1.405   1_554 S
C1580  C1805   1.492   .     S
C1580  C1581   1.409   .     A
C1580  C1586   1.405   .     A
C1581  C1582   1.398   .     A
C1581  H1869   1.083   .     S
C1582  C1583   1.397   .     A
C1582  H1941   1.082   .     S
C1583  H1952   1.082   .     S
C1583  C1584   1.398   .     A
C1584  H1963   1.082   .     S
C1584  C1586   1.398   .     A
C1585  C1799   1.428   .     S
C1585  O2044   1.280   .     A
C1585  O2068   1.280   .     A
C1586  H1974   1.083   .     S
C1587  C1592   1.406   .     A
C1587  C1588   1.404   .     A
C1587  C1806   1.488   .     S
C1588  H1985   1.083   .     S
C1588  C1589   1.399   .     A
C1589  C1590   1.398   .     A
C1589  H1996   1.082   .     S
C1590  H2007   1.082   .     S
C1590  C1591   1.398   .     A
C1591  C1592   1.398   .     A
C1591  H2018   1.082   .     S
C1592  H1870   1.083   .     S
C1593  C1594   1.407   .     A
C1593  C1599   1.405   .     A
C1593  C1807   1.489   .     S
C1594  C1595   1.398   .     A
C1594  H1881   1.083   .     S
C1595  H1892   1.082   .     S
C1595  C1597   1.398   .     A
C1596  O2069   1.280   .     A
C1596  C1798   1.428   .     S
C1596  O2045   1.280   .     A
C1597  C1598   1.398   .     A
C1597  H1903   1.082   .     S
C1598  H1914   1.082   .     S
C1598  C1599   1.399   .     A
C1599  H1925   1.083   .     S
C1600  C1605   1.403   .     A
C1600  C1808   1.491   .     S
C1600  C1601   1.407   .     A
C1601  C1602   1.398   .     A
C1601  H1936   1.083   .     S
C1602  C1603   1.398   .     A
C1602  H1938   1.082   .     S
C1603  H1939   1.082   .     S
C1603  C1604   1.398   .     A
C1604  C1605   1.398   .     A
C1606  C1608   1.409   .     A
C1606  C1612   1.405   .     A
C1606  C1809   1.492   .     S
C1607  C1797   1.429   .     S
C1607  O2046   1.280   .     A
C1607  O2075   1.280   .     A
C1608  C1609   1.398   .     A
C1608  H1943   1.083   .     S
C1609  C1610   1.397   .     A
C1609  H1944   1.082   .     S
C1610  C1611   1.398   .     A
C1610  H1945   1.082   .     S
C1611  C1612   1.398   .     A
C1611  H1946   1.082   .     S
C1612  H1947   1.083   .     S
C1613  C1810   1.488   .     S
C1613  C1619   1.406   .     A
C1613  C1614   1.404   .     A
C1614  C1615   1.399   .     A
C1614  H1948   1.083   .     S
C1615  C1616   1.398   .     A
C1615  H1949   1.082   .     S
C1616  C1617   1.398   .     A
C1616  H1950   1.082   .     S
C1617  C1619   1.398   .     A
C1617  H1951   1.082   .     S
C1618  C1796   1.429   .     S
C1618  O2047   1.280   .     A
C1618  O2076   1.280   .     A
C1619  H1953   1.083   .     S
C1620  C1811   1.489   .     S
C1620  C1625   1.405   .     A
C1620  C1621   1.407   .     A
C1621  C1622   1.398   .     A
C1621  H1954   1.083   .     S
C1622  H1955   1.082   .     S
C1622  C1623   1.398   .     A
C1623  C1624   1.398   .     A
C1623  H1956   1.082   .     S
C1624  C1625   1.399   .     A
C1624  H1957   1.082   .     S
C1625  H1958   1.083   .     S
C1626  C1627   1.407   .     A
C1626  C1632   1.403   .     A
C1626  C1812   1.491   .     S
C1627  C1628   1.398   .     A
C1627  H1959   1.083   .     S
C1628  H1960   1.082   .     S
C1628  C1630   1.398   .     A
C1629  C1804   1.428   .     S
C1629  O2048   1.280   .     A
C1629  O2072   1.280   .     A
C1630  C1631   1.398   .     A
C1630  H1961   1.082   .     S
C1631  C1632   1.398   .     A
C1631  H914    1.082   1_565 S
C1632  H916    1.081   1_565 S
C1633  C1813   1.487   .     S
C1633  C1634   1.405   .     A
C1633  C1638   1.403   .     A
C1634  H1965   1.083   .     S
C1634  C1635   1.398   .     A
C1635  C1636   1.398   .     A
C1635  H1966   1.082   .     S
C1636  H1967   1.082   .     S
C1636  C1637   1.398   .     A
C1637  H1968   1.082   .     S
C1637  C1638   1.398   .     A
C1638  H1969   1.080   .     S
C1639  C1641   1.407   .     A
C1639  C1645   1.404   .     A
C1639  C1815   1.486   .     S
C1640  O2049   1.280   .     A
C1640  C1802   1.428   .     S
C1640  O2074   1.280   .     A
C1641  C1642   1.398   .     A
C1641  H1970   1.083   .     S
C1642  C1643   1.396   .     A
C1642  H1971   1.081   .     S
C1643  H1972   1.082   .     S
C1643  C1644   1.397   .     A
C1644  C1645   1.399   .     A
C1644  H1973   1.082   .     S
C1645  H1975   1.083   .     S
C1646  C1816   1.485   .     S
C1646  C1652   1.404   .     A
C1646  C1647   1.406   .     A
C1647  H1976   1.083   .     S
C1647  C1648   1.398   .     A
C1648  H1977   1.082   .     S
C1648  C1649   1.398   .     A
C1649  C1650   1.398   .     A
C1649  H1978   1.082   .     S
C1650  C1652   1.398   .     A
C1650  H1979   1.082   .     S
C1651  O2061   1.280   .     A
C1651  C1793   1.428   .     S
C1651  O2050   1.280   .     A
C1652  H1980   1.082   .     S
C1653  C1658   1.403   .     A
C1653  C1654   1.407   .     A
C1653  C1817   1.486   .     S
C1654  H1981   1.082   .     S
C1654  C1655   1.398   .     A
C1655  C1656   1.398   .     A
C1655  H1982   1.082   .     S
C1656  H1983   1.080   .     S
C1656  C1657   1.397   .     A
C1657  C1658   1.399   .     A
C1657  H1984   1.082   .     S
C1658  H1986   1.083   .     S
C1659  C1665   1.403   .     A
C1659  C1660   1.405   .     A
C1659  C1818   1.487   .     S
C1660  C1661   1.398   .     A
C1660  H1987   1.083   .     S
C1661  C1663   1.398   .     A
C1661  H1988   1.082   .     S
C1662  C1784   1.428   .     S
C1662  O2052   1.280   .     A
C1662  O2063   1.280   .     A
C1663  H1989   1.082   .     S
C1663  C1664   1.398   .     A
C1664  H1990   1.082   .     S
C1664  C1665   1.398   .     A
C1665  H1991   1.080   .     S
C1666  C1819   1.486   .     S
C1666  C1667   1.407   .     A
C1666  C1671   1.404   .     A
C1667  C1668   1.398   .     A
C1667  H1992   1.083   .     S
C1668  H1993   1.081   .     S
C1668  C1669   1.396   .     A
C1669  C1670   1.397   .     A
C1669  H1994   1.082   .     S
C1670  C1671   1.399   .     A
C1670  H1995   1.082   .     S
C1671  H1997   1.083   .     S
C1672  C1678   1.404   .     A
C1672  C1820   1.485   .     S
C1672  C1674   1.406   .     A
C1673  C1773   1.429   .     S
C1673  O2053   1.280   .     A
C1673  O2059   1.280   .     A
C1674  H1998   1.083   .     S
C1674  C1675   1.398   .     A
C1675  H1999   1.082   .     S
C1675  C1676   1.398   .     A
C1676  C1677   1.398   .     A
C1676  H2000   1.082   .     S
C1677  C1678   1.398   .     A
C1677  H2001   1.082   .     S
C1678  H2002   1.082   .     S
C1679  C1680   1.407   .     A
C1679  C1686   1.403   .     A
C1679  C1821   1.486   .     S
C1680  C1681   1.398   .     A
C1680  H2003   1.082   .     S
C1681  H2004   1.082   .     S
C1681  C1682   1.398   .     A
C1682  C1683   1.397   .     A
C1682  H2005   1.080   .     S
C1683  H2006   1.082   .     S
C1683  C1686   1.399   .     A
C1684  C1826   1.458   .     S
C1684  O2077   1.269   .     S
C1685  O2054   1.280   .     A
C1685  O2060   1.281   .     A
C1685  C1762   1.429   .     S
C1686  H2008   1.083   .     S
C1687  C1857   1.490   .     S
C1687  C1688   1.403   .     A
C1687  C1692   1.406   .     A
C1688  H2009   1.082   .     S
C1688  C1689   1.398   .     A
C1689  H2010   1.081   .     S
C1689  C1690   1.398   .     A
C1690  C1691   1.398   .     A
C1690  H2011   1.082   .     S
C1691  H2012   1.082   .     S
C1691  C1692   1.398   .     A
C1692  H2013   1.083   .     S
C1693  C1699   1.402   .     A
C1693  C1859   1.489   .     S
C1693  C1694   1.406   .     A
C1694  H2014   1.082   .     S
C1694  C1695   1.397   .     A
C1695  C1697   1.398   .     A
C1695  H2015   1.082   .     S
C1696  O2066   1.280   .     A
C1696  O2055   1.280   .     A
C1696  C1751   1.428   .     S
C1697  H2016   1.080   .     S
C1697  C1698   1.396   .     A
C1698  C1699   1.398   .     A
C1698  H2017   1.082   .     S
C1699  H1495   1.082   1_655 S
C1700  C1860   1.492   .     S
C1700  C1701   1.403   .     A
C1700  C1705   1.408   .     A
C1701  C1702   1.398   .     A
C1702  C1703   1.397   .     A
C1702  H2021   1.081   .     S
C1703  H2022   1.080   .     S
C1703  C1704   1.397   .     A
C1704  C1705   1.398   .     A
C1704  H2023   1.083   .     S
C1705  H2024   1.082   .     S
C1706  C1861   1.487   .     S
C1706  C1712   1.405   .     A
C1706  C1708   1.405   .     A
C1707  C1740   1.428   .     S
C1707  O2067   1.280   .     A
C1707  O2056   1.280   .     A
C1708  H2025   1.083   .     S
C1708  C1709   1.399   .     A
C1709  H2026   1.082   .     S
C1709  C1710   1.398   .     A
C1710  H2027   1.083   .     S
C1710  C1711   1.398   .     A
C1711  C1712   1.397   .     A
C1711  H2028   1.079   .     S
C1712  H1871   1.082   .     S
C1713  C1719   1.406   .     A
C1713  C1862   1.490   .     S
C1713  C1714   1.403   .     A
C1714  H1872   1.082   .     S
C1714  C1715   1.398   .     A
C1715  C1716   1.398   .     A
C1715  H1873   1.081   .     S
C1716  C1717   1.398   .     A
C1716  H1874   1.082   .     S
C1717  H1875   1.082   .     S
C1717  C1719   1.398   .     A
C1718  O2057   1.280   .     A
C1718  O2064   1.280   .     A
C1718  C1795   1.429   .     S
C1719  H1876   1.083   .     S
C1720  C1863   1.489   .     S
C1720  C1721   1.406   .     A
C1720  C1725   1.402   .     A
C1721  H1877   1.082   .     S
C1721  C1722   1.397   .     A
C1722  C1723   1.398   .     A
C1722  H1878   1.082   .     S
C1723  C1724   1.396   .     A
C1723  H1879   1.080   .     S
C1724  C1725   1.398   .     A
C1724  H1880   1.082   .     S
C1726  C1727   1.403   .     A
C1726  C1732   1.408   .     A
C1726  C1864   1.492   .     S
C1727  C1728   1.398   .     A
C1727  H835    1.082   1_565 S
C1728  H1884   1.081   .     S
C1728  C1730   1.397   .     A
C1729  O2065   1.281   .     A
C1729  O2058   1.280   .     A
C1729  C1794   1.429   .     S
C1730  C1731   1.397   .     A
C1730  H1885   1.080   .     S
C1731  C1732   1.398   .     A
C1731  H1886   1.083   .     S
C1732  H1887   1.082   .     S
C1733  C1734   1.405   .     A
C1733  C1865   1.487   .     S
C1733  C1738   1.405   .     A
C1734  H1888   1.083   .     S
C1734  C1735   1.399   .     A
C1735  H1889   1.082   .     S
C1735  C1736   1.398   .     A
C1736  C1737   1.398   .     A
C1736  H1890   1.083   .     S
C1737  C1738   1.397   .     A
C1737  H1891   1.079   .     S
C1738  H1893   1.082   .     S
C1739  C1741   1.405   .     A
C1739  C1745   1.403   .     A
C1739  C1866   1.481   .     S
C1740  C1804   1.201   .     T
C1741  H1894   1.083   .     S
C1741  C1742   1.397   .     A
C1742  C1743   1.396   .     A
C1742  H1895   1.082   .     S
C1743  H1896   1.080   .     S
C1743  C1744   1.397   .     A
C1744  H1897   1.082   .     S
C1744  C1745   1.398   .     A
C1745  H1898   1.077   .     S
C1746  C1747   1.402   .     A
C1746  C1752   1.389   .     A
C1746  C1867   1.465   .     S
C1747  C1748   1.391   .     A
C1747  H1899   1.083   .     S
C1748  H1900   1.080   .     S
C1748  C1749   1.395   .     A
C1749  H1901   1.075   .     S
C1749  C1750   1.394   .     A
C1750  H1902   1.079   .     S
C1750  C1752   1.393   .     A
C1751  C1802   1.201   .     T
C1752  H1904   1.073   .     S
C1753  C1868   1.481   .     S
C1753  C1754   1.405   .     A
C1753  C1758   1.405   .     A
C1754  H1905   1.083   .     S
C1754  C1755   1.396   .     A
C1755  H1906   1.082   .     S
C1755  C1756   1.396   .     A
C1756  H1907   1.081   .     S
C1756  C1757   1.398   .     A
C1757  H1908   1.080   .     S
C1757  C1758   1.397   .     A
C1758  H1909   1.080   .     S
C1759  C1765   1.399   .     A
C1759  C1760   1.414   .     A
C1760  H1910   1.083   .     S
C1760  C1761   1.390   .     A
C1761  C1763   1.390   .     A
C1761  H1911   1.080   .     S
C1762  C1801   1.202   .     T
C1763  H1912   1.078   .     S
C1763  C1764   1.394   .     A
C1764  H1913   1.077   .     S
C1764  C1765   1.394   .     A
C1765  H1915   1.073   .     S
C1766  C1767   1.405   .     A
C1766  C1771   1.403   .     A
C1767  C1768   1.397   .     A
C1767  H1916   1.083   .     S
C1768  C1769   1.396   .     A
C1768  H1917   1.082   .     S
C1769  C1770   1.397   .     A
C1769  H1918   1.080   .     S
C1770  H1919   1.082   .     S
C1770  C1771   1.398   .     A
C1771  H1920   1.077   .     S
C1772  C1774   1.402   .     A
C1772  C1778   1.389   .     A
C1773  C1800   1.202   .     T
C1774  C1775   1.391   .     A
C1774  H1921   1.083   .     S
C1775  C1776   1.395   .     A
C1775  H1922   1.080   .     S
C1776  H1923   1.075   .     S
C1776  C1777   1.394   .     A
C1777  H1924   1.079   .     S
C1777  C1778   1.393   .     A
C1778  H1926   1.073   .     S
C1779  C1780   1.405   .     A
C1779  C1785   1.405   .     A
C1780  H1927   1.083   .     S
C1780  C1781   1.396   .     A
C1781  H1928   1.082   .     S
C1781  C1782   1.396   .     A
C1782  H1929   1.081   .     S
C1782  C1783   1.398   .     A
C1783  H1930   1.080   .     S
C1783  C1785   1.397   .     A
C1784  C1799   1.201   .     T
C1785  H1931   1.080   .     S
C1786  C1791   1.399   .     A
C1786  C1787   1.414   .     A
C1787  H1932   1.083   .     S
C1787  C1788   1.390   .     A
C1788  H1933   1.080   .     S
C1788  C1789   1.390   .     A
C1789  C1790   1.394   .     A
C1789  H1934   1.078   .     S
C1790  H1935   1.077   .     S
C1790  C1791   1.394   .     A
C1791  H1937   1.073   .     S
C1792  C1822   1.472   .     S
C1792  O2078   1.276   .     S
C1793  C1798   1.201   .     T
C1794  C1797   1.202   .     T
C1795  C1796   1.202   .     T
C1801  C1858   1.429   .     S
C1803  C1823   1.468   .     S
C1803  O2032   1.273   .     A
C1805  C1298   1.416   1_655 A
C1805  C1835   1.414   .     A
C1806  C1837   1.417   .     A
C1806  C1823   1.409   .     A
C1807  C1838   1.421   .     A
C1807  C776    1.407   1_565 S
C1808  C1839   1.422   .     A
C1808  C1826   1.400   .     S
C1809  C1831   1.414   .     A
C1809  C1822   1.416   .     S
C1810  C1832   1.417   .     A
C1810  C1299   1.409   1_655 S
C1811  C1824   1.407   .     A
C1811  C1833   1.421   .     A
C1812  C778    1.400   1_565 A
C1812  C1834   1.422   .     A
C1813  C1844   1.420   .     A
C1813  C1827   1.410   .     A
C1814  C1829   1.467   .     S
C1814  O2033   1.272   .     S
C1814  O2037   1.272   .     S
C1815  C1845   1.421   .     A
C1815  C780    1.399   1_565 A
C1816  C1846   1.420   .     A
C1816  C1305   1.406   1_655 S
C1817  C1848   1.419   .     A
C1817  C1830   1.404   .     S
C1818  C1840   1.420   .     A
C1818  C779    1.410   1_565 S
C1819  C1841   1.421   .     A
C1819  C1828   1.399   .     S
C1820  C1842   1.420   .     A
C1820  C1829   1.406   .     A
C1821  C1306   1.404   1_655 A
C1821  C1843   1.419   .     A
C1825  C1830   1.472   .     S
C1825  O2038   1.274   .     A
C1825  O2034   1.274   .     A
C1827  C1836   1.469   .     S
C1828  C1847   1.468   .     S
C1831  C1857   1.418   .     A
C1831  C1849   1.416   .     S
C1832  C1326   1.425   1_655 A
C1832  C1859   1.427   .     A
C1833  C1860   1.420   .     A
C1833  C1851   1.426   .     S
C1834  C1861   1.426   .     A
C1834  C804    1.435   1_565 A
C1835  C1325   1.416   1_655 A
C1835  C1862   1.418   .     A
C1836  O2035   1.273   .     S
C1836  O2039   1.273   .     S
C1837  C1863   1.427   .     A
C1837  C1850   1.425   .     S
C1838  C1864   1.420   .     A
C1838  C803    1.426   1_565 A
C1839  C1865   1.426   .     A
C1839  C1852   1.435   .     S
C1840  C805    1.425   1_565 A
C1840  C1866   1.424   .     A
C1841  C1867   1.398   .     A
C1841  C1854   1.409   .     S
C1842  C1868   1.428   .     A
C1842  C1855   1.426   .     A
C1843  C1332   1.404   1_655 A
C1844  C1853   1.425   .     S
C1845  C806    1.409   1_565 A
C1846  C1331   1.426   1_655 S
C1847  O2041   1.272   .     A
C1847  O2036   1.272   .     A
C1848  C1856   1.404   .     S
C1849  C1850   1.412   .     A
C1851  C1852   1.424   .     A
C1853  C1854   1.423   1_556 S
C1854  C1853   1.423   1_554 S
C1855  C1856   1.416   1_556 S
C1856  C1855   1.416   1_554 S
C1857  C1863   1.407   .     A
C1858  O2070   1.280   .     A
C1858  O2042   1.280   .     A
C1859  C1862   1.407   .     A
C1860  C1865   1.402   .     A
C1861  C1864   1.402   .     A
C1866  C1577   1.397   1_556 S
C1867  C1576   1.397   1_554 S
C1868  C1579   1.405   1_556 S
H1882  C1201   1.082   1_655 S
H1940  C556    1.082   1_565 S
H1942  C557    1.081   1_565 S
H2020  C653    1.082   1_565 S
O2029  Zn2092  1.942   .     S
O2029  Zn2084  1.942   .     S
O2029  Zn2081  1.942   .     S
O2030  C636    1.269   1_565 A
O2030  Zn2083  1.954   .     S
O2031  C1268   1.276   1_655 A
O2031  Zn2086  1.954   .     S
O2032  Zn2085  1.954   .     S
O2033  Zn2095  1.954   .     S
O2034  Zn2094  1.954   .     S
O2035  Zn2089  1.954   .     S
O2036  Zn2081  1.954   .     S
O2037  Zn2091  1.954   .     S
O2038  Zn2090  1.954   .     S
O2039  Zn2093  1.954   .     S
O2040  Zn2087  1.942   .     S
O2040  Zn2089  1.942   .     S
O2040  Zn2093  1.942   .     S
O2041  Zn2092  1.954   .     S
O2042  Zn2084  1.923   .     S
O2043  Zn2083  1.923   .     S
O2044  Zn2086  1.921   .     S
O2045  Zn2085  1.921   .     S
O2046  Zn2088  1.923   .     S
O2047  Zn2087  1.923   .     S
O2048  Zn2082  1.921   .     S
O2049  Zn2096  1.921   .     S
O2050  Zn2083  1.921   .     S
O2051  Zn2094  1.942   .     S
O2051  Zn2090  1.942   .     S
O2051  Zn2082  1.942   .     S
O2052  Zn2084  1.921   .     S
O2053  Zn2096  1.923   .     S
O2054  Zn2082  1.923   .     S
O2055  Zn2087  1.921   .     S
O2056  Zn2088  1.921   .     S
O2057  Zn2085  1.923   .     S
O2058  Zn2086  1.923   .     S
O2059  Zn1567  1.923   1_655 S
O2060  Zn2090  1.923   .     S
O2061  Zn1045  1.921   1_565 S
O2062  Zn2095  1.942   .     S
O2062  Zn2091  1.942   .     S
O2062  Zn2085  1.942   .     S
O2063  Zn2092  1.921   .     S
O2064  Zn2095  1.923   .     S
O2065  Zn1570  1.923   1_655 S
O2066  Zn2089  1.921   .     S
O2067  Zn1033  1.921   1_565 S
O2068  Zn1566  1.921   1_655 S
O2069  Zn2091  1.921   .     S
O2070  Zn2081  1.923   .     S
O2071  Zn1041  1.923   1_565 S
O2072  Zn2094  1.921   .     S
O2073  Zn2088  1.954   .     S
O2073  C525    1.274   1_565 S
O2074  Zn1571  1.921   1_655 S
O2075  Zn1044  1.923   1_565 S
O2076  Zn2093  1.923   .     S
O2077  Zn2087  1.954   .     S
O2078  Zn2082  1.954   .     S
O2079  Zn2096  1.954   .     S
O2079  C1279   1.273   1_655 S
O2080  Zn2084  1.954   .     S
Zn2083 O992    1.942   1_565 S
Zn2086 O1527   1.942   1_655 S
Zn2088 O981    1.942   1_565 S
Zn2096 O1538   1.942   1_655 S
