data_str_m1_o1_o17_pcu_sym.73
_audit_creation_date              2020-01-03
_audit_creation_method            'Materials Studio'
_symmetry_space_group_name_H-M    'P1'
_symmetry_Int_Tables_number       1
_symmetry_cell_setting            triclinic
loop_
_symmetry_equiv_pos_as_xyz
  x,y,z
_cell_length_a                    36.7328
_cell_length_b                    36.7328
_cell_length_c                    34.4501
_cell_angle_alpha                 90.0000
_cell_angle_beta                  90.0000
_cell_angle_gamma                 89.8833
loop_
_atom_site_label
_atom_site_type_symbol
_atom_site_fract_x
_atom_site_fract_y
_atom_site_fract_z
_atom_site_U_iso_or_equiv
_atom_site_adp_type
_atom_site_occupancy
C1     C     0.00582   0.28260   0.41808   0.00000  Uiso   1.00
C2     C     0.24418   0.46740   0.08192   0.00000  Uiso   1.00
C3     C     0.21807   0.48953   0.54112   0.00000  Uiso   1.00
C4     C     0.01047   0.28193   0.45888   0.00000  Uiso   1.00
C5     C     0.48953   0.21807   0.54112   0.00000  Uiso   1.00
C6     C     0.21807   0.48953   0.45888   0.00000  Uiso   1.00
C7     C     0.28193   0.01047   0.54112   0.00000  Uiso   1.00
C8     C     0.23953   0.46807   0.95888   0.00000  Uiso   1.00
C9     C     0.26047   0.03193   0.04112   0.00000  Uiso   1.00
C10    C     0.03193   0.26047   0.95888   0.00000  Uiso   1.00
C11    C     0.46807   0.23953   0.04112   0.00000  Uiso   1.00
C12    C     0.26047   0.03193   0.95888   0.00000  Uiso   1.00
C13    C     0.46740   0.24418   0.91808   0.00000  Uiso   1.00
C14    C     0.23953   0.46807   0.04112   0.00000  Uiso   1.00
C15    C     0.46807   0.23953   0.95888   0.00000  Uiso   1.00
C16    C     0.03193   0.26047   0.04112   0.00000  Uiso   1.00
C17    C     0.09811   0.34811   0.25000   0.00000  Uiso   1.00
C18    C     0.40189   0.15189   0.75000   0.00000  Uiso   1.00
C19    C     0.15190   0.09810   0.25000   0.00000  Uiso   1.00
C20    C     0.34810   0.40190   0.75000   0.00000  Uiso   1.00
C21    C     0.40189   0.15189   0.25000   0.00000  Uiso   1.00
C22    C     0.09811   0.34811   0.75000   0.00000  Uiso   1.00
C23    C     0.34810   0.40190   0.25000   0.00000  Uiso   1.00
C24    C     0.03260   0.25582   0.08192   0.00000  Uiso   1.00
C25    C     0.15190   0.09810   0.75000   0.00000  Uiso   1.00
C26    C     0.09810   0.15190   0.75000   0.00000  Uiso   1.00
C27    C     0.40190   0.34810   0.25000   0.00000  Uiso   1.00
C28    C     0.15189   0.40189   0.75000   0.00000  Uiso   1.00
C29    C     0.34811   0.09811   0.25000   0.00000  Uiso   1.00
C30    C     0.40190   0.34810   0.75000   0.00000  Uiso   1.00
C31    C     0.09810   0.15190   0.25000   0.00000  Uiso   1.00
C32    C     0.34811   0.09811   0.75000   0.00000  Uiso   1.00
C33    C     0.15189   0.40189   0.25000   0.00000  Uiso   1.00
C34    C     0.00000   0.25000   0.47946   0.00000  Uiso   1.00
C35    C     0.24418   0.46740   0.91808   0.00000  Uiso   1.00
C36    C     0.00000   0.25000   0.52054   0.00000  Uiso   1.00
C37    C     0.25000  -0.00000   0.47946   0.00000  Uiso   1.00
C38    C     0.25000  -0.00000   0.52054   0.00000  Uiso   1.00
C39    C     0.25000  -0.00000   0.97946   0.00000  Uiso   1.00
C40    C     0.25000  -0.00000   0.02054   0.00000  Uiso   1.00
C41    C    -0.00000   0.25000   0.97946   0.00000  Uiso   1.00
C42    C    -0.00000   0.25000   0.02054   0.00000  Uiso   1.00
C43    C     0.45472   0.15935   0.45980   0.00000  Uiso   1.00
C44    C     0.04528   0.34065   0.54020   0.00000  Uiso   1.00
C45    C     0.34065   0.04528   0.45980   0.00000  Uiso   1.00
C46    C     0.25582   0.03260   0.08192   0.00000  Uiso   1.00
C47    C     0.15935   0.45472   0.54020   0.00000  Uiso   1.00
C48    C     0.04528   0.34065   0.45980   0.00000  Uiso   1.00
C49    C     0.45472   0.15935   0.54020   0.00000  Uiso   1.00
C50    C     0.15935   0.45472   0.45980   0.00000  Uiso   1.00
C51    C     0.34065   0.04528   0.54020   0.00000  Uiso   1.00
C52    C     0.20472   0.40935   0.95980   0.00000  Uiso   1.00
C53    C     0.29528   0.09065   0.04020   0.00000  Uiso   1.00
C54    C     0.09065   0.29528   0.95980   0.00000  Uiso   1.00
C55    C     0.40935   0.20472   0.04020   0.00000  Uiso   1.00
C56    C     0.29528   0.09065   0.95980   0.00000  Uiso   1.00
C57    C     0.03260   0.25582   0.91808   0.00000  Uiso   1.00
C58    C     0.20472   0.40935   0.04020   0.00000  Uiso   1.00
C59    C     0.40935   0.20472   0.95980   0.00000  Uiso   1.00
C60    C     0.09065   0.29528   0.04020   0.00000  Uiso   1.00
C61    C     0.00389   0.31652   0.39655   0.00000  Uiso   1.00
C62    C     0.49611   0.18348   0.60345   0.00000  Uiso   1.00
C63    C     0.18348   0.49611   0.39655   0.00000  Uiso   1.00
C64    C     0.31652   0.00389   0.60345   0.00000  Uiso   1.00
C65    C     0.49611   0.18348   0.39655   0.00000  Uiso   1.00
C66    C     0.00389   0.31652   0.60345   0.00000  Uiso   1.00
C67    C     0.31652   0.00389   0.39655   0.00000  Uiso   1.00
C68    C     0.46740   0.24418   0.08192   0.00000  Uiso   1.00
C69    C     0.18348   0.49611   0.60345   0.00000  Uiso   1.00
C70    C     0.25389   0.06652   0.89655   0.00000  Uiso   1.00
C71    C     0.24611   0.43348   0.10345   0.00000  Uiso   1.00
C72    C     0.43348   0.24611   0.89655   0.00000  Uiso   1.00
C73    C     0.06652   0.25389   0.10345   0.00000  Uiso   1.00
C74    C     0.24611   0.43348   0.89655   0.00000  Uiso   1.00
C75    C     0.25389   0.06652   0.10345   0.00000  Uiso   1.00
C76    C     0.06652   0.25389   0.89655   0.00000  Uiso   1.00
C77    C     0.43348   0.24611   0.10345   0.00000  Uiso   1.00
C78    C     0.00000   0.25000   0.39803   0.00000  Uiso   1.00
C79    C    -0.00000   0.25000   0.60197   0.00000  Uiso   1.00
C80    C     0.25000  -0.00000   0.39803   0.00000  Uiso   1.00
C81    C     0.49418   0.21740   0.58192   0.00000  Uiso   1.00
C82    C     0.25000  -0.00000   0.60197   0.00000  Uiso   1.00
C83    C     0.25000  -0.00000   0.89803   0.00000  Uiso   1.00
C84    C     0.25000  -0.00000   0.10197   0.00000  Uiso   1.00
C85    C    -0.00000   0.25000   0.89803   0.00000  Uiso   1.00
C86    C    -0.00000   0.25000   0.10197   0.00000  Uiso   1.00
C87    C     0.47419   0.18841   0.47962   0.00000  Uiso   1.00
C88    C     0.02582   0.31159   0.52038   0.00000  Uiso   1.00
C89    C     0.31159   0.02581   0.47962   0.00000  Uiso   1.00
C90    C     0.18841   0.47419   0.52038   0.00000  Uiso   1.00
C91    C     0.02582   0.31159   0.47962   0.00000  Uiso   1.00
C92    C     0.21740   0.49418   0.41808   0.00000  Uiso   1.00
C93    C     0.47419   0.18841   0.52038   0.00000  Uiso   1.00
C94    C     0.18841   0.47419   0.47962   0.00000  Uiso   1.00
C95    C     0.31159   0.02581   0.52038   0.00000  Uiso   1.00
C96    C     0.22419   0.43841   0.97962   0.00000  Uiso   1.00
C97    C     0.27581   0.06159   0.02038   0.00000  Uiso   1.00
C98    C     0.06159   0.27582   0.97962   0.00000  Uiso   1.00
C99    C     0.43841   0.22419   0.02038   0.00000  Uiso   1.00
C100   C     0.27581   0.06159   0.97962   0.00000  Uiso   1.00
C101   C     0.22419   0.43841   0.02038   0.00000  Uiso   1.00
C102   C     0.43841   0.22419   0.97962   0.00000  Uiso   1.00
C103   C     0.28260   0.00582   0.58192   0.00000  Uiso   1.00
C104   C     0.06159   0.27582   0.02038   0.00000  Uiso   1.00
C105   C     0.25000  -0.00000   0.35567   0.00000  Uiso   1.00
C106   C     0.25000  -0.00000   0.64433   0.00000  Uiso   1.00
C107   C    -0.00000   0.25000   0.35567   0.00000  Uiso   1.00
C108   C    -0.00000   0.25000   0.64433   0.00000  Uiso   1.00
C109   C     0.00000   0.25000   0.85567   0.00000  Uiso   1.00
C110   C    -0.00000   0.25000   0.14433   0.00000  Uiso   1.00
C111   C     0.25000  -0.00000   0.85567   0.00000  Uiso   1.00
C112   C     0.25000  -0.00000   0.14433   0.00000  Uiso   1.00
C113   C     0.17998   0.07002   0.25000   0.00000  Uiso   1.00
C114   C     0.49418   0.21740   0.41808   0.00000  Uiso   1.00
C115   C     0.32002   0.42998   0.75000   0.00000  Uiso   1.00
C116   C     0.42997   0.17997   0.25000   0.00000  Uiso   1.00
C117   C     0.07003   0.32003   0.75000   0.00000  Uiso   1.00
C118   C     0.32002   0.42998   0.25000   0.00000  Uiso   1.00
C119   C     0.17998   0.07002   0.75000   0.00000  Uiso   1.00
C120   C     0.07003   0.32003   0.25000   0.00000  Uiso   1.00
C121   C     0.42997   0.17997   0.75000   0.00000  Uiso   1.00
C122   C     0.17997   0.42997   0.75000   0.00000  Uiso   1.00
C123   C     0.32003   0.07003   0.25000   0.00000  Uiso   1.00
C124   C     0.42998   0.32002   0.75000   0.00000  Uiso   1.00
C125   C     0.00582   0.28260   0.58192   0.00000  Uiso   1.00
C126   C     0.07002   0.17998   0.25000   0.00000  Uiso   1.00
C127   C     0.32003   0.07003   0.75000   0.00000  Uiso   1.00
C128   C     0.17997   0.42997   0.25000   0.00000  Uiso   1.00
C129   C     0.07002   0.17998   0.75000   0.00000  Uiso   1.00
C130   C     0.42998   0.32002   0.25000   0.00000  Uiso   1.00
C131   C     0.13917   0.38778   0.21440   0.00000  Uiso   1.00
C132   C     0.36083   0.11222   0.78560   0.00000  Uiso   1.00
C133   C     0.11378   0.14078   0.21455   0.00000  Uiso   1.00
C134   C     0.38622   0.35922   0.78545   0.00000  Uiso   1.00
C135   C     0.36083   0.11222   0.21440   0.00000  Uiso   1.00
C136   C     0.28260   0.00582   0.41808   0.00000  Uiso   1.00
C137   C     0.13917   0.38778   0.78560   0.00000  Uiso   1.00
C138   C     0.38622   0.35922   0.21455   0.00000  Uiso   1.00
C139   C     0.11378   0.14078   0.78545   0.00000  Uiso   1.00
C140   C     0.14078   0.11378   0.78545   0.00000  Uiso   1.00
C141   C     0.35922   0.38622   0.21455   0.00000  Uiso   1.00
C142   C     0.11222   0.36083   0.78560   0.00000  Uiso   1.00
C143   C     0.38778   0.13917   0.21440   0.00000  Uiso   1.00
C144   C     0.35922   0.38622   0.78545   0.00000  Uiso   1.00
C145   C     0.14078   0.11378   0.21455   0.00000  Uiso   1.00
C146   C     0.38778   0.13917   0.78560   0.00000  Uiso   1.00
C147   C     0.21740   0.49418   0.58192   0.00000  Uiso   1.00
C148   C     0.11222   0.36083   0.21440   0.00000  Uiso   1.00
C149   C     0.38917   0.13778   0.71440   0.00000  Uiso   1.00
C150   C     0.11083   0.36222   0.28560   0.00000  Uiso   1.00
C151   C     0.36378   0.39078   0.71455   0.00000  Uiso   1.00
C152   C     0.13622   0.10922   0.28545   0.00000  Uiso   1.00
C153   C     0.11083   0.36222   0.71440   0.00000  Uiso   1.00
C154   C     0.38917   0.13778   0.28560   0.00000  Uiso   1.00
C155   C     0.13622   0.10922   0.71455   0.00000  Uiso   1.00
C156   C     0.36378   0.39078   0.28545   0.00000  Uiso   1.00
C157   C     0.39078   0.36378   0.28545   0.00000  Uiso   1.00
C158   C     0.25582   0.03260   0.91808   0.00000  Uiso   1.00
C159   C     0.10922   0.13622   0.71455   0.00000  Uiso   1.00
C160   C     0.36222   0.11083   0.28560   0.00000  Uiso   1.00
C161   C     0.13778   0.38917   0.71440   0.00000  Uiso   1.00
C162   C     0.10922   0.13622   0.28545   0.00000  Uiso   1.00
C163   C     0.39078   0.36378   0.71455   0.00000  Uiso   1.00
C164   C     0.13778   0.38917   0.28560   0.00000  Uiso   1.00
C165   C     0.36222   0.11083   0.71440   0.00000  Uiso   1.00
C166   C     0.48953   0.21807   0.45888   0.00000  Uiso   1.00
C167   C     0.01047   0.28193   0.54112   0.00000  Uiso   1.00
C168   C     0.28193   0.01047   0.45888   0.00000  Uiso   1.00
I169   I     0.16206   0.40549   0.16020   0.00000  Uiso   1.00
I170   I     0.33372   0.40177   0.16094   0.00000  Uiso   1.00
I171   I     0.09451   0.33794   0.83980   0.00000  Uiso   1.00
I172   I     0.40549   0.16206   0.16020   0.00000  Uiso   1.00
I173   I     0.33372   0.40177   0.83906   0.00000  Uiso   1.00
I174   I     0.16628   0.09823   0.16094   0.00000  Uiso   1.00
I175   I     0.40549   0.16206   0.83980   0.00000  Uiso   1.00
I176   I     0.09451   0.33794   0.16020   0.00000  Uiso   1.00
I177   I     0.41206   0.15549   0.66020   0.00000  Uiso   1.00
I178   I     0.08794   0.34451   0.33980   0.00000  Uiso   1.00
I179   I     0.34823   0.41628   0.66094   0.00000  Uiso   1.00
I180   I     0.33794   0.09451   0.83980   0.00000  Uiso   1.00
I181   I     0.15177   0.08372   0.33906   0.00000  Uiso   1.00
I182   I     0.08794   0.34451   0.66020   0.00000  Uiso   1.00
I183   I     0.41206   0.15549   0.33980   0.00000  Uiso   1.00
I184   I     0.15177   0.08372   0.66094   0.00000  Uiso   1.00
I185   I     0.34823   0.41628   0.33906   0.00000  Uiso   1.00
I186   I     0.41628   0.34823   0.33906   0.00000  Uiso   1.00
I187   I     0.08372   0.15177   0.66094   0.00000  Uiso   1.00
I188   I     0.34451   0.08794   0.33980   0.00000  Uiso   1.00
I189   I     0.15549   0.41206   0.66020   0.00000  Uiso   1.00
I190   I     0.08372   0.15177   0.33906   0.00000  Uiso   1.00
I191   I     0.09823   0.16628   0.16094   0.00000  Uiso   1.00
I192   I     0.41628   0.34823   0.66094   0.00000  Uiso   1.00
I193   I     0.15549   0.41206   0.33980   0.00000  Uiso   1.00
I194   I     0.34451   0.08794   0.66020   0.00000  Uiso   1.00
I195   I     0.40177   0.33372   0.83906   0.00000  Uiso   1.00
I196   I     0.33794   0.09451   0.16020   0.00000  Uiso   1.00
I197   I     0.16206   0.40549   0.83980   0.00000  Uiso   1.00
I198   I     0.40177   0.33372   0.16094   0.00000  Uiso   1.00
I199   I     0.09823   0.16628   0.83906   0.00000  Uiso   1.00
I200   I     0.16628   0.09823   0.83906   0.00000  Uiso   1.00
N201   N     0.43905   0.13616   0.44439   0.00000  Uiso   1.00
N202   N     0.31095   0.11384   0.05561   0.00000  Uiso   1.00
N203   N     0.11384   0.31095   0.94439   0.00000  Uiso   1.00
N204   N     0.38616   0.18905   0.05561   0.00000  Uiso   1.00
N205   N     0.31095   0.11384   0.94439   0.00000  Uiso   1.00
N206   N     0.18905   0.38616   0.05561   0.00000  Uiso   1.00
N207   N     0.38616   0.18905   0.94439   0.00000  Uiso   1.00
N208   N     0.11384   0.31095   0.05561   0.00000  Uiso   1.00
N209   N     0.00210   0.34354   0.37939   0.00000  Uiso   1.00
N210   N     0.49790   0.15646   0.62061   0.00000  Uiso   1.00
N211   N     0.15646   0.49790   0.37939   0.00000  Uiso   1.00
N212   N     0.06095   0.36383   0.55561   0.00000  Uiso   1.00
N213   N     0.34354   0.00210   0.62061   0.00000  Uiso   1.00
N214   N     0.49790   0.15646   0.37939   0.00000  Uiso   1.00
N215   N     0.00210   0.34354   0.62061   0.00000  Uiso   1.00
N216   N     0.34354   0.00210   0.37939   0.00000  Uiso   1.00
N217   N     0.15646   0.49790   0.62061   0.00000  Uiso   1.00
N218   N     0.25210   0.09354   0.87939   0.00000  Uiso   1.00
N219   N     0.24790   0.40646   0.12061   0.00000  Uiso   1.00
N220   N     0.40646   0.24790   0.87939   0.00000  Uiso   1.00
N221   N     0.09354   0.25210   0.12061   0.00000  Uiso   1.00
N222   N     0.24790   0.40646   0.87939   0.00000  Uiso   1.00
N223   N     0.36384   0.06095   0.44439   0.00000  Uiso   1.00
N224   N     0.25210   0.09354   0.12061   0.00000  Uiso   1.00
N225   N     0.09354   0.25210   0.87939   0.00000  Uiso   1.00
N226   N     0.40646   0.24790   0.12061   0.00000  Uiso   1.00
N227   N     0.13616   0.43905   0.55561   0.00000  Uiso   1.00
N228   N     0.06095   0.36383   0.44439   0.00000  Uiso   1.00
N229   N     0.43905   0.13616   0.55561   0.00000  Uiso   1.00
N230   N     0.13616   0.43905   0.44439   0.00000  Uiso   1.00
N231   N     0.36384   0.06095   0.55561   0.00000  Uiso   1.00
N232   N     0.18905   0.38616   0.94439   0.00000  Uiso   1.00
O233   O     0.25000  -0.00000   0.25000   0.00000  Uiso   1.00
O234   O     0.25000   0.46963   0.66245   0.00000  Uiso   1.00
O235   O     0.46963   0.25000   0.33755   0.00000  Uiso   1.00
O236   O     0.03036   0.25000   0.66245   0.00000  Uiso   1.00
O237   O     0.00000   0.21964   0.83755   0.00000  Uiso   1.00
O238   O     0.00000   0.28037   0.16245   0.00000  Uiso   1.00
O239   O     0.28036  -0.00000   0.83755   0.00000  Uiso   1.00
O240   O     0.21963  -0.00000   0.16245   0.00000  Uiso   1.00
O241   O     0.00000   0.28037   0.83755   0.00000  Uiso   1.00
O242   O     0.00000   0.21964   0.16245   0.00000  Uiso   1.00
O243   O     0.21963  -0.00000   0.83755   0.00000  Uiso   1.00
O244   O     0.25000  -0.00000   0.75000   0.00000  Uiso   1.00
O245   O     0.28036  -0.00000   0.16245   0.00000  Uiso   1.00
O246   O     0.20724   0.07307   0.27302   0.00000  Uiso   1.00
O247   O     0.29275   0.42692   0.72698   0.00000  Uiso   1.00
O248   O     0.42692   0.20724   0.27302   0.00000  Uiso   1.00
O249   O     0.07307   0.29275   0.72698   0.00000  Uiso   1.00
O250   O     0.29275   0.42692   0.27302   0.00000  Uiso   1.00
O251   O     0.20724   0.07307   0.72698   0.00000  Uiso   1.00
O252   O     0.07307   0.29275   0.27302   0.00000  Uiso   1.00
O253   O     0.42692   0.20724   0.72698   0.00000  Uiso   1.00
O254   O     0.20724   0.42692   0.72698   0.00000  Uiso   1.00
O255   O     0.00000   0.25000   0.25000   0.00000  Uiso   1.00
O256   O     0.29275   0.07307   0.27302   0.00000  Uiso   1.00
O257   O     0.42692   0.29275   0.72698   0.00000  Uiso   1.00
O258   O     0.07307   0.20724   0.27302   0.00000  Uiso   1.00
O259   O     0.29275   0.07307   0.72698   0.00000  Uiso   1.00
O260   O     0.20724   0.42692   0.27302   0.00000  Uiso   1.00
O261   O     0.07307   0.20724   0.72698   0.00000  Uiso   1.00
O262   O     0.42692   0.29275   0.27302   0.00000  Uiso   1.00
O263   O     0.45724   0.32307   0.77302   0.00000  Uiso   1.00
O264   O     0.04275   0.17693   0.22698   0.00000  Uiso   1.00
O265   O     0.17692   0.45724   0.77302   0.00000  Uiso   1.00
O266   O     0.00000   0.25000   0.75000   0.00000  Uiso   1.00
O267   O     0.32307   0.04275   0.22698   0.00000  Uiso   1.00
O268   O     0.04275   0.17693   0.77302   0.00000  Uiso   1.00
O269   O     0.45724   0.32307   0.22698   0.00000  Uiso   1.00
O270   O     0.32307   0.04275   0.77302   0.00000  Uiso   1.00
O271   O     0.17692   0.45724   0.22698   0.00000  Uiso   1.00
O272   O     0.45724   0.17692   0.22698   0.00000  Uiso   1.00
O273   O     0.04275   0.32308   0.77302   0.00000  Uiso   1.00
O274   O     0.17692   0.04275   0.22698   0.00000  Uiso   1.00
O275   O     0.32307   0.45724   0.77302   0.00000  Uiso   1.00
O276   O     0.04275   0.32308   0.22698   0.00000  Uiso   1.00
O277   O     0.25000   0.46963   0.33755   0.00000  Uiso   1.00
O278   O     0.45724   0.17692   0.77302   0.00000  Uiso   1.00
O279   O     0.32307   0.45724   0.22698   0.00000  Uiso   1.00
O280   O     0.17692   0.04275   0.77302   0.00000  Uiso   1.00
O281   O     0.25000   0.03036   0.66245   0.00000  Uiso   1.00
O282   O     0.03036   0.25000   0.33755   0.00000  Uiso   1.00
O283   O     0.46963   0.25000   0.66245   0.00000  Uiso   1.00
O284   O     0.25000   0.03036   0.33755   0.00000  Uiso   1.00
Zn285  Zn    0.20659  -0.00000   0.21735   0.00000  Uiso   1.00
Zn286  Zn    0.04340   0.25000   0.28265   0.00000  Uiso   1.00
Zn287  Zn    0.25000   0.45659   0.71735   0.00000  Uiso   1.00
Zn288  Zn    0.25000   0.04340   0.28265   0.00000  Uiso   1.00
Zn289  Zn    0.04340   0.25000   0.71735   0.00000  Uiso   1.00
Zn290  Zn    0.45659   0.25000   0.28265   0.00000  Uiso   1.00
Zn291  Zn    0.25000   0.04340   0.71735   0.00000  Uiso   1.00
Zn292  Zn    0.25000   0.45659   0.28265   0.00000  Uiso   1.00
Zn293  Zn    0.29340  -0.00000   0.78265   0.00000  Uiso   1.00
Zn294  Zn    0.00000   0.20660   0.21735   0.00000  Uiso   1.00
Zn295  Zn   -0.00000   0.29340   0.78265   0.00000  Uiso   1.00
Zn296  Zn    0.29340  -0.00000   0.21735   0.00000  Uiso   1.00
Zn297  Zn    0.20659  -0.00000   0.78265   0.00000  Uiso   1.00
Zn298  Zn    0.00000   0.29341   0.21735   0.00000  Uiso   1.00
Zn299  Zn    0.00000   0.20660   0.78265   0.00000  Uiso   1.00
Zn300  Zn    0.45659   0.25000   0.71735   0.00000  Uiso   1.00
C301   C     0.50582   0.28260   0.41808   0.00000  Uiso   1.00
C302   C     0.74418   0.46740   0.08192   0.00000  Uiso   1.00
C303   C     0.71807   0.48953   0.54112   0.00000  Uiso   1.00
C304   C     0.51047   0.28193   0.45888   0.00000  Uiso   1.00
C305   C     0.98953   0.21807   0.54112   0.00000  Uiso   1.00
C306   C     0.71807   0.48953   0.45888   0.00000  Uiso   1.00
C307   C     0.78193   0.01047   0.54112   0.00000  Uiso   1.00
C308   C     0.73953   0.46807   0.95888   0.00000  Uiso   1.00
C309   C     0.76047   0.03193   0.04112   0.00000  Uiso   1.00
C310   C     0.53193   0.26047   0.95888   0.00000  Uiso   1.00
C311   C     0.96807   0.23953   0.04112   0.00000  Uiso   1.00
C312   C     0.76047   0.03193   0.95888   0.00000  Uiso   1.00
C313   C     0.96740   0.24418   0.91808   0.00000  Uiso   1.00
C314   C     0.73953   0.46807   0.04112   0.00000  Uiso   1.00
C315   C     0.96807   0.23953   0.95888   0.00000  Uiso   1.00
C316   C     0.53193   0.26047   0.04112   0.00000  Uiso   1.00
C317   C     0.59811   0.34811   0.25000   0.00000  Uiso   1.00
C318   C     0.90189   0.15189   0.75000   0.00000  Uiso   1.00
C319   C     0.65190   0.09810   0.25000   0.00000  Uiso   1.00
C320   C     0.84810   0.40190   0.75000   0.00000  Uiso   1.00
C321   C     0.90189   0.15189   0.25000   0.00000  Uiso   1.00
C322   C     0.59811   0.34811   0.75000   0.00000  Uiso   1.00
C323   C     0.84810   0.40190   0.25000   0.00000  Uiso   1.00
C324   C     0.53260   0.25582   0.08192   0.00000  Uiso   1.00
C325   C     0.65190   0.09810   0.75000   0.00000  Uiso   1.00
C326   C     0.59810   0.15190   0.75000   0.00000  Uiso   1.00
C327   C     0.90190   0.34810   0.25000   0.00000  Uiso   1.00
C328   C     0.65189   0.40189   0.75000   0.00000  Uiso   1.00
C329   C     0.84811   0.09811   0.25000   0.00000  Uiso   1.00
C330   C     0.90190   0.34810   0.75000   0.00000  Uiso   1.00
C331   C     0.59810   0.15190   0.25000   0.00000  Uiso   1.00
C332   C     0.84811   0.09811   0.75000   0.00000  Uiso   1.00
C333   C     0.65189   0.40189   0.25000   0.00000  Uiso   1.00
C334   C     0.50000   0.25000   0.47946   0.00000  Uiso   1.00
C335   C     0.74418   0.46740   0.91808   0.00000  Uiso   1.00
C336   C     0.50000   0.25000   0.52054   0.00000  Uiso   1.00
C337   C     0.75000  -0.00000   0.47946   0.00000  Uiso   1.00
C338   C     0.75000  -0.00000   0.52054   0.00000  Uiso   1.00
C339   C     0.75000  -0.00000   0.97946   0.00000  Uiso   1.00
C340   C     0.75000  -0.00000   0.02054   0.00000  Uiso   1.00
C341   C     0.50000   0.25000   0.97946   0.00000  Uiso   1.00
C342   C     0.50000   0.25000   0.02054   0.00000  Uiso   1.00
C343   C     0.95472   0.15935   0.45980   0.00000  Uiso   1.00
C344   C     0.54528   0.34065   0.54020   0.00000  Uiso   1.00
C345   C     0.84065   0.04528   0.45980   0.00000  Uiso   1.00
C346   C     0.75582   0.03260   0.08192   0.00000  Uiso   1.00
C347   C     0.65935   0.45472   0.54020   0.00000  Uiso   1.00
C348   C     0.54528   0.34065   0.45980   0.00000  Uiso   1.00
C349   C     0.95472   0.15935   0.54020   0.00000  Uiso   1.00
C350   C     0.65935   0.45472   0.45980   0.00000  Uiso   1.00
C351   C     0.84065   0.04528   0.54020   0.00000  Uiso   1.00
C352   C     0.70472   0.40935   0.95980   0.00000  Uiso   1.00
C353   C     0.79528   0.09065   0.04020   0.00000  Uiso   1.00
C354   C     0.59065   0.29528   0.95980   0.00000  Uiso   1.00
C355   C     0.90935   0.20472   0.04020   0.00000  Uiso   1.00
C356   C     0.79528   0.09065   0.95980   0.00000  Uiso   1.00
C357   C     0.53260   0.25582   0.91808   0.00000  Uiso   1.00
C358   C     0.70472   0.40935   0.04020   0.00000  Uiso   1.00
C359   C     0.90935   0.20472   0.95980   0.00000  Uiso   1.00
C360   C     0.59065   0.29528   0.04020   0.00000  Uiso   1.00
C361   C     0.50389   0.31652   0.39655   0.00000  Uiso   1.00
C362   C     0.99611   0.18348   0.60345   0.00000  Uiso   1.00
C363   C     0.68348   0.49611   0.39655   0.00000  Uiso   1.00
C364   C     0.81652   0.00389   0.60345   0.00000  Uiso   1.00
C365   C     0.99611   0.18348   0.39655   0.00000  Uiso   1.00
C366   C     0.50389   0.31652   0.60345   0.00000  Uiso   1.00
C367   C     0.81652   0.00389   0.39655   0.00000  Uiso   1.00
C368   C     0.96740   0.24418   0.08192   0.00000  Uiso   1.00
C369   C     0.68348   0.49611   0.60345   0.00000  Uiso   1.00
C370   C     0.75389   0.06652   0.89655   0.00000  Uiso   1.00
C371   C     0.74611   0.43348   0.10345   0.00000  Uiso   1.00
C372   C     0.93348   0.24611   0.89655   0.00000  Uiso   1.00
C373   C     0.56652   0.25389   0.10345   0.00000  Uiso   1.00
C374   C     0.74611   0.43348   0.89655   0.00000  Uiso   1.00
C375   C     0.75389   0.06652   0.10345   0.00000  Uiso   1.00
C376   C     0.56652   0.25389   0.89655   0.00000  Uiso   1.00
C377   C     0.93348   0.24611   0.10345   0.00000  Uiso   1.00
C378   C     0.50000   0.25000   0.39803   0.00000  Uiso   1.00
C379   C     0.50000   0.25000   0.60197   0.00000  Uiso   1.00
C380   C     0.75000  -0.00000   0.39803   0.00000  Uiso   1.00
C381   C     0.99418   0.21740   0.58192   0.00000  Uiso   1.00
C382   C     0.75000  -0.00000   0.60197   0.00000  Uiso   1.00
C383   C     0.75000  -0.00000   0.89803   0.00000  Uiso   1.00
C384   C     0.75000  -0.00000   0.10197   0.00000  Uiso   1.00
C385   C     0.50000   0.25000   0.89803   0.00000  Uiso   1.00
C386   C     0.50000   0.25000   0.10197   0.00000  Uiso   1.00
C387   C     0.97419   0.18841   0.47962   0.00000  Uiso   1.00
C388   C     0.52582   0.31159   0.52038   0.00000  Uiso   1.00
C389   C     0.81159   0.02581   0.47962   0.00000  Uiso   1.00
C390   C     0.68841   0.47419   0.52038   0.00000  Uiso   1.00
C391   C     0.52582   0.31159   0.47962   0.00000  Uiso   1.00
C392   C     0.71740   0.49418   0.41808   0.00000  Uiso   1.00
C393   C     0.97419   0.18841   0.52038   0.00000  Uiso   1.00
C394   C     0.68841   0.47419   0.47962   0.00000  Uiso   1.00
C395   C     0.81159   0.02581   0.52038   0.00000  Uiso   1.00
C396   C     0.72419   0.43841   0.97962   0.00000  Uiso   1.00
C397   C     0.77581   0.06159   0.02038   0.00000  Uiso   1.00
C398   C     0.56159   0.27582   0.97962   0.00000  Uiso   1.00
C399   C     0.93841   0.22419   0.02038   0.00000  Uiso   1.00
C400   C     0.77581   0.06159   0.97962   0.00000  Uiso   1.00
C401   C     0.72419   0.43841   0.02038   0.00000  Uiso   1.00
C402   C     0.93841   0.22419   0.97962   0.00000  Uiso   1.00
C403   C     0.78260   0.00582   0.58192   0.00000  Uiso   1.00
C404   C     0.56159   0.27582   0.02038   0.00000  Uiso   1.00
C405   C     0.75000  -0.00000   0.35567   0.00000  Uiso   1.00
C406   C     0.75000  -0.00000   0.64433   0.00000  Uiso   1.00
C407   C     0.50000   0.25000   0.35567   0.00000  Uiso   1.00
C408   C     0.50000   0.25000   0.64433   0.00000  Uiso   1.00
C409   C     0.50000   0.25000   0.85567   0.00000  Uiso   1.00
C410   C     0.50000   0.25000   0.14433   0.00000  Uiso   1.00
C411   C     0.75000  -0.00000   0.85567   0.00000  Uiso   1.00
C412   C     0.75000  -0.00000   0.14433   0.00000  Uiso   1.00
C413   C     0.67998   0.07002   0.25000   0.00000  Uiso   1.00
C414   C     0.99418   0.21740   0.41808   0.00000  Uiso   1.00
C415   C     0.82002   0.42998   0.75000   0.00000  Uiso   1.00
C416   C     0.92997   0.17997   0.25000   0.00000  Uiso   1.00
C417   C     0.57003   0.32003   0.75000   0.00000  Uiso   1.00
C418   C     0.82002   0.42998   0.25000   0.00000  Uiso   1.00
C419   C     0.67998   0.07002   0.75000   0.00000  Uiso   1.00
C420   C     0.57003   0.32003   0.25000   0.00000  Uiso   1.00
C421   C     0.92997   0.17997   0.75000   0.00000  Uiso   1.00
C422   C     0.67997   0.42997   0.75000   0.00000  Uiso   1.00
C423   C     0.82003   0.07003   0.25000   0.00000  Uiso   1.00
C424   C     0.92998   0.32002   0.75000   0.00000  Uiso   1.00
C425   C     0.50582   0.28260   0.58192   0.00000  Uiso   1.00
C426   C     0.57002   0.17998   0.25000   0.00000  Uiso   1.00
C427   C     0.82003   0.07003   0.75000   0.00000  Uiso   1.00
C428   C     0.67997   0.42997   0.25000   0.00000  Uiso   1.00
C429   C     0.57002   0.17998   0.75000   0.00000  Uiso   1.00
C430   C     0.92998   0.32002   0.25000   0.00000  Uiso   1.00
C431   C     0.63917   0.38778   0.21440   0.00000  Uiso   1.00
C432   C     0.86083   0.11222   0.78560   0.00000  Uiso   1.00
C433   C     0.61378   0.14078   0.21455   0.00000  Uiso   1.00
C434   C     0.88622   0.35922   0.78545   0.00000  Uiso   1.00
C435   C     0.86083   0.11222   0.21440   0.00000  Uiso   1.00
C436   C     0.78260   0.00582   0.41808   0.00000  Uiso   1.00
C437   C     0.63917   0.38778   0.78560   0.00000  Uiso   1.00
C438   C     0.88622   0.35922   0.21455   0.00000  Uiso   1.00
C439   C     0.61378   0.14078   0.78545   0.00000  Uiso   1.00
C440   C     0.64078   0.11378   0.78545   0.00000  Uiso   1.00
C441   C     0.85922   0.38622   0.21455   0.00000  Uiso   1.00
C442   C     0.61222   0.36083   0.78560   0.00000  Uiso   1.00
C443   C     0.88778   0.13917   0.21440   0.00000  Uiso   1.00
C444   C     0.85922   0.38622   0.78545   0.00000  Uiso   1.00
C445   C     0.64078   0.11378   0.21455   0.00000  Uiso   1.00
C446   C     0.88778   0.13917   0.78560   0.00000  Uiso   1.00
C447   C     0.71740   0.49418   0.58192   0.00000  Uiso   1.00
C448   C     0.61222   0.36083   0.21440   0.00000  Uiso   1.00
C449   C     0.88917   0.13778   0.71440   0.00000  Uiso   1.00
C450   C     0.61083   0.36222   0.28560   0.00000  Uiso   1.00
C451   C     0.86378   0.39078   0.71455   0.00000  Uiso   1.00
C452   C     0.63622   0.10922   0.28545   0.00000  Uiso   1.00
C453   C     0.61083   0.36222   0.71440   0.00000  Uiso   1.00
C454   C     0.88917   0.13778   0.28560   0.00000  Uiso   1.00
C455   C     0.63622   0.10922   0.71455   0.00000  Uiso   1.00
C456   C     0.86378   0.39078   0.28545   0.00000  Uiso   1.00
C457   C     0.89078   0.36378   0.28545   0.00000  Uiso   1.00
C458   C     0.75582   0.03260   0.91808   0.00000  Uiso   1.00
C459   C     0.60922   0.13622   0.71455   0.00000  Uiso   1.00
C460   C     0.86222   0.11083   0.28560   0.00000  Uiso   1.00
C461   C     0.63778   0.38917   0.71440   0.00000  Uiso   1.00
C462   C     0.60922   0.13622   0.28545   0.00000  Uiso   1.00
C463   C     0.89078   0.36378   0.71455   0.00000  Uiso   1.00
C464   C     0.63778   0.38917   0.28560   0.00000  Uiso   1.00
C465   C     0.86222   0.11083   0.71440   0.00000  Uiso   1.00
C466   C     0.98953   0.21807   0.45888   0.00000  Uiso   1.00
C467   C     0.51047   0.28193   0.54112   0.00000  Uiso   1.00
C468   C     0.78193   0.01047   0.45888   0.00000  Uiso   1.00
I469   I     0.66206   0.40549   0.16020   0.00000  Uiso   1.00
I470   I     0.83372   0.40177   0.16094   0.00000  Uiso   1.00
I471   I     0.59451   0.33794   0.83980   0.00000  Uiso   1.00
I472   I     0.90549   0.16206   0.16020   0.00000  Uiso   1.00
I473   I     0.83372   0.40177   0.83906   0.00000  Uiso   1.00
I474   I     0.66628   0.09823   0.16094   0.00000  Uiso   1.00
I475   I     0.90549   0.16206   0.83980   0.00000  Uiso   1.00
I476   I     0.59451   0.33794   0.16020   0.00000  Uiso   1.00
I477   I     0.91206   0.15549   0.66020   0.00000  Uiso   1.00
I478   I     0.58794   0.34451   0.33980   0.00000  Uiso   1.00
I479   I     0.84823   0.41628   0.66094   0.00000  Uiso   1.00
I480   I     0.83794   0.09451   0.83980   0.00000  Uiso   1.00
I481   I     0.65177   0.08372   0.33906   0.00000  Uiso   1.00
I482   I     0.58794   0.34451   0.66020   0.00000  Uiso   1.00
I483   I     0.91206   0.15549   0.33980   0.00000  Uiso   1.00
I484   I     0.65177   0.08372   0.66094   0.00000  Uiso   1.00
I485   I     0.84823   0.41628   0.33906   0.00000  Uiso   1.00
I486   I     0.91628   0.34823   0.33906   0.00000  Uiso   1.00
I487   I     0.58372   0.15177   0.66094   0.00000  Uiso   1.00
I488   I     0.84451   0.08794   0.33980   0.00000  Uiso   1.00
I489   I     0.65549   0.41206   0.66020   0.00000  Uiso   1.00
I490   I     0.58372   0.15177   0.33906   0.00000  Uiso   1.00
I491   I     0.59823   0.16628   0.16094   0.00000  Uiso   1.00
I492   I     0.91628   0.34823   0.66094   0.00000  Uiso   1.00
I493   I     0.65549   0.41206   0.33980   0.00000  Uiso   1.00
I494   I     0.84451   0.08794   0.66020   0.00000  Uiso   1.00
I495   I     0.90177   0.33372   0.83906   0.00000  Uiso   1.00
I496   I     0.83794   0.09451   0.16020   0.00000  Uiso   1.00
I497   I     0.66206   0.40549   0.83980   0.00000  Uiso   1.00
I498   I     0.90177   0.33372   0.16094   0.00000  Uiso   1.00
I499   I     0.59823   0.16628   0.83906   0.00000  Uiso   1.00
I500   I     0.66628   0.09823   0.83906   0.00000  Uiso   1.00
N501   N     0.93905   0.13616   0.44439   0.00000  Uiso   1.00
N502   N     0.81095   0.11384   0.05561   0.00000  Uiso   1.00
N503   N     0.61384   0.31095   0.94439   0.00000  Uiso   1.00
N504   N     0.88616   0.18905   0.05561   0.00000  Uiso   1.00
N505   N     0.81095   0.11384   0.94439   0.00000  Uiso   1.00
N506   N     0.68905   0.38616   0.05561   0.00000  Uiso   1.00
N507   N     0.88616   0.18905   0.94439   0.00000  Uiso   1.00
N508   N     0.61384   0.31095   0.05561   0.00000  Uiso   1.00
N509   N     0.50210   0.34354   0.37939   0.00000  Uiso   1.00
N510   N     0.99790   0.15646   0.62061   0.00000  Uiso   1.00
N511   N     0.65646   0.49790   0.37939   0.00000  Uiso   1.00
N512   N     0.56095   0.36383   0.55561   0.00000  Uiso   1.00
N513   N     0.84354   0.00210   0.62061   0.00000  Uiso   1.00
N514   N     0.99790   0.15646   0.37939   0.00000  Uiso   1.00
N515   N     0.50210   0.34354   0.62061   0.00000  Uiso   1.00
N516   N     0.84354   0.00210   0.37939   0.00000  Uiso   1.00
N517   N     0.65646   0.49790   0.62061   0.00000  Uiso   1.00
N518   N     0.75210   0.09354   0.87939   0.00000  Uiso   1.00
N519   N     0.74790   0.40646   0.12061   0.00000  Uiso   1.00
N520   N     0.90646   0.24790   0.87939   0.00000  Uiso   1.00
N521   N     0.59354   0.25210   0.12061   0.00000  Uiso   1.00
N522   N     0.74790   0.40646   0.87939   0.00000  Uiso   1.00
N523   N     0.86384   0.06095   0.44439   0.00000  Uiso   1.00
N524   N     0.75210   0.09354   0.12061   0.00000  Uiso   1.00
N525   N     0.59354   0.25210   0.87939   0.00000  Uiso   1.00
N526   N     0.90646   0.24790   0.12061   0.00000  Uiso   1.00
N527   N     0.63616   0.43905   0.55561   0.00000  Uiso   1.00
N528   N     0.56095   0.36383   0.44439   0.00000  Uiso   1.00
N529   N     0.93905   0.13616   0.55561   0.00000  Uiso   1.00
N530   N     0.63616   0.43905   0.44439   0.00000  Uiso   1.00
N531   N     0.86384   0.06095   0.55561   0.00000  Uiso   1.00
N532   N     0.68905   0.38616   0.94439   0.00000  Uiso   1.00
O533   O     0.75000  -0.00000   0.25000   0.00000  Uiso   1.00
O534   O     0.75000   0.46963   0.66245   0.00000  Uiso   1.00
O535   O     0.96963   0.25000   0.33755   0.00000  Uiso   1.00
O536   O     0.53036   0.25000   0.66245   0.00000  Uiso   1.00
O537   O     0.50000   0.21964   0.83755   0.00000  Uiso   1.00
O538   O     0.50000   0.28037   0.16245   0.00000  Uiso   1.00
O539   O     0.78036  -0.00000   0.83755   0.00000  Uiso   1.00
O540   O     0.71963  -0.00000   0.16245   0.00000  Uiso   1.00
O541   O     0.50000   0.28037   0.83755   0.00000  Uiso   1.00
O542   O     0.50000   0.21964   0.16245   0.00000  Uiso   1.00
O543   O     0.71963  -0.00000   0.83755   0.00000  Uiso   1.00
O544   O     0.75000  -0.00000   0.75000   0.00000  Uiso   1.00
O545   O     0.78036  -0.00000   0.16245   0.00000  Uiso   1.00
O546   O     0.70724   0.07307   0.27302   0.00000  Uiso   1.00
O547   O     0.79275   0.42692   0.72698   0.00000  Uiso   1.00
O548   O     0.92692   0.20724   0.27302   0.00000  Uiso   1.00
O549   O     0.57307   0.29275   0.72698   0.00000  Uiso   1.00
O550   O     0.79275   0.42692   0.27302   0.00000  Uiso   1.00
O551   O     0.70724   0.07307   0.72698   0.00000  Uiso   1.00
O552   O     0.57307   0.29275   0.27302   0.00000  Uiso   1.00
O553   O     0.92692   0.20724   0.72698   0.00000  Uiso   1.00
O554   O     0.70724   0.42692   0.72698   0.00000  Uiso   1.00
O555   O     0.50000   0.25000   0.25000   0.00000  Uiso   1.00
O556   O     0.79275   0.07307   0.27302   0.00000  Uiso   1.00
O557   O     0.92692   0.29275   0.72698   0.00000  Uiso   1.00
O558   O     0.57307   0.20724   0.27302   0.00000  Uiso   1.00
O559   O     0.79275   0.07307   0.72698   0.00000  Uiso   1.00
O560   O     0.70724   0.42692   0.27302   0.00000  Uiso   1.00
O561   O     0.57307   0.20724   0.72698   0.00000  Uiso   1.00
O562   O     0.92692   0.29275   0.27302   0.00000  Uiso   1.00
O563   O     0.95724   0.32307   0.77302   0.00000  Uiso   1.00
O564   O     0.54275   0.17693   0.22698   0.00000  Uiso   1.00
O565   O     0.67692   0.45724   0.77302   0.00000  Uiso   1.00
O566   O     0.50000   0.25000   0.75000   0.00000  Uiso   1.00
O567   O     0.82307   0.04275   0.22698   0.00000  Uiso   1.00
O568   O     0.54275   0.17693   0.77302   0.00000  Uiso   1.00
O569   O     0.95724   0.32307   0.22698   0.00000  Uiso   1.00
O570   O     0.82307   0.04275   0.77302   0.00000  Uiso   1.00
O571   O     0.67692   0.45724   0.22698   0.00000  Uiso   1.00
O572   O     0.95724   0.17692   0.22698   0.00000  Uiso   1.00
O573   O     0.54275   0.32308   0.77302   0.00000  Uiso   1.00
O574   O     0.67692   0.04275   0.22698   0.00000  Uiso   1.00
O575   O     0.82307   0.45724   0.77302   0.00000  Uiso   1.00
O576   O     0.54275   0.32308   0.22698   0.00000  Uiso   1.00
O577   O     0.75000   0.46963   0.33755   0.00000  Uiso   1.00
O578   O     0.95724   0.17692   0.77302   0.00000  Uiso   1.00
O579   O     0.82307   0.45724   0.22698   0.00000  Uiso   1.00
O580   O     0.67692   0.04275   0.77302   0.00000  Uiso   1.00
O581   O     0.75000   0.03036   0.66245   0.00000  Uiso   1.00
O582   O     0.53036   0.25000   0.33755   0.00000  Uiso   1.00
O583   O     0.96963   0.25000   0.66245   0.00000  Uiso   1.00
O584   O     0.75000   0.03036   0.33755   0.00000  Uiso   1.00
Zn585  Zn    0.70659  -0.00000   0.21735   0.00000  Uiso   1.00
Zn586  Zn    0.54340   0.25000   0.28265   0.00000  Uiso   1.00
Zn587  Zn    0.75000   0.45659   0.71735   0.00000  Uiso   1.00
Zn588  Zn    0.75000   0.04340   0.28265   0.00000  Uiso   1.00
Zn589  Zn    0.54340   0.25000   0.71735   0.00000  Uiso   1.00
Zn590  Zn    0.95659   0.25000   0.28265   0.00000  Uiso   1.00
Zn591  Zn    0.75000   0.04340   0.71735   0.00000  Uiso   1.00
Zn592  Zn    0.75000   0.45659   0.28265   0.00000  Uiso   1.00
Zn593  Zn    0.79340  -0.00000   0.78265   0.00000  Uiso   1.00
Zn594  Zn    0.50000   0.20660   0.21735   0.00000  Uiso   1.00
Zn595  Zn    0.50000   0.29340   0.78265   0.00000  Uiso   1.00
Zn596  Zn    0.79340  -0.00000   0.21735   0.00000  Uiso   1.00
Zn597  Zn    0.70659  -0.00000   0.78265   0.00000  Uiso   1.00
Zn598  Zn    0.50000   0.29341   0.21735   0.00000  Uiso   1.00
Zn599  Zn    0.50000   0.20660   0.78265   0.00000  Uiso   1.00
Zn600  Zn    0.95659   0.25000   0.71735   0.00000  Uiso   1.00
C601   C     0.00582   0.78260   0.41808   0.00000  Uiso   1.00
C602   C     0.24418   0.96740   0.08192   0.00000  Uiso   1.00
C603   C     0.21807   0.98953   0.54112   0.00000  Uiso   1.00
C604   C     0.01047   0.78193   0.45888   0.00000  Uiso   1.00
C605   C     0.48953   0.71807   0.54112   0.00000  Uiso   1.00
C606   C     0.21807   0.98953   0.45888   0.00000  Uiso   1.00
C607   C     0.28193   0.51047   0.54112   0.00000  Uiso   1.00
C608   C     0.23953   0.96807   0.95888   0.00000  Uiso   1.00
C609   C     0.26047   0.53193   0.04112   0.00000  Uiso   1.00
C610   C     0.03193   0.76047   0.95888   0.00000  Uiso   1.00
C611   C     0.46807   0.73953   0.04112   0.00000  Uiso   1.00
C612   C     0.26047   0.53193   0.95888   0.00000  Uiso   1.00
C613   C     0.46740   0.74418   0.91808   0.00000  Uiso   1.00
C614   C     0.23953   0.96807   0.04112   0.00000  Uiso   1.00
C615   C     0.46807   0.73953   0.95888   0.00000  Uiso   1.00
C616   C     0.03193   0.76047   0.04112   0.00000  Uiso   1.00
C617   C     0.09811   0.84811   0.25000   0.00000  Uiso   1.00
C618   C     0.40189   0.65189   0.75000   0.00000  Uiso   1.00
C619   C     0.15190   0.59810   0.25000   0.00000  Uiso   1.00
C620   C     0.34810   0.90190   0.75000   0.00000  Uiso   1.00
C621   C     0.40189   0.65189   0.25000   0.00000  Uiso   1.00
C622   C     0.09811   0.84811   0.75000   0.00000  Uiso   1.00
C623   C     0.34810   0.90190   0.25000   0.00000  Uiso   1.00
C624   C     0.03260   0.75582   0.08192   0.00000  Uiso   1.00
C625   C     0.15190   0.59810   0.75000   0.00000  Uiso   1.00
C626   C     0.09810   0.65190   0.75000   0.00000  Uiso   1.00
C627   C     0.40190   0.84810   0.25000   0.00000  Uiso   1.00
C628   C     0.15189   0.90189   0.75000   0.00000  Uiso   1.00
C629   C     0.34811   0.59811   0.25000   0.00000  Uiso   1.00
C630   C     0.40190   0.84810   0.75000   0.00000  Uiso   1.00
C631   C     0.09810   0.65190   0.25000   0.00000  Uiso   1.00
C632   C     0.34811   0.59811   0.75000   0.00000  Uiso   1.00
C633   C     0.15189   0.90189   0.25000   0.00000  Uiso   1.00
C634   C     0.00000   0.75000   0.47946   0.00000  Uiso   1.00
C635   C     0.24418   0.96740   0.91808   0.00000  Uiso   1.00
C636   C     0.00000   0.75000   0.52054   0.00000  Uiso   1.00
C637   C     0.25000   0.50000   0.47946   0.00000  Uiso   1.00
C638   C     0.25000   0.50000   0.52054   0.00000  Uiso   1.00
C639   C     0.25000   0.50000   0.97946   0.00000  Uiso   1.00
C640   C     0.25000   0.50000   0.02054   0.00000  Uiso   1.00
C641   C    -0.00000   0.75000   0.97946   0.00000  Uiso   1.00
C642   C    -0.00000   0.75000   0.02054   0.00000  Uiso   1.00
C643   C     0.45472   0.65935   0.45980   0.00000  Uiso   1.00
C644   C     0.04528   0.84065   0.54020   0.00000  Uiso   1.00
C645   C     0.34065   0.54528   0.45980   0.00000  Uiso   1.00
C646   C     0.25582   0.53260   0.08192   0.00000  Uiso   1.00
C647   C     0.15935   0.95472   0.54020   0.00000  Uiso   1.00
C648   C     0.04528   0.84065   0.45980   0.00000  Uiso   1.00
C649   C     0.45472   0.65935   0.54020   0.00000  Uiso   1.00
C650   C     0.15935   0.95472   0.45980   0.00000  Uiso   1.00
C651   C     0.34065   0.54528   0.54020   0.00000  Uiso   1.00
C652   C     0.20472   0.90935   0.95980   0.00000  Uiso   1.00
C653   C     0.29528   0.59065   0.04020   0.00000  Uiso   1.00
C654   C     0.09065   0.79528   0.95980   0.00000  Uiso   1.00
C655   C     0.40935   0.70472   0.04020   0.00000  Uiso   1.00
C656   C     0.29528   0.59065   0.95980   0.00000  Uiso   1.00
C657   C     0.03260   0.75582   0.91808   0.00000  Uiso   1.00
C658   C     0.20472   0.90935   0.04020   0.00000  Uiso   1.00
C659   C     0.40935   0.70472   0.95980   0.00000  Uiso   1.00
C660   C     0.09065   0.79528   0.04020   0.00000  Uiso   1.00
C661   C     0.00389   0.81652   0.39655   0.00000  Uiso   1.00
C662   C     0.49611   0.68348   0.60345   0.00000  Uiso   1.00
C663   C     0.18348   0.99611   0.39655   0.00000  Uiso   1.00
C664   C     0.31652   0.50389   0.60345   0.00000  Uiso   1.00
C665   C     0.49611   0.68348   0.39655   0.00000  Uiso   1.00
C666   C     0.00389   0.81652   0.60345   0.00000  Uiso   1.00
C667   C     0.31652   0.50389   0.39655   0.00000  Uiso   1.00
C668   C     0.46740   0.74418   0.08192   0.00000  Uiso   1.00
C669   C     0.18348   0.99611   0.60345   0.00000  Uiso   1.00
C670   C     0.25389   0.56652   0.89655   0.00000  Uiso   1.00
C671   C     0.24611   0.93348   0.10345   0.00000  Uiso   1.00
C672   C     0.43348   0.74611   0.89655   0.00000  Uiso   1.00
C673   C     0.06652   0.75389   0.10345   0.00000  Uiso   1.00
C674   C     0.24611   0.93348   0.89655   0.00000  Uiso   1.00
C675   C     0.25389   0.56652   0.10345   0.00000  Uiso   1.00
C676   C     0.06652   0.75389   0.89655   0.00000  Uiso   1.00
C677   C     0.43348   0.74611   0.10345   0.00000  Uiso   1.00
C678   C     0.00000   0.75000   0.39803   0.00000  Uiso   1.00
C679   C    -0.00000   0.75000   0.60197   0.00000  Uiso   1.00
C680   C     0.25000   0.50000   0.39803   0.00000  Uiso   1.00
C681   C     0.49418   0.71740   0.58192   0.00000  Uiso   1.00
C682   C     0.25000   0.50000   0.60197   0.00000  Uiso   1.00
C683   C     0.25000   0.50000   0.89803   0.00000  Uiso   1.00
C684   C     0.25000   0.50000   0.10197   0.00000  Uiso   1.00
C685   C    -0.00000   0.75000   0.89803   0.00000  Uiso   1.00
C686   C    -0.00000   0.75000   0.10197   0.00000  Uiso   1.00
C687   C     0.47419   0.68841   0.47962   0.00000  Uiso   1.00
C688   C     0.02582   0.81159   0.52038   0.00000  Uiso   1.00
C689   C     0.31159   0.52581   0.47962   0.00000  Uiso   1.00
C690   C     0.18841   0.97419   0.52038   0.00000  Uiso   1.00
C691   C     0.02582   0.81159   0.47962   0.00000  Uiso   1.00
C692   C     0.21740   0.99418   0.41808   0.00000  Uiso   1.00
C693   C     0.47419   0.68841   0.52038   0.00000  Uiso   1.00
C694   C     0.18841   0.97419   0.47962   0.00000  Uiso   1.00
C695   C     0.31159   0.52581   0.52038   0.00000  Uiso   1.00
C696   C     0.22419   0.93841   0.97962   0.00000  Uiso   1.00
C697   C     0.27581   0.56159   0.02038   0.00000  Uiso   1.00
C698   C     0.06159   0.77582   0.97962   0.00000  Uiso   1.00
C699   C     0.43841   0.72419   0.02038   0.00000  Uiso   1.00
C700   C     0.27581   0.56159   0.97962   0.00000  Uiso   1.00
C701   C     0.22419   0.93841   0.02038   0.00000  Uiso   1.00
C702   C     0.43841   0.72419   0.97962   0.00000  Uiso   1.00
C703   C     0.28260   0.50582   0.58192   0.00000  Uiso   1.00
C704   C     0.06159   0.77582   0.02038   0.00000  Uiso   1.00
C705   C     0.25000   0.50000   0.35567   0.00000  Uiso   1.00
C706   C     0.25000   0.50000   0.64433   0.00000  Uiso   1.00
C707   C    -0.00000   0.75000   0.35567   0.00000  Uiso   1.00
C708   C    -0.00000   0.75000   0.64433   0.00000  Uiso   1.00
C709   C     0.00000   0.75000   0.85567   0.00000  Uiso   1.00
C710   C    -0.00000   0.75000   0.14433   0.00000  Uiso   1.00
C711   C     0.25000   0.50000   0.85567   0.00000  Uiso   1.00
C712   C     0.25000   0.50000   0.14433   0.00000  Uiso   1.00
C713   C     0.17998   0.57002   0.25000   0.00000  Uiso   1.00
C714   C     0.49418   0.71740   0.41808   0.00000  Uiso   1.00
C715   C     0.32002   0.92998   0.75000   0.00000  Uiso   1.00
C716   C     0.42997   0.67997   0.25000   0.00000  Uiso   1.00
C717   C     0.07003   0.82003   0.75000   0.00000  Uiso   1.00
C718   C     0.32002   0.92998   0.25000   0.00000  Uiso   1.00
C719   C     0.17998   0.57002   0.75000   0.00000  Uiso   1.00
C720   C     0.07003   0.82003   0.25000   0.00000  Uiso   1.00
C721   C     0.42997   0.67997   0.75000   0.00000  Uiso   1.00
C722   C     0.17997   0.92997   0.75000   0.00000  Uiso   1.00
C723   C     0.32003   0.57003   0.25000   0.00000  Uiso   1.00
C724   C     0.42998   0.82002   0.75000   0.00000  Uiso   1.00
C725   C     0.00582   0.78260   0.58192   0.00000  Uiso   1.00
C726   C     0.07002   0.67998   0.25000   0.00000  Uiso   1.00
C727   C     0.32003   0.57003   0.75000   0.00000  Uiso   1.00
C728   C     0.17997   0.92997   0.25000   0.00000  Uiso   1.00
C729   C     0.07002   0.67998   0.75000   0.00000  Uiso   1.00
C730   C     0.42998   0.82002   0.25000   0.00000  Uiso   1.00
C731   C     0.13917   0.88778   0.21440   0.00000  Uiso   1.00
C732   C     0.36083   0.61222   0.78560   0.00000  Uiso   1.00
C733   C     0.11378   0.64078   0.21455   0.00000  Uiso   1.00
C734   C     0.38622   0.85922   0.78545   0.00000  Uiso   1.00
C735   C     0.36083   0.61222   0.21440   0.00000  Uiso   1.00
C736   C     0.28260   0.50582   0.41808   0.00000  Uiso   1.00
C737   C     0.13917   0.88778   0.78560   0.00000  Uiso   1.00
C738   C     0.38622   0.85922   0.21455   0.00000  Uiso   1.00
C739   C     0.11378   0.64078   0.78545   0.00000  Uiso   1.00
C740   C     0.14078   0.61378   0.78545   0.00000  Uiso   1.00
C741   C     0.35922   0.88622   0.21455   0.00000  Uiso   1.00
C742   C     0.11222   0.86083   0.78560   0.00000  Uiso   1.00
C743   C     0.38778   0.63917   0.21440   0.00000  Uiso   1.00
C744   C     0.35922   0.88622   0.78545   0.00000  Uiso   1.00
C745   C     0.14078   0.61378   0.21455   0.00000  Uiso   1.00
C746   C     0.38778   0.63917   0.78560   0.00000  Uiso   1.00
C747   C     0.21740   0.99418   0.58192   0.00000  Uiso   1.00
C748   C     0.11222   0.86083   0.21440   0.00000  Uiso   1.00
C749   C     0.38917   0.63778   0.71440   0.00000  Uiso   1.00
C750   C     0.11083   0.86222   0.28560   0.00000  Uiso   1.00
C751   C     0.36378   0.89078   0.71455   0.00000  Uiso   1.00
C752   C     0.13622   0.60922   0.28545   0.00000  Uiso   1.00
C753   C     0.11083   0.86222   0.71440   0.00000  Uiso   1.00
C754   C     0.38917   0.63778   0.28560   0.00000  Uiso   1.00
C755   C     0.13622   0.60922   0.71455   0.00000  Uiso   1.00
C756   C     0.36378   0.89078   0.28545   0.00000  Uiso   1.00
C757   C     0.39078   0.86378   0.28545   0.00000  Uiso   1.00
C758   C     0.25582   0.53260   0.91808   0.00000  Uiso   1.00
C759   C     0.10922   0.63622   0.71455   0.00000  Uiso   1.00
C760   C     0.36222   0.61083   0.28560   0.00000  Uiso   1.00
C761   C     0.13778   0.88917   0.71440   0.00000  Uiso   1.00
C762   C     0.10922   0.63622   0.28545   0.00000  Uiso   1.00
C763   C     0.39078   0.86378   0.71455   0.00000  Uiso   1.00
C764   C     0.13778   0.88917   0.28560   0.00000  Uiso   1.00
C765   C     0.36222   0.61083   0.71440   0.00000  Uiso   1.00
C766   C     0.48953   0.71807   0.45888   0.00000  Uiso   1.00
C767   C     0.01047   0.78193   0.54112   0.00000  Uiso   1.00
C768   C     0.28193   0.51047   0.45888   0.00000  Uiso   1.00
I769   I     0.16206   0.90549   0.16020   0.00000  Uiso   1.00
I770   I     0.33372   0.90177   0.16094   0.00000  Uiso   1.00
I771   I     0.09451   0.83794   0.83980   0.00000  Uiso   1.00
I772   I     0.40549   0.66206   0.16020   0.00000  Uiso   1.00
I773   I     0.33372   0.90177   0.83906   0.00000  Uiso   1.00
I774   I     0.16628   0.59823   0.16094   0.00000  Uiso   1.00
I775   I     0.40549   0.66206   0.83980   0.00000  Uiso   1.00
I776   I     0.09451   0.83794   0.16020   0.00000  Uiso   1.00
I777   I     0.41206   0.65549   0.66020   0.00000  Uiso   1.00
I778   I     0.08794   0.84451   0.33980   0.00000  Uiso   1.00
I779   I     0.34823   0.91628   0.66094   0.00000  Uiso   1.00
I780   I     0.33794   0.59451   0.83980   0.00000  Uiso   1.00
I781   I     0.15177   0.58372   0.33906   0.00000  Uiso   1.00
I782   I     0.08794   0.84451   0.66020   0.00000  Uiso   1.00
I783   I     0.41206   0.65549   0.33980   0.00000  Uiso   1.00
I784   I     0.15177   0.58372   0.66094   0.00000  Uiso   1.00
I785   I     0.34823   0.91628   0.33906   0.00000  Uiso   1.00
I786   I     0.41628   0.84823   0.33906   0.00000  Uiso   1.00
I787   I     0.08372   0.65177   0.66094   0.00000  Uiso   1.00
I788   I     0.34451   0.58794   0.33980   0.00000  Uiso   1.00
I789   I     0.15549   0.91206   0.66020   0.00000  Uiso   1.00
I790   I     0.08372   0.65177   0.33906   0.00000  Uiso   1.00
I791   I     0.09823   0.66628   0.16094   0.00000  Uiso   1.00
I792   I     0.41628   0.84823   0.66094   0.00000  Uiso   1.00
I793   I     0.15549   0.91206   0.33980   0.00000  Uiso   1.00
I794   I     0.34451   0.58794   0.66020   0.00000  Uiso   1.00
I795   I     0.40177   0.83372   0.83906   0.00000  Uiso   1.00
I796   I     0.33794   0.59451   0.16020   0.00000  Uiso   1.00
I797   I     0.16206   0.90549   0.83980   0.00000  Uiso   1.00
I798   I     0.40177   0.83372   0.16094   0.00000  Uiso   1.00
I799   I     0.09823   0.66628   0.83906   0.00000  Uiso   1.00
I800   I     0.16628   0.59823   0.83906   0.00000  Uiso   1.00
N801   N     0.43905   0.63616   0.44439   0.00000  Uiso   1.00
N802   N     0.31095   0.61384   0.05561   0.00000  Uiso   1.00
N803   N     0.11384   0.81095   0.94439   0.00000  Uiso   1.00
N804   N     0.38616   0.68905   0.05561   0.00000  Uiso   1.00
N805   N     0.31095   0.61384   0.94439   0.00000  Uiso   1.00
N806   N     0.18905   0.88616   0.05561   0.00000  Uiso   1.00
N807   N     0.38616   0.68905   0.94439   0.00000  Uiso   1.00
N808   N     0.11384   0.81095   0.05561   0.00000  Uiso   1.00
N809   N     0.00210   0.84354   0.37939   0.00000  Uiso   1.00
N810   N     0.49790   0.65646   0.62061   0.00000  Uiso   1.00
N811   N     0.15646   0.99790   0.37939   0.00000  Uiso   1.00
N812   N     0.06095   0.86383   0.55561   0.00000  Uiso   1.00
N813   N     0.34354   0.50210   0.62061   0.00000  Uiso   1.00
N814   N     0.49790   0.65646   0.37939   0.00000  Uiso   1.00
N815   N     0.00210   0.84354   0.62061   0.00000  Uiso   1.00
N816   N     0.34354   0.50210   0.37939   0.00000  Uiso   1.00
N817   N     0.15646   0.99790   0.62061   0.00000  Uiso   1.00
N818   N     0.25210   0.59354   0.87939   0.00000  Uiso   1.00
N819   N     0.24790   0.90646   0.12061   0.00000  Uiso   1.00
N820   N     0.40646   0.74790   0.87939   0.00000  Uiso   1.00
N821   N     0.09354   0.75210   0.12061   0.00000  Uiso   1.00
N822   N     0.24790   0.90646   0.87939   0.00000  Uiso   1.00
N823   N     0.36384   0.56095   0.44439   0.00000  Uiso   1.00
N824   N     0.25210   0.59354   0.12061   0.00000  Uiso   1.00
N825   N     0.09354   0.75210   0.87939   0.00000  Uiso   1.00
N826   N     0.40646   0.74790   0.12061   0.00000  Uiso   1.00
N827   N     0.13616   0.93905   0.55561   0.00000  Uiso   1.00
N828   N     0.06095   0.86383   0.44439   0.00000  Uiso   1.00
N829   N     0.43905   0.63616   0.55561   0.00000  Uiso   1.00
N830   N     0.13616   0.93905   0.44439   0.00000  Uiso   1.00
N831   N     0.36384   0.56095   0.55561   0.00000  Uiso   1.00
N832   N     0.18905   0.88616   0.94439   0.00000  Uiso   1.00
O833   O     0.25000   0.50000   0.25000   0.00000  Uiso   1.00
O834   O     0.25000   0.96963   0.66245   0.00000  Uiso   1.00
O835   O     0.46963   0.75000   0.33755   0.00000  Uiso   1.00
O836   O     0.03036   0.75000   0.66245   0.00000  Uiso   1.00
O837   O     0.00000   0.71964   0.83755   0.00000  Uiso   1.00
O838   O     0.00000   0.78037   0.16245   0.00000  Uiso   1.00
O839   O     0.28036   0.50000   0.83755   0.00000  Uiso   1.00
O840   O     0.21963   0.50000   0.16245   0.00000  Uiso   1.00
O841   O     0.00000   0.78037   0.83755   0.00000  Uiso   1.00
O842   O     0.00000   0.71964   0.16245   0.00000  Uiso   1.00
O843   O     0.21963   0.50000   0.83755   0.00000  Uiso   1.00
O844   O     0.25000   0.50000   0.75000   0.00000  Uiso   1.00
O845   O     0.28036   0.50000   0.16245   0.00000  Uiso   1.00
O846   O     0.20724   0.57307   0.27302   0.00000  Uiso   1.00
O847   O     0.29275   0.92692   0.72698   0.00000  Uiso   1.00
O848   O     0.42692   0.70724   0.27302   0.00000  Uiso   1.00
O849   O     0.07307   0.79275   0.72698   0.00000  Uiso   1.00
O850   O     0.29275   0.92692   0.27302   0.00000  Uiso   1.00
O851   O     0.20724   0.57307   0.72698   0.00000  Uiso   1.00
O852   O     0.07307   0.79275   0.27302   0.00000  Uiso   1.00
O853   O     0.42692   0.70724   0.72698   0.00000  Uiso   1.00
O854   O     0.20724   0.92692   0.72698   0.00000  Uiso   1.00
O855   O     0.00000   0.75000   0.25000   0.00000  Uiso   1.00
O856   O     0.29275   0.57307   0.27302   0.00000  Uiso   1.00
O857   O     0.42692   0.79275   0.72698   0.00000  Uiso   1.00
O858   O     0.07307   0.70724   0.27302   0.00000  Uiso   1.00
O859   O     0.29275   0.57307   0.72698   0.00000  Uiso   1.00
O860   O     0.20724   0.92692   0.27302   0.00000  Uiso   1.00
O861   O     0.07307   0.70724   0.72698   0.00000  Uiso   1.00
O862   O     0.42692   0.79275   0.27302   0.00000  Uiso   1.00
O863   O     0.45724   0.82307   0.77302   0.00000  Uiso   1.00
O864   O     0.04275   0.67693   0.22698   0.00000  Uiso   1.00
O865   O     0.17692   0.95724   0.77302   0.00000  Uiso   1.00
O866   O     0.00000   0.75000   0.75000   0.00000  Uiso   1.00
O867   O     0.32307   0.54275   0.22698   0.00000  Uiso   1.00
O868   O     0.04275   0.67693   0.77302   0.00000  Uiso   1.00
O869   O     0.45724   0.82307   0.22698   0.00000  Uiso   1.00
O870   O     0.32307   0.54275   0.77302   0.00000  Uiso   1.00
O871   O     0.17692   0.95724   0.22698   0.00000  Uiso   1.00
O872   O     0.45724   0.67692   0.22698   0.00000  Uiso   1.00
O873   O     0.04275   0.82308   0.77302   0.00000  Uiso   1.00
O874   O     0.17692   0.54275   0.22698   0.00000  Uiso   1.00
O875   O     0.32307   0.95724   0.77302   0.00000  Uiso   1.00
O876   O     0.04275   0.82308   0.22698   0.00000  Uiso   1.00
O877   O     0.25000   0.96963   0.33755   0.00000  Uiso   1.00
O878   O     0.45724   0.67692   0.77302   0.00000  Uiso   1.00
O879   O     0.32307   0.95724   0.22698   0.00000  Uiso   1.00
O880   O     0.17692   0.54275   0.77302   0.00000  Uiso   1.00
O881   O     0.25000   0.53036   0.66245   0.00000  Uiso   1.00
O882   O     0.03036   0.75000   0.33755   0.00000  Uiso   1.00
O883   O     0.46963   0.75000   0.66245   0.00000  Uiso   1.00
O884   O     0.25000   0.53036   0.33755   0.00000  Uiso   1.00
Zn885  Zn    0.20659   0.50000   0.21735   0.00000  Uiso   1.00
Zn886  Zn    0.04340   0.75000   0.28265   0.00000  Uiso   1.00
Zn887  Zn    0.25000   0.95659   0.71735   0.00000  Uiso   1.00
Zn888  Zn    0.25000   0.54340   0.28265   0.00000  Uiso   1.00
Zn889  Zn    0.04340   0.75000   0.71735   0.00000  Uiso   1.00
Zn890  Zn    0.45659   0.75000   0.28265   0.00000  Uiso   1.00
Zn891  Zn    0.25000   0.54340   0.71735   0.00000  Uiso   1.00
Zn892  Zn    0.25000   0.95659   0.28265   0.00000  Uiso   1.00
Zn893  Zn    0.29340   0.50000   0.78265   0.00000  Uiso   1.00
Zn894  Zn    0.00000   0.70660   0.21735   0.00000  Uiso   1.00
Zn895  Zn   -0.00000   0.79340   0.78265   0.00000  Uiso   1.00
Zn896  Zn    0.29340   0.50000   0.21735   0.00000  Uiso   1.00
Zn897  Zn    0.20659   0.50000   0.78265   0.00000  Uiso   1.00
Zn898  Zn    0.00000   0.79341   0.21735   0.00000  Uiso   1.00
Zn899  Zn    0.00000   0.70660   0.78265   0.00000  Uiso   1.00
Zn900  Zn    0.45659   0.75000   0.71735   0.00000  Uiso   1.00
C901   C     0.50582   0.78260   0.41808   0.00000  Uiso   1.00
C902   C     0.74418   0.96740   0.08192   0.00000  Uiso   1.00
C903   C     0.71807   0.98953   0.54112   0.00000  Uiso   1.00
C904   C     0.51047   0.78193   0.45888   0.00000  Uiso   1.00
C905   C     0.98953   0.71807   0.54112   0.00000  Uiso   1.00
C906   C     0.71807   0.98953   0.45888   0.00000  Uiso   1.00
C907   C     0.78193   0.51047   0.54112   0.00000  Uiso   1.00
C908   C     0.73953   0.96807   0.95888   0.00000  Uiso   1.00
C909   C     0.76047   0.53193   0.04112   0.00000  Uiso   1.00
C910   C     0.53193   0.76047   0.95888   0.00000  Uiso   1.00
C911   C     0.96807   0.73953   0.04112   0.00000  Uiso   1.00
C912   C     0.76047   0.53193   0.95888   0.00000  Uiso   1.00
C913   C     0.96740   0.74418   0.91808   0.00000  Uiso   1.00
C914   C     0.73953   0.96807   0.04112   0.00000  Uiso   1.00
C915   C     0.96807   0.73953   0.95888   0.00000  Uiso   1.00
C916   C     0.53193   0.76047   0.04112   0.00000  Uiso   1.00
C917   C     0.59811   0.84811   0.25000   0.00000  Uiso   1.00
C918   C     0.90189   0.65189   0.75000   0.00000  Uiso   1.00
C919   C     0.65190   0.59810   0.25000   0.00000  Uiso   1.00
C920   C     0.84810   0.90190   0.75000   0.00000  Uiso   1.00
C921   C     0.90189   0.65189   0.25000   0.00000  Uiso   1.00
C922   C     0.59811   0.84811   0.75000   0.00000  Uiso   1.00
C923   C     0.84810   0.90190   0.25000   0.00000  Uiso   1.00
C924   C     0.53260   0.75582   0.08192   0.00000  Uiso   1.00
C925   C     0.65190   0.59810   0.75000   0.00000  Uiso   1.00
C926   C     0.59810   0.65190   0.75000   0.00000  Uiso   1.00
C927   C     0.90190   0.84810   0.25000   0.00000  Uiso   1.00
C928   C     0.65189   0.90189   0.75000   0.00000  Uiso   1.00
C929   C     0.84811   0.59811   0.25000   0.00000  Uiso   1.00
C930   C     0.90190   0.84810   0.75000   0.00000  Uiso   1.00
C931   C     0.59810   0.65190   0.25000   0.00000  Uiso   1.00
C932   C     0.84811   0.59811   0.75000   0.00000  Uiso   1.00
C933   C     0.65189   0.90189   0.25000   0.00000  Uiso   1.00
C934   C     0.50000   0.75000   0.47946   0.00000  Uiso   1.00
C935   C     0.74418   0.96740   0.91808   0.00000  Uiso   1.00
C936   C     0.50000   0.75000   0.52054   0.00000  Uiso   1.00
C937   C     0.75000   0.50000   0.47946   0.00000  Uiso   1.00
C938   C     0.75000   0.50000   0.52054   0.00000  Uiso   1.00
C939   C     0.75000   0.50000   0.97946   0.00000  Uiso   1.00
C940   C     0.75000   0.50000   0.02054   0.00000  Uiso   1.00
C941   C     0.50000   0.75000   0.97946   0.00000  Uiso   1.00
C942   C     0.50000   0.75000   0.02054   0.00000  Uiso   1.00
C943   C     0.95472   0.65935   0.45980   0.00000  Uiso   1.00
C944   C     0.54528   0.84065   0.54020   0.00000  Uiso   1.00
C945   C     0.84065   0.54528   0.45980   0.00000  Uiso   1.00
C946   C     0.75582   0.53260   0.08192   0.00000  Uiso   1.00
C947   C     0.65935   0.95472   0.54020   0.00000  Uiso   1.00
C948   C     0.54528   0.84065   0.45980   0.00000  Uiso   1.00
C949   C     0.95472   0.65935   0.54020   0.00000  Uiso   1.00
C950   C     0.65935   0.95472   0.45980   0.00000  Uiso   1.00
C951   C     0.84065   0.54528   0.54020   0.00000  Uiso   1.00
C952   C     0.70472   0.90935   0.95980   0.00000  Uiso   1.00
C953   C     0.79528   0.59065   0.04020   0.00000  Uiso   1.00
C954   C     0.59065   0.79528   0.95980   0.00000  Uiso   1.00
C955   C     0.90935   0.70472   0.04020   0.00000  Uiso   1.00
C956   C     0.79528   0.59065   0.95980   0.00000  Uiso   1.00
C957   C     0.53260   0.75582   0.91808   0.00000  Uiso   1.00
C958   C     0.70472   0.90935   0.04020   0.00000  Uiso   1.00
C959   C     0.90935   0.70472   0.95980   0.00000  Uiso   1.00
C960   C     0.59065   0.79528   0.04020   0.00000  Uiso   1.00
C961   C     0.50389   0.81652   0.39655   0.00000  Uiso   1.00
C962   C     0.99611   0.68348   0.60345   0.00000  Uiso   1.00
C963   C     0.68348   0.99611   0.39655   0.00000  Uiso   1.00
C964   C     0.81652   0.50389   0.60345   0.00000  Uiso   1.00
C965   C     0.99611   0.68348   0.39655   0.00000  Uiso   1.00
C966   C     0.50389   0.81652   0.60345   0.00000  Uiso   1.00
C967   C     0.81652   0.50389   0.39655   0.00000  Uiso   1.00
C968   C     0.96740   0.74418   0.08192   0.00000  Uiso   1.00
C969   C     0.68348   0.99611   0.60345   0.00000  Uiso   1.00
C970   C     0.75389   0.56652   0.89655   0.00000  Uiso   1.00
C971   C     0.74611   0.93348   0.10345   0.00000  Uiso   1.00
C972   C     0.93348   0.74611   0.89655   0.00000  Uiso   1.00
C973   C     0.56652   0.75389   0.10345   0.00000  Uiso   1.00
C974   C     0.74611   0.93348   0.89655   0.00000  Uiso   1.00
C975   C     0.75389   0.56652   0.10345   0.00000  Uiso   1.00
C976   C     0.56652   0.75389   0.89655   0.00000  Uiso   1.00
C977   C     0.93348   0.74611   0.10345   0.00000  Uiso   1.00
C978   C     0.50000   0.75000   0.39803   0.00000  Uiso   1.00
C979   C     0.50000   0.75000   0.60197   0.00000  Uiso   1.00
C980   C     0.75000   0.50000   0.39803   0.00000  Uiso   1.00
C981   C     0.99418   0.71740   0.58192   0.00000  Uiso   1.00
C982   C     0.75000   0.50000   0.60197   0.00000  Uiso   1.00
C983   C     0.75000   0.50000   0.89803   0.00000  Uiso   1.00
C984   C     0.75000   0.50000   0.10197   0.00000  Uiso   1.00
C985   C     0.50000   0.75000   0.89803   0.00000  Uiso   1.00
C986   C     0.50000   0.75000   0.10197   0.00000  Uiso   1.00
C987   C     0.97419   0.68841   0.47962   0.00000  Uiso   1.00
C988   C     0.52582   0.81159   0.52038   0.00000  Uiso   1.00
C989   C     0.81159   0.52581   0.47962   0.00000  Uiso   1.00
C990   C     0.68841   0.97419   0.52038   0.00000  Uiso   1.00
C991   C     0.52582   0.81159   0.47962   0.00000  Uiso   1.00
C992   C     0.71740   0.99418   0.41808   0.00000  Uiso   1.00
C993   C     0.97419   0.68841   0.52038   0.00000  Uiso   1.00
C994   C     0.68841   0.97419   0.47962   0.00000  Uiso   1.00
C995   C     0.81159   0.52581   0.52038   0.00000  Uiso   1.00
C996   C     0.72419   0.93841   0.97962   0.00000  Uiso   1.00
C997   C     0.77581   0.56159   0.02038   0.00000  Uiso   1.00
C998   C     0.56159   0.77582   0.97962   0.00000  Uiso   1.00
C999   C     0.93841   0.72419   0.02038   0.00000  Uiso   1.00
C1000  C     0.77581   0.56159   0.97962   0.00000  Uiso   1.00
C1001  C     0.72419   0.93841   0.02038   0.00000  Uiso   1.00
C1002  C     0.93841   0.72419   0.97962   0.00000  Uiso   1.00
C1003  C     0.78260   0.50582   0.58192   0.00000  Uiso   1.00
C1004  C     0.56159   0.77582   0.02038   0.00000  Uiso   1.00
C1005  C     0.75000   0.50000   0.35567   0.00000  Uiso   1.00
C1006  C     0.75000   0.50000   0.64433   0.00000  Uiso   1.00
C1007  C     0.50000   0.75000   0.35567   0.00000  Uiso   1.00
C1008  C     0.50000   0.75000   0.64433   0.00000  Uiso   1.00
C1009  C     0.50000   0.75000   0.85567   0.00000  Uiso   1.00
C1010  C     0.50000   0.75000   0.14433   0.00000  Uiso   1.00
C1011  C     0.75000   0.50000   0.85567   0.00000  Uiso   1.00
C1012  C     0.75000   0.50000   0.14433   0.00000  Uiso   1.00
C1013  C     0.67998   0.57002   0.25000   0.00000  Uiso   1.00
C1014  C     0.99418   0.71740   0.41808   0.00000  Uiso   1.00
C1015  C     0.82002   0.92998   0.75000   0.00000  Uiso   1.00
C1016  C     0.92997   0.67997   0.25000   0.00000  Uiso   1.00
C1017  C     0.57003   0.82003   0.75000   0.00000  Uiso   1.00
C1018  C     0.82002   0.92998   0.25000   0.00000  Uiso   1.00
C1019  C     0.67998   0.57002   0.75000   0.00000  Uiso   1.00
C1020  C     0.57003   0.82003   0.25000   0.00000  Uiso   1.00
C1021  C     0.92997   0.67997   0.75000   0.00000  Uiso   1.00
C1022  C     0.67997   0.92997   0.75000   0.00000  Uiso   1.00
C1023  C     0.82003   0.57003   0.25000   0.00000  Uiso   1.00
C1024  C     0.92998   0.82002   0.75000   0.00000  Uiso   1.00
C1025  C     0.50582   0.78260   0.58192   0.00000  Uiso   1.00
C1026  C     0.57002   0.67998   0.25000   0.00000  Uiso   1.00
C1027  C     0.82003   0.57003   0.75000   0.00000  Uiso   1.00
C1028  C     0.67997   0.92997   0.25000   0.00000  Uiso   1.00
C1029  C     0.57002   0.67998   0.75000   0.00000  Uiso   1.00
C1030  C     0.92998   0.82002   0.25000   0.00000  Uiso   1.00
C1031  C     0.63917   0.88778   0.21440   0.00000  Uiso   1.00
C1032  C     0.86083   0.61222   0.78560   0.00000  Uiso   1.00
C1033  C     0.61378   0.64078   0.21455   0.00000  Uiso   1.00
C1034  C     0.88622   0.85922   0.78545   0.00000  Uiso   1.00
C1035  C     0.86083   0.61222   0.21440   0.00000  Uiso   1.00
C1036  C     0.78260   0.50582   0.41808   0.00000  Uiso   1.00
C1037  C     0.63917   0.88778   0.78560   0.00000  Uiso   1.00
C1038  C     0.88622   0.85922   0.21455   0.00000  Uiso   1.00
C1039  C     0.61378   0.64078   0.78545   0.00000  Uiso   1.00
C1040  C     0.64078   0.61378   0.78545   0.00000  Uiso   1.00
C1041  C     0.85922   0.88622   0.21455   0.00000  Uiso   1.00
C1042  C     0.61222   0.86083   0.78560   0.00000  Uiso   1.00
C1043  C     0.88778   0.63917   0.21440   0.00000  Uiso   1.00
C1044  C     0.85922   0.88622   0.78545   0.00000  Uiso   1.00
C1045  C     0.64078   0.61378   0.21455   0.00000  Uiso   1.00
C1046  C     0.88778   0.63917   0.78560   0.00000  Uiso   1.00
C1047  C     0.71740   0.99418   0.58192   0.00000  Uiso   1.00
C1048  C     0.61222   0.86083   0.21440   0.00000  Uiso   1.00
C1049  C     0.88917   0.63778   0.71440   0.00000  Uiso   1.00
C1050  C     0.61083   0.86222   0.28560   0.00000  Uiso   1.00
C1051  C     0.86378   0.89078   0.71455   0.00000  Uiso   1.00
C1052  C     0.63622   0.60922   0.28545   0.00000  Uiso   1.00
C1053  C     0.61083   0.86222   0.71440   0.00000  Uiso   1.00
C1054  C     0.88917   0.63778   0.28560   0.00000  Uiso   1.00
C1055  C     0.63622   0.60922   0.71455   0.00000  Uiso   1.00
C1056  C     0.86378   0.89078   0.28545   0.00000  Uiso   1.00
C1057  C     0.89078   0.86378   0.28545   0.00000  Uiso   1.00
C1058  C     0.75582   0.53260   0.91808   0.00000  Uiso   1.00
C1059  C     0.60922   0.63622   0.71455   0.00000  Uiso   1.00
C1060  C     0.86222   0.61083   0.28560   0.00000  Uiso   1.00
C1061  C     0.63778   0.88917   0.71440   0.00000  Uiso   1.00
C1062  C     0.60922   0.63622   0.28545   0.00000  Uiso   1.00
C1063  C     0.89078   0.86378   0.71455   0.00000  Uiso   1.00
C1064  C     0.63778   0.88917   0.28560   0.00000  Uiso   1.00
C1065  C     0.86222   0.61083   0.71440   0.00000  Uiso   1.00
C1066  C     0.98953   0.71807   0.45888   0.00000  Uiso   1.00
C1067  C     0.51047   0.78193   0.54112   0.00000  Uiso   1.00
C1068  C     0.78193   0.51047   0.45888   0.00000  Uiso   1.00
I1069  I     0.66206   0.90549   0.16020   0.00000  Uiso   1.00
I1070  I     0.83372   0.90177   0.16094   0.00000  Uiso   1.00
I1071  I     0.59451   0.83794   0.83980   0.00000  Uiso   1.00
I1072  I     0.90549   0.66206   0.16020   0.00000  Uiso   1.00
I1073  I     0.83372   0.90177   0.83906   0.00000  Uiso   1.00
I1074  I     0.66628   0.59823   0.16094   0.00000  Uiso   1.00
I1075  I     0.90549   0.66206   0.83980   0.00000  Uiso   1.00
I1076  I     0.59451   0.83794   0.16020   0.00000  Uiso   1.00
I1077  I     0.91206   0.65549   0.66020   0.00000  Uiso   1.00
I1078  I     0.58794   0.84451   0.33980   0.00000  Uiso   1.00
I1079  I     0.84823   0.91628   0.66094   0.00000  Uiso   1.00
I1080  I     0.83794   0.59451   0.83980   0.00000  Uiso   1.00
I1081  I     0.65177   0.58372   0.33906   0.00000  Uiso   1.00
I1082  I     0.58794   0.84451   0.66020   0.00000  Uiso   1.00
I1083  I     0.91206   0.65549   0.33980   0.00000  Uiso   1.00
I1084  I     0.65177   0.58372   0.66094   0.00000  Uiso   1.00
I1085  I     0.84823   0.91628   0.33906   0.00000  Uiso   1.00
I1086  I     0.91628   0.84823   0.33906   0.00000  Uiso   1.00
I1087  I     0.58372   0.65177   0.66094   0.00000  Uiso   1.00
I1088  I     0.84451   0.58794   0.33980   0.00000  Uiso   1.00
I1089  I     0.65549   0.91206   0.66020   0.00000  Uiso   1.00
I1090  I     0.58372   0.65177   0.33906   0.00000  Uiso   1.00
I1091  I     0.59823   0.66628   0.16094   0.00000  Uiso   1.00
I1092  I     0.91628   0.84823   0.66094   0.00000  Uiso   1.00
I1093  I     0.65549   0.91206   0.33980   0.00000  Uiso   1.00
I1094  I     0.84451   0.58794   0.66020   0.00000  Uiso   1.00
I1095  I     0.90177   0.83372   0.83906   0.00000  Uiso   1.00
I1096  I     0.83794   0.59451   0.16020   0.00000  Uiso   1.00
I1097  I     0.66206   0.90549   0.83980   0.00000  Uiso   1.00
I1098  I     0.90177   0.83372   0.16094   0.00000  Uiso   1.00
I1099  I     0.59823   0.66628   0.83906   0.00000  Uiso   1.00
I1100  I     0.66628   0.59823   0.83906   0.00000  Uiso   1.00
N1101  N     0.93905   0.63616   0.44439   0.00000  Uiso   1.00
N1102  N     0.81095   0.61384   0.05561   0.00000  Uiso   1.00
N1103  N     0.61384   0.81095   0.94439   0.00000  Uiso   1.00
N1104  N     0.88616   0.68905   0.05561   0.00000  Uiso   1.00
N1105  N     0.81095   0.61384   0.94439   0.00000  Uiso   1.00
N1106  N     0.68905   0.88616   0.05561   0.00000  Uiso   1.00
N1107  N     0.88616   0.68905   0.94439   0.00000  Uiso   1.00
N1108  N     0.61384   0.81095   0.05561   0.00000  Uiso   1.00
N1109  N     0.50210   0.84354   0.37939   0.00000  Uiso   1.00
N1110  N     0.99790   0.65646   0.62061   0.00000  Uiso   1.00
N1111  N     0.65646   0.99790   0.37939   0.00000  Uiso   1.00
N1112  N     0.56095   0.86383   0.55561   0.00000  Uiso   1.00
N1113  N     0.84354   0.50210   0.62061   0.00000  Uiso   1.00
N1114  N     0.99790   0.65646   0.37939   0.00000  Uiso   1.00
N1115  N     0.50210   0.84354   0.62061   0.00000  Uiso   1.00
N1116  N     0.84354   0.50210   0.37939   0.00000  Uiso   1.00
N1117  N     0.65646   0.99790   0.62061   0.00000  Uiso   1.00
N1118  N     0.75210   0.59354   0.87939   0.00000  Uiso   1.00
N1119  N     0.74790   0.90646   0.12061   0.00000  Uiso   1.00
N1120  N     0.90646   0.74790   0.87939   0.00000  Uiso   1.00
N1121  N     0.59354   0.75210   0.12061   0.00000  Uiso   1.00
N1122  N     0.74790   0.90646   0.87939   0.00000  Uiso   1.00
N1123  N     0.86384   0.56095   0.44439   0.00000  Uiso   1.00
N1124  N     0.75210   0.59354   0.12061   0.00000  Uiso   1.00
N1125  N     0.59354   0.75210   0.87939   0.00000  Uiso   1.00
N1126  N     0.90646   0.74790   0.12061   0.00000  Uiso   1.00
N1127  N     0.63616   0.93905   0.55561   0.00000  Uiso   1.00
N1128  N     0.56095   0.86383   0.44439   0.00000  Uiso   1.00
N1129  N     0.93905   0.63616   0.55561   0.00000  Uiso   1.00
N1130  N     0.63616   0.93905   0.44439   0.00000  Uiso   1.00
N1131  N     0.86384   0.56095   0.55561   0.00000  Uiso   1.00
N1132  N     0.68905   0.88616   0.94439   0.00000  Uiso   1.00
O1133  O     0.75000   0.50000   0.25000   0.00000  Uiso   1.00
O1134  O     0.75000   0.96963   0.66245   0.00000  Uiso   1.00
O1135  O     0.96963   0.75000   0.33755   0.00000  Uiso   1.00
O1136  O     0.53036   0.75000   0.66245   0.00000  Uiso   1.00
O1137  O     0.50000   0.71964   0.83755   0.00000  Uiso   1.00
O1138  O     0.50000   0.78037   0.16245   0.00000  Uiso   1.00
O1139  O     0.78036   0.50000   0.83755   0.00000  Uiso   1.00
O1140  O     0.71963   0.50000   0.16245   0.00000  Uiso   1.00
O1141  O     0.50000   0.78037   0.83755   0.00000  Uiso   1.00
O1142  O     0.50000   0.71964   0.16245   0.00000  Uiso   1.00
O1143  O     0.71963   0.50000   0.83755   0.00000  Uiso   1.00
O1144  O     0.75000   0.50000   0.75000   0.00000  Uiso   1.00
O1145  O     0.78036   0.50000   0.16245   0.00000  Uiso   1.00
O1146  O     0.70724   0.57307   0.27302   0.00000  Uiso   1.00
O1147  O     0.79275   0.92692   0.72698   0.00000  Uiso   1.00
O1148  O     0.92692   0.70724   0.27302   0.00000  Uiso   1.00
O1149  O     0.57307   0.79275   0.72698   0.00000  Uiso   1.00
O1150  O     0.79275   0.92692   0.27302   0.00000  Uiso   1.00
O1151  O     0.70724   0.57307   0.72698   0.00000  Uiso   1.00
O1152  O     0.57307   0.79275   0.27302   0.00000  Uiso   1.00
O1153  O     0.92692   0.70724   0.72698   0.00000  Uiso   1.00
O1154  O     0.70724   0.92692   0.72698   0.00000  Uiso   1.00
O1155  O     0.50000   0.75000   0.25000   0.00000  Uiso   1.00
O1156  O     0.79275   0.57307   0.27302   0.00000  Uiso   1.00
O1157  O     0.92692   0.79275   0.72698   0.00000  Uiso   1.00
O1158  O     0.57307   0.70724   0.27302   0.00000  Uiso   1.00
O1159  O     0.79275   0.57307   0.72698   0.00000  Uiso   1.00
O1160  O     0.70724   0.92692   0.27302   0.00000  Uiso   1.00
O1161  O     0.57307   0.70724   0.72698   0.00000  Uiso   1.00
O1162  O     0.92692   0.79275   0.27302   0.00000  Uiso   1.00
O1163  O     0.95724   0.82307   0.77302   0.00000  Uiso   1.00
O1164  O     0.54275   0.67693   0.22698   0.00000  Uiso   1.00
O1165  O     0.67692   0.95724   0.77302   0.00000  Uiso   1.00
O1166  O     0.50000   0.75000   0.75000   0.00000  Uiso   1.00
O1167  O     0.82307   0.54275   0.22698   0.00000  Uiso   1.00
O1168  O     0.54275   0.67693   0.77302   0.00000  Uiso   1.00
O1169  O     0.95724   0.82307   0.22698   0.00000  Uiso   1.00
O1170  O     0.82307   0.54275   0.77302   0.00000  Uiso   1.00
O1171  O     0.67692   0.95724   0.22698   0.00000  Uiso   1.00
O1172  O     0.95724   0.67692   0.22698   0.00000  Uiso   1.00
O1173  O     0.54275   0.82308   0.77302   0.00000  Uiso   1.00
O1174  O     0.67692   0.54275   0.22698   0.00000  Uiso   1.00
O1175  O     0.82307   0.95724   0.77302   0.00000  Uiso   1.00
O1176  O     0.54275   0.82308   0.22698   0.00000  Uiso   1.00
O1177  O     0.75000   0.96963   0.33755   0.00000  Uiso   1.00
O1178  O     0.95724   0.67692   0.77302   0.00000  Uiso   1.00
O1179  O     0.82307   0.95724   0.22698   0.00000  Uiso   1.00
O1180  O     0.67692   0.54275   0.77302   0.00000  Uiso   1.00
O1181  O     0.75000   0.53036   0.66245   0.00000  Uiso   1.00
O1182  O     0.53036   0.75000   0.33755   0.00000  Uiso   1.00
O1183  O     0.96963   0.75000   0.66245   0.00000  Uiso   1.00
O1184  O     0.75000   0.53036   0.33755   0.00000  Uiso   1.00
Zn1185 Zn    0.70659   0.50000   0.21735   0.00000  Uiso   1.00
Zn1186 Zn    0.54340   0.75000   0.28265   0.00000  Uiso   1.00
Zn1187 Zn    0.75000   0.95659   0.71735   0.00000  Uiso   1.00
Zn1188 Zn    0.75000   0.54340   0.28265   0.00000  Uiso   1.00
Zn1189 Zn    0.54340   0.75000   0.71735   0.00000  Uiso   1.00
Zn1190 Zn    0.95659   0.75000   0.28265   0.00000  Uiso   1.00
Zn1191 Zn    0.75000   0.54340   0.71735   0.00000  Uiso   1.00
Zn1192 Zn    0.75000   0.95659   0.28265   0.00000  Uiso   1.00
Zn1193 Zn    0.79340   0.50000   0.78265   0.00000  Uiso   1.00
Zn1194 Zn    0.50000   0.70660   0.21735   0.00000  Uiso   1.00
Zn1195 Zn    0.50000   0.79340   0.78265   0.00000  Uiso   1.00
Zn1196 Zn    0.79340   0.50000   0.21735   0.00000  Uiso   1.00
Zn1197 Zn    0.70659   0.50000   0.78265   0.00000  Uiso   1.00
Zn1198 Zn    0.50000   0.79341   0.21735   0.00000  Uiso   1.00
Zn1199 Zn    0.50000   0.70660   0.78265   0.00000  Uiso   1.00
Zn1200 Zn    0.95659   0.75000   0.71735   0.00000  Uiso   1.00
loop_
_geom_bond_atom_site_label_1
_geom_bond_atom_site_label_2
_geom_bond_distance
_geom_bond_site_symmetry_2
_ccdc_geom_bond_type
C1     C78     1.399   .     A
C1     C61     1.452   .     S
C1     C4      1.416   .     A
C2     C71     1.452   .     S
C2     C14     1.416   .     A
C2     C684    1.399   .     S
C3     C147    1.416   .     A
C3     C90     1.420   .     A
C3     C638    1.424   .     S
C4     C91     1.420   .     A
C4     C34     1.424   .     A
C5     C81     1.416   .     A
C5     C93     1.420   .     A
C5     C336    1.424   .     S
C6     C94     1.420   .     A
C6     C92     1.416   .     A
C6     C637    1.424   .     A
C7     C103    1.416   .     A
C7     C95     1.420   .     A
C7     C38     1.424   .     A
C8     C35     1.416   .     A
C8     C96     1.420   .     A
C8     C639    1.424   .     S
C9     C46     1.416   .     A
C9     C97     1.420   .     A
C9     C40     1.424   .     A
C10    C98     1.420   .     A
C10    C57     1.416   .     A
C10    C41     1.424   .     S
C11    C99     1.420   .     A
C11    C68     1.416   .     A
C11    C342    1.424   .     A
C12    C158    1.416   .     A
C12    C39     1.424   .     A
C12    C100    1.420   .     A
C13    C72     1.452   .     S
C13    C385    1.399   .     A
C13    C15     1.416   .     A
C14    C101    1.420   .     A
C14    C640    1.424   .     S
C15    C341    1.424   .     A
C15    C102    1.420   .     A
C16    C104    1.420   .     A
C16    C24     1.416   .     A
C16    C42     1.424   .     S
C17    C120    1.460   .     S
C17    C148    1.412   .     A
C17    C150    1.412   .     A
C18    C121    1.460   .     S
C18    C149    1.412   .     A
C18    C146    1.412   .     A
C19    C113    1.457   .     S
C19    C145    1.410   .     A
C19    C152    1.410   .     A
C20    C144    1.410   .     A
C20    C151    1.410   .     A
C20    C115    1.457   .     S
C21    C116    1.460   .     S
C21    C154    1.412   .     A
C21    C143    1.412   .     A
C22    C142    1.412   .     A
C22    C153    1.412   .     A
C22    C117    1.460   .     S
C23    C118    1.457   .     S
C23    C156    1.410   .     A
C23    C141    1.410   .     A
C24    C73     1.452   .     S
C24    C86     1.399   .     S
C25    C119    1.457   .     S
C25    C140    1.410   .     A
C25    C155    1.410   .     A
C26    C139    1.410   .     A
C26    C159    1.410   .     A
C26    C129    1.457   .     S
C27    C138    1.410   .     A
C27    C157    1.410   .     A
C27    C130    1.457   .     S
C28    C137    1.412   .     A
C28    C122    1.460   .     S
C28    C161    1.412   .     A
C29    C135    1.412   .     A
C29    C160    1.412   .     A
C29    C123    1.460   .     S
C30    C134    1.410   .     A
C30    C163    1.410   .     A
C30    C124    1.457   .     S
C31    C162    1.410   .     A
C31    C133    1.410   .     A
C31    C126    1.457   .     S
C32    C127    1.460   .     S
C32    C165    1.412   .     A
C32    C132    1.412   .     A
C33    C164    1.412   .     A
C33    C131    1.412   .     A
C33    C128    1.460   .     S
C34    C36     1.415   .     A
C34    C466    1.424   1_455 S
C35    C74     1.452   .     S
C35    C683    1.399   .     S
C36    C167    1.424   .     A
C36    C305    1.424   1_455 S
C37    C606    1.424   1_545 A
C37    C38     1.415   .     S
C37    C168    1.424   .     S
C38    C603    1.424   1_545 S
C39    C608    1.424   1_545 S
C39    C40     1.415   1_556 S
C40    C614    1.424   1_545 S
C40    C39     1.415   1_554 S
C41    C315    1.424   1_455 A
C41    C42     1.415   1_556 S
C42    C311    1.424   1_455 A
C42    C41     1.415   1_554 S
C43    N201    1.158   .     T
C43    C87     1.456   .     S
C44    N212    1.158   .     T
C44    C88     1.456   .     S
C45    C89     1.456   .     S
C45    N223    1.158   .     T
C46    C75     1.452   .     S
C46    C84     1.399   .     A
C47    C90     1.456   .     S
C47    N227    1.158   .     T
C48    C91     1.456   .     S
C48    N228    1.158   .     T
C49    C93     1.456   .     S
C49    N229    1.158   .     T
C50    C94     1.456   .     S
C50    N230    1.158   .     T
C51    N231    1.158   .     T
C51    C95     1.456   .     S
C52    N232    1.158   .     T
C52    C96     1.456   .     S
C53    N202    1.158   .     T
C53    C97     1.456   .     S
C54    N203    1.158   .     T
C54    C98     1.456   .     S
C55    C99     1.456   .     S
C55    N204    1.158   .     T
C56    N205    1.158   .     T
C56    C100    1.456   .     S
C57    C76     1.452   .     S
C57    C85     1.399   .     S
C58    C101    1.456   .     S
C58    N206    1.158   .     T
C59    C102    1.456   .     S
C59    N207    1.158   .     T
C60    C104    1.456   .     S
C60    N208    1.158   .     T
C61    N209    1.157   .     T
C62    C81     1.452   .     S
C62    N210    1.157   .     T
C63    N211    1.157   .     T
C63    C92     1.452   .     S
C64    C103    1.452   .     S
C64    N213    1.157   .     T
C65    N214    1.157   .     T
C65    C114    1.452   .     S
C66    N215    1.157   .     T
C66    C125    1.452   .     S
C67    C136    1.452   .     S
C67    N216    1.157   .     T
C68    C77     1.452   .     S
C68    C386    1.399   .     A
C69    C147    1.452   .     S
C69    N217    1.157   .     T
C70    N218    1.157   .     T
C70    C158    1.452   .     S
C71    N219    1.157   .     T
C72    N220    1.157   .     T
C73    N221    1.157   .     T
C74    N222    1.157   .     T
C75    N224    1.157   .     T
C76    N225    1.157   .     T
C77    N226    1.157   .     T
C78    C107    1.460   .     S
C78    C414    1.399   1_455 S
C79    C108    1.460   .     S
C79    C381    1.399   1_455 A
C79    C125    1.399   .     S
C80    C692    1.399   1_545 A
C80    C105    1.460   .     S
C80    C136    1.399   .     S
C81    C379    1.399   .     A
C82    C106    1.460   .     S
C82    C103    1.399   .     A
C82    C747    1.399   1_545 S
C83    C111    1.460   .     S
C83    C158    1.399   .     A
C83    C635    1.399   1_545 S
C84    C112    1.460   .     S
C84    C602    1.399   1_545 S
C85    C313    1.399   1_455 A
C85    C109    1.460   .     S
C86    C110    1.460   .     S
C86    C368    1.399   1_455 A
C87    C93     1.404   .     A
C87    C166    1.420   .     A
C88    C91     1.404   .     A
C88    C167    1.420   .     A
C89    C95     1.404   .     A
C89    C168    1.420   .     A
C90    C94     1.404   .     A
C92    C680    1.399   .     A
C96    C101    1.404   1_556 S
C97    C100    1.404   1_554 S
C98    C104    1.404   1_556 S
C99    C102    1.404   1_554 S
C100   C97     1.404   1_556 S
C101   C96     1.404   1_554 S
C102   C99     1.404   1_556 S
C104   C98     1.404   1_554 S
C105   O877    1.278   1_545 A
C105   O284    1.278   .     S
C106   O281    1.278   .     A
C106   O834    1.278   1_545 S
C107   O535    1.278   1_455 A
C107   O282    1.278   .     S
C108   O583    1.278   1_455 A
C108   O236    1.278   .     S
C109   O241    1.278   .     A
C109   O237    1.278   .     A
C110   O238    1.278   .     S
C110   O242    1.278   .     S
C111   O243    1.278   .     A
C111   O239    1.278   .     A
C112   O245    1.278   .     A
C112   O240    1.278   .     A
C113   O246    1.283   .     A
C113   O274    1.283   .     A
C114   C166    1.416   .     A
C114   C378    1.399   .     S
C115   O247    1.283   .     A
C115   O275    1.283   .     A
C116   O248    1.283   .     A
C116   O272    1.283   .     A
C117   O273    1.283   .     A
C117   O249    1.283   .     A
C118   O250    1.283   .     A
C118   O279    1.283   .     A
C119   O251    1.283   .     A
C119   O280    1.283   .     A
C120   O252    1.283   .     A
C120   O276    1.283   .     A
C121   O253    1.283   .     A
C121   O278    1.283   .     A
C122   O254    1.283   .     A
C122   O265    1.283   .     A
C123   O256    1.283   .     A
C123   O267    1.283   .     A
C124   O257    1.283   .     A
C124   O263    1.283   .     A
C125   C167    1.416   .     A
C126   O258    1.283   .     A
C126   O264    1.283   .     A
C127   O270    1.283   .     A
C127   O259    1.283   .     A
C128   O260    1.283   .     A
C128   O271    1.283   .     A
C129   O268    1.283   .     A
C129   O261    1.283   .     A
C130   O269    1.283   .     A
C130   O262    1.283   .     A
C131   I169    2.149   .     S
C131   C148    1.401   .     A
C132   I180    2.149   .     S
C132   C146    1.401   .     A
C133   C145    1.401   .     A
C133   I191    2.148   .     S
C134   C144    1.401   .     A
C134   I195    2.148   .     S
C135   I196    2.149   .     S
C135   C143    1.401   .     A
C136   C168    1.416   .     A
C137   I197    2.149   .     S
C137   C142    1.401   .     A
C138   C141    1.401   .     A
C138   I198    2.148   .     S
C139   C140    1.401   .     A
C139   I199    2.148   .     S
C140   I200    2.148   .     S
C141   I170    2.148   .     S
C142   I171    2.149   .     S
C143   I172    2.149   .     S
C144   I173    2.148   .     S
C145   I174    2.148   .     S
C146   I175    2.149   .     S
C147   C682    1.399   .     S
C148   I176    2.149   .     S
C149   C165    1.401   .     A
C149   I177    2.149   .     S
C150   C164    1.401   .     A
C150   I178    2.149   .     S
C151   I179    2.148   .     S
C151   C163    1.401   .     A
C152   I181    2.148   .     S
C152   C162    1.401   .     A
C153   C161    1.401   .     A
C153   I182    2.149   .     S
C154   I183    2.149   .     S
C154   C160    1.401   .     A
C155   I184    2.148   .     S
C155   C159    1.401   .     A
C156   I185    2.148   .     S
C156   C157    1.401   .     A
C157   I186    2.148   .     S
C159   I187    2.148   .     S
C160   I188    2.149   .     S
C161   I189    2.149   .     S
C162   I190    2.148   .     S
C163   I192    2.148   .     S
C164   I193    2.149   .     S
C165   I194    2.149   .     S
C166   C334    1.424   .     S
O233   Zn288   1.951   .     S
O233   Zn296   1.951   .     S
O233   Zn285   1.951   .     S
O233   Zn892   1.951   1_545 S
O234   Zn287   1.951   .     S
O234   C706    1.278   .     S
O235   Zn290   1.951   .     S
O235   C407    1.278   .     A
O236   Zn289   1.951   .     S
O237   Zn299   1.951   .     S
O238   Zn298   1.951   .     S
O239   Zn293   1.951   .     S
O240   Zn285   1.951   .     S
O241   Zn295   1.951   .     S
O242   Zn294   1.951   .     S
O243   Zn297   1.951   .     S
O244   Zn293   1.951   .     S
O244   Zn291   1.951   .     S
O244   Zn297   1.951   .     S
O244   Zn887   1.951   1_545 S
O245   Zn296   1.951   .     S
O246   Zn288   1.938   .     S
O247   Zn287   1.938   .     S
O248   Zn290   1.942   .     S
O249   Zn289   1.942   .     S
O250   Zn292   1.938   .     S
O251   Zn291   1.938   .     S
O252   Zn286   1.942   .     S
O253   Zn300   1.942   .     S
O254   Zn287   1.942   .     S
O255   Zn286   1.951   .     S
O255   Zn294   1.951   .     S
O255   Zn298   1.951   .     S
O255   Zn590   1.951   1_455 S
O256   Zn288   1.942   .     S
O257   Zn300   1.938   .     S
O258   Zn286   1.938   .     S
O259   Zn291   1.942   .     S
O260   Zn292   1.942   .     S
O261   Zn289   1.938   .     S
O262   Zn290   1.938   .     S
O263   Zn595   1.938   .     S
O264   Zn294   1.938   .     S
O265   Zn897   1.942   .     S
O266   Zn299   1.951   .     S
O266   Zn289   1.951   .     S
O266   Zn295   1.951   .     S
O266   Zn600   1.951   1_455 S
O267   Zn296   1.942   .     S
O268   Zn299   1.938   .     S
O269   Zn598   1.938   .     S
O270   Zn293   1.942   .     S
O271   Zn885   1.942   .     S
O272   Zn594   1.942   .     S
O273   Zn295   1.942   .     S
O274   Zn285   1.938   .     S
O275   Zn893   1.938   .     S
O276   Zn298   1.942   .     S
O277   Zn292   1.951   .     S
O277   C705    1.278   .     A
O278   Zn599   1.942   .     S
O279   Zn896   1.938   .     S
O280   Zn297   1.938   .     S
O281   Zn291   1.951   .     S
O282   Zn286   1.951   .     S
O283   C408    1.278   .     A
O283   Zn300   1.951   .     S
O284   Zn288   1.951   .     S
Zn285  O871    1.942   1_545 S
Zn287  O844    1.951   .     S
Zn290  O555    1.951   .     S
Zn292  O833    1.951   .     S
Zn293  O875    1.938   1_545 S
Zn294  O572    1.942   1_455 S
Zn295  O563    1.938   1_455 S
Zn296  O879    1.938   1_545 S
Zn297  O865    1.942   1_545 S
Zn298  O569    1.938   1_455 S
Zn299  O578    1.942   1_455 S
Zn300  O566    1.951   .     S
C301   C378    1.399   .     A
C301   C361    1.452   .     S
C301   C304    1.416   .     A
C302   C371    1.452   .     S
C302   C314    1.416   .     A
C302   C984    1.399   .     S
C303   C447    1.416   .     A
C303   C390    1.420   .     A
C303   C938    1.424   .     S
C304   C391    1.420   .     A
C304   C334    1.424   .     A
C305   C381    1.416   .     A
C305   C393    1.420   .     A
C305   C36     1.424   1_655 S
C306   C394    1.420   .     A
C306   C392    1.416   .     A
C306   C937    1.424   .     A
C307   C403    1.416   .     A
C307   C395    1.420   .     A
C307   C338    1.424   .     A
C308   C335    1.416   .     A
C308   C396    1.420   .     A
C308   C939    1.424   .     S
C309   C346    1.416   .     A
C309   C397    1.420   .     A
C309   C340    1.424   .     A
C310   C398    1.420   .     A
C310   C357    1.416   .     A
C310   C341    1.424   .     S
C311   C399    1.420   .     A
C311   C368    1.416   .     A
C311   C42     1.424   1_655 A
C312   C458    1.416   .     A
C312   C339    1.424   .     A
C312   C400    1.420   .     A
C313   C372    1.452   .     S
C313   C85     1.399   1_655 A
C313   C315    1.416   .     A
C314   C401    1.420   .     A
C314   C940    1.424   .     S
C315   C41     1.424   1_655 A
C315   C402    1.420   .     A
C316   C404    1.420   .     A
C316   C324    1.416   .     A
C316   C342    1.424   .     S
C317   C420    1.460   .     S
C317   C448    1.412   .     A
C317   C450    1.412   .     A
C318   C421    1.460   .     S
C318   C449    1.412   .     A
C318   C446    1.412   .     A
C319   C413    1.457   .     S
C319   C445    1.410   .     A
C319   C452    1.410   .     A
C320   C444    1.410   .     A
C320   C451    1.410   .     A
C320   C415    1.457   .     S
C321   C416    1.460   .     S
C321   C454    1.412   .     A
C321   C443    1.412   .     A
C322   C442    1.412   .     A
C322   C453    1.412   .     A
C322   C417    1.460   .     S
C323   C418    1.457   .     S
C323   C456    1.410   .     A
C323   C441    1.410   .     A
C324   C373    1.452   .     S
C324   C386    1.399   .     S
C325   C419    1.457   .     S
C325   C440    1.410   .     A
C325   C455    1.410   .     A
C326   C439    1.410   .     A
C326   C459    1.410   .     A
C326   C429    1.457   .     S
C327   C438    1.410   .     A
C327   C457    1.410   .     A
C327   C430    1.457   .     S
C328   C437    1.412   .     A
C328   C422    1.460   .     S
C328   C461    1.412   .     A
C329   C435    1.412   .     A
C329   C460    1.412   .     A
C329   C423    1.460   .     S
C330   C434    1.410   .     A
C330   C463    1.410   .     A
C330   C424    1.457   .     S
C331   C462    1.410   .     A
C331   C433    1.410   .     A
C331   C426    1.457   .     S
C332   C427    1.460   .     S
C332   C465    1.412   .     A
C332   C432    1.412   .     A
C333   C464    1.412   .     A
C333   C431    1.412   .     A
C333   C428    1.460   .     S
C334   C336    1.415   .     A
C335   C374    1.452   .     S
C335   C983    1.399   .     S
C336   C467    1.424   .     A
C337   C906    1.424   1_545 A
C337   C338    1.415   .     S
C337   C468    1.424   .     S
C338   C903    1.424   1_545 S
C339   C908    1.424   1_545 S
C339   C340    1.415   1_556 S
C340   C914    1.424   1_545 S
C340   C339    1.415   1_554 S
C341   C342    1.415   1_556 S
C342   C341    1.415   1_554 S
C343   N501    1.158   .     T
C343   C387    1.456   .     S
C344   N512    1.158   .     T
C344   C388    1.456   .     S
C345   C389    1.456   .     S
C345   N523    1.158   .     T
C346   C375    1.452   .     S
C346   C384    1.399   .     A
C347   C390    1.456   .     S
C347   N527    1.158   .     T
C348   C391    1.456   .     S
C348   N528    1.158   .     T
C349   C393    1.456   .     S
C349   N529    1.158   .     T
C350   C394    1.456   .     S
C350   N530    1.158   .     T
C351   N531    1.158   .     T
C351   C395    1.456   .     S
C352   N532    1.158   .     T
C352   C396    1.456   .     S
C353   N502    1.158   .     T
C353   C397    1.456   .     S
C354   N503    1.158   .     T
C354   C398    1.456   .     S
C355   C399    1.456   .     S
C355   N504    1.158   .     T
C356   N505    1.158   .     T
C356   C400    1.456   .     S
C357   C376    1.452   .     S
C357   C385    1.399   .     S
C358   C401    1.456   .     S
C358   N506    1.158   .     T
C359   C402    1.456   .     S
C359   N507    1.158   .     T
C360   C404    1.456   .     S
C360   N508    1.158   .     T
C361   N509    1.157   .     T
C362   C381    1.452   .     S
C362   N510    1.157   .     T
C363   N511    1.157   .     T
C363   C392    1.452   .     S
C364   C403    1.452   .     S
C364   N513    1.157   .     T
C365   N514    1.157   .     T
C365   C414    1.452   .     S
C366   N515    1.157   .     T
C366   C425    1.452   .     S
C367   C436    1.452   .     S
C367   N516    1.157   .     T
C368   C377    1.452   .     S
C368   C86     1.399   1_655 A
C369   C447    1.452   .     S
C369   N517    1.157   .     T
C370   N518    1.157   .     T
C370   C458    1.452   .     S
C371   N519    1.157   .     T
C372   N520    1.157   .     T
C373   N521    1.157   .     T
C374   N522    1.157   .     T
C375   N524    1.157   .     T
C376   N525    1.157   .     T
C377   N526    1.157   .     T
C378   C407    1.460   .     S
C379   C408    1.460   .     S
C379   C425    1.399   .     S
C380   C992    1.399   1_545 A
C380   C405    1.460   .     S
C380   C436    1.399   .     S
C381   C79     1.399   1_655 A
C382   C406    1.460   .     S
C382   C403    1.399   .     A
C382   C1047   1.399   1_545 S
C383   C411    1.460   .     S
C383   C458    1.399   .     A
C383   C935    1.399   1_545 S
C384   C412    1.460   .     S
C384   C902    1.399   1_545 S
C385   C409    1.460   .     S
C386   C410    1.460   .     S
C387   C393    1.404   .     A
C387   C466    1.420   .     A
C388   C391    1.404   .     A
C388   C467    1.420   .     A
C389   C395    1.404   .     A
C389   C468    1.420   .     A
C390   C394    1.404   .     A
C392   C980    1.399   .     A
C396   C401    1.404   1_556 S
C397   C400    1.404   1_554 S
C398   C404    1.404   1_556 S
C399   C402    1.404   1_554 S
C400   C397    1.404   1_556 S
C401   C396    1.404   1_554 S
C402   C399    1.404   1_556 S
C404   C398    1.404   1_554 S
C405   O1177   1.278   1_545 A
C405   O584    1.278   .     S
C406   O581    1.278   .     A
C406   O1134   1.278   1_545 S
C407   O582    1.278   .     S
C408   O536    1.278   .     S
C409   O541    1.278   .     A
C409   O537    1.278   .     A
C410   O538    1.278   .     S
C410   O542    1.278   .     S
C411   O543    1.278   .     A
C411   O539    1.278   .     A
C412   O545    1.278   .     A
C412   O540    1.278   .     A
C413   O546    1.283   .     A
C413   O574    1.283   .     A
C414   C466    1.416   .     A
C414   C78     1.399   1_655 S
C415   O547    1.283   .     A
C415   O575    1.283   .     A
C416   O548    1.283   .     A
C416   O572    1.283   .     A
C417   O573    1.283   .     A
C417   O549    1.283   .     A
C418   O550    1.283   .     A
C418   O579    1.283   .     A
C419   O551    1.283   .     A
C419   O580    1.283   .     A
C420   O552    1.283   .     A
C420   O576    1.283   .     A
C421   O553    1.283   .     A
C421   O578    1.283   .     A
C422   O554    1.283   .     A
C422   O565    1.283   .     A
C423   O556    1.283   .     A
C423   O567    1.283   .     A
C424   O557    1.283   .     A
C424   O563    1.283   .     A
C425   C467    1.416   .     A
C426   O558    1.283   .     A
C426   O564    1.283   .     A
C427   O570    1.283   .     A
C427   O559    1.283   .     A
C428   O560    1.283   .     A
C428   O571    1.283   .     A
C429   O568    1.283   .     A
C429   O561    1.283   .     A
C430   O569    1.283   .     A
C430   O562    1.283   .     A
C431   I469    2.149   .     S
C431   C448    1.401   .     A
C432   I480    2.149   .     S
C432   C446    1.401   .     A
C433   C445    1.401   .     A
C433   I491    2.148   .     S
C434   C444    1.401   .     A
C434   I495    2.148   .     S
C435   I496    2.149   .     S
C435   C443    1.401   .     A
C436   C468    1.416   .     A
C437   I497    2.149   .     S
C437   C442    1.401   .     A
C438   C441    1.401   .     A
C438   I498    2.148   .     S
C439   C440    1.401   .     A
C439   I499    2.148   .     S
C440   I500    2.148   .     S
C441   I470    2.148   .     S
C442   I471    2.149   .     S
C443   I472    2.149   .     S
C444   I473    2.148   .     S
C445   I474    2.148   .     S
C446   I475    2.149   .     S
C447   C982    1.399   .     S
C448   I476    2.149   .     S
C449   C465    1.401   .     A
C449   I477    2.149   .     S
C450   C464    1.401   .     A
C450   I478    2.149   .     S
C451   I479    2.148   .     S
C451   C463    1.401   .     A
C452   I481    2.148   .     S
C452   C462    1.401   .     A
C453   C461    1.401   .     A
C453   I482    2.149   .     S
C454   I483    2.149   .     S
C454   C460    1.401   .     A
C455   I484    2.148   .     S
C455   C459    1.401   .     A
C456   I485    2.148   .     S
C456   C457    1.401   .     A
C457   I486    2.148   .     S
C459   I487    2.148   .     S
C460   I488    2.149   .     S
C461   I489    2.149   .     S
C462   I490    2.148   .     S
C463   I492    2.148   .     S
C464   I493    2.149   .     S
C465   I494    2.149   .     S
C466   C34     1.424   1_655 S
O533   Zn588   1.951   .     S
O533   Zn596   1.951   .     S
O533   Zn585   1.951   .     S
O533   Zn1192  1.951   1_545 S
O534   Zn587   1.951   .     S
O534   C1006   1.278   .     S
O535   Zn590   1.951   .     S
O535   C107    1.278   1_655 A
O536   Zn589   1.951   .     S
O537   Zn599   1.951   .     S
O538   Zn598   1.951   .     S
O539   Zn593   1.951   .     S
O540   Zn585   1.951   .     S
O541   Zn595   1.951   .     S
O542   Zn594   1.951   .     S
O543   Zn597   1.951   .     S
O544   Zn593   1.951   .     S
O544   Zn591   1.951   .     S
O544   Zn597   1.951   .     S
O544   Zn1187  1.951   1_545 S
O545   Zn596   1.951   .     S
O546   Zn588   1.938   .     S
O547   Zn587   1.938   .     S
O548   Zn590   1.942   .     S
O549   Zn589   1.942   .     S
O550   Zn592   1.938   .     S
O551   Zn591   1.938   .     S
O552   Zn586   1.942   .     S
O553   Zn600   1.942   .     S
O554   Zn587   1.942   .     S
O555   Zn586   1.951   .     S
O555   Zn594   1.951   .     S
O555   Zn598   1.951   .     S
O556   Zn588   1.942   .     S
O557   Zn600   1.938   .     S
O558   Zn586   1.938   .     S
O559   Zn591   1.942   .     S
O560   Zn592   1.942   .     S
O561   Zn589   1.938   .     S
O562   Zn590   1.938   .     S
O563   Zn295   1.938   1_655 S
O564   Zn594   1.938   .     S
O565   Zn1197  1.942   .     S
O566   Zn599   1.951   .     S
O566   Zn589   1.951   .     S
O566   Zn595   1.951   .     S
O567   Zn596   1.942   .     S
O568   Zn599   1.938   .     S
O569   Zn298   1.938   1_655 S
O570   Zn593   1.942   .     S
O571   Zn1185  1.942   .     S
O572   Zn294   1.942   1_655 S
O573   Zn595   1.942   .     S
O574   Zn585   1.938   .     S
O575   Zn1193  1.938   .     S
O576   Zn598   1.942   .     S
O577   Zn592   1.951   .     S
O577   C1005   1.278   .     A
O578   Zn299   1.942   1_655 S
O579   Zn1196  1.938   .     S
O580   Zn597   1.938   .     S
O581   Zn591   1.951   .     S
O582   Zn586   1.951   .     S
O583   C108    1.278   1_655 A
O583   Zn600   1.951   .     S
O584   Zn588   1.951   .     S
Zn585  O1171   1.942   1_545 S
Zn587  O1144   1.951   .     S
Zn590  O255    1.951   1_655 S
Zn592  O1133   1.951   .     S
Zn593  O1175   1.938   1_545 S
Zn596  O1179   1.938   1_545 S
Zn597  O1165   1.942   1_545 S
Zn600  O266    1.951   1_655 S
C601   C678    1.399   .     A
C601   C661    1.452   .     S
C601   C604    1.416   .     A
C602   C671    1.452   .     S
C602   C614    1.416   .     A
C602   C84     1.399   1_565 S
C603   C747    1.416   .     A
C603   C690    1.420   .     A
C603   C38     1.424   1_565 S
C604   C691    1.420   .     A
C604   C634    1.424   .     A
C605   C681    1.416   .     A
C605   C693    1.420   .     A
C605   C936    1.424   .     S
C606   C694    1.420   .     A
C606   C692    1.416   .     A
C606   C37     1.424   1_565 A
C607   C703    1.416   .     A
C607   C695    1.420   .     A
C607   C638    1.424   .     A
C608   C635    1.416   .     A
C608   C696    1.420   .     A
C608   C39     1.424   1_565 S
C609   C646    1.416   .     A
C609   C697    1.420   .     A
C609   C640    1.424   .     A
C610   C698    1.420   .     A
C610   C657    1.416   .     A
C610   C641    1.424   .     S
C611   C699    1.420   .     A
C611   C668    1.416   .     A
C611   C942    1.424   .     A
C612   C758    1.416   .     A
C612   C639    1.424   .     A
C612   C700    1.420   .     A
C613   C672    1.452   .     S
C613   C985    1.399   .     A
C613   C615    1.416   .     A
C614   C701    1.420   .     A
C614   C40     1.424   1_565 S
C615   C941    1.424   .     A
C615   C702    1.420   .     A
C616   C704    1.420   .     A
C616   C624    1.416   .     A
C616   C642    1.424   .     S
C617   C720    1.460   .     S
C617   C748    1.412   .     A
C617   C750    1.412   .     A
C618   C721    1.460   .     S
C618   C749    1.412   .     A
C618   C746    1.412   .     A
C619   C713    1.457   .     S
C619   C745    1.410   .     A
C619   C752    1.410   .     A
C620   C744    1.410   .     A
C620   C751    1.410   .     A
C620   C715    1.457   .     S
C621   C716    1.460   .     S
C621   C754    1.412   .     A
C621   C743    1.412   .     A
C622   C742    1.412   .     A
C622   C753    1.412   .     A
C622   C717    1.460   .     S
C623   C718    1.457   .     S
C623   C756    1.410   .     A
C623   C741    1.410   .     A
C624   C673    1.452   .     S
C624   C686    1.399   .     S
C625   C719    1.457   .     S
C625   C740    1.410   .     A
C625   C755    1.410   .     A
C626   C739    1.410   .     A
C626   C759    1.410   .     A
C626   C729    1.457   .     S
C627   C738    1.410   .     A
C627   C757    1.410   .     A
C627   C730    1.457   .     S
C628   C737    1.412   .     A
C628   C722    1.460   .     S
C628   C761    1.412   .     A
C629   C735    1.412   .     A
C629   C760    1.412   .     A
C629   C723    1.460   .     S
C630   C734    1.410   .     A
C630   C763    1.410   .     A
C630   C724    1.457   .     S
C631   C762    1.410   .     A
C631   C733    1.410   .     A
C631   C726    1.457   .     S
C632   C727    1.460   .     S
C632   C765    1.412   .     A
C632   C732    1.412   .     A
C633   C764    1.412   .     A
C633   C731    1.412   .     A
C633   C728    1.460   .     S
C634   C636    1.415   .     A
C634   C1066   1.424   1_455 S
C635   C674    1.452   .     S
C635   C83     1.399   1_565 S
C636   C767    1.424   .     A
C636   C905    1.424   1_455 S
C637   C638    1.415   .     S
C637   C768    1.424   .     S
C639   C640    1.415   1_556 S
C640   C639    1.415   1_554 S
C641   C915    1.424   1_455 A
C641   C642    1.415   1_556 S
C642   C911    1.424   1_455 A
C642   C641    1.415   1_554 S
C643   N801    1.158   .     T
C643   C687    1.456   .     S
C644   N812    1.158   .     T
C644   C688    1.456   .     S
C645   C689    1.456   .     S
C645   N823    1.158   .     T
C646   C675    1.452   .     S
C646   C684    1.399   .     A
C647   C690    1.456   .     S
C647   N827    1.158   .     T
C648   C691    1.456   .     S
C648   N828    1.158   .     T
C649   C693    1.456   .     S
C649   N829    1.158   .     T
C650   C694    1.456   .     S
C650   N830    1.158   .     T
C651   N831    1.158   .     T
C651   C695    1.456   .     S
C652   N832    1.158   .     T
C652   C696    1.456   .     S
C653   N802    1.158   .     T
C653   C697    1.456   .     S
C654   N803    1.158   .     T
C654   C698    1.456   .     S
C655   C699    1.456   .     S
C655   N804    1.158   .     T
C656   N805    1.158   .     T
C656   C700    1.456   .     S
C657   C676    1.452   .     S
C657   C685    1.399   .     S
C658   C701    1.456   .     S
C658   N806    1.158   .     T
C659   C702    1.456   .     S
C659   N807    1.158   .     T
C660   C704    1.456   .     S
C660   N808    1.158   .     T
C661   N809    1.157   .     T
C662   C681    1.452   .     S
C662   N810    1.157   .     T
C663   N811    1.157   .     T
C663   C692    1.452   .     S
C664   C703    1.452   .     S
C664   N813    1.157   .     T
C665   N814    1.157   .     T
C665   C714    1.452   .     S
C666   N815    1.157   .     T
C666   C725    1.452   .     S
C667   C736    1.452   .     S
C667   N816    1.157   .     T
C668   C677    1.452   .     S
C668   C986    1.399   .     A
C669   C747    1.452   .     S
C669   N817    1.157   .     T
C670   N818    1.157   .     T
C670   C758    1.452   .     S
C671   N819    1.157   .     T
C672   N820    1.157   .     T
C673   N821    1.157   .     T
C674   N822    1.157   .     T
C675   N824    1.157   .     T
C676   N825    1.157   .     T
C677   N826    1.157   .     T
C678   C707    1.460   .     S
C678   C1014   1.399   1_455 S
C679   C708    1.460   .     S
C679   C981    1.399   1_455 A
C679   C725    1.399   .     S
C680   C705    1.460   .     S
C680   C736    1.399   .     S
C681   C979    1.399   .     A
C682   C706    1.460   .     S
C682   C703    1.399   .     A
C683   C711    1.460   .     S
C683   C758    1.399   .     A
C684   C712    1.460   .     S
C685   C913    1.399   1_455 A
C685   C709    1.460   .     S
C686   C710    1.460   .     S
C686   C968    1.399   1_455 A
C687   C693    1.404   .     A
C687   C766    1.420   .     A
C688   C691    1.404   .     A
C688   C767    1.420   .     A
C689   C695    1.404   .     A
C689   C768    1.420   .     A
C690   C694    1.404   .     A
C692   C80     1.399   1_565 A
C696   C701    1.404   1_556 S
C697   C700    1.404   1_554 S
C698   C704    1.404   1_556 S
C699   C702    1.404   1_554 S
C700   C697    1.404   1_556 S
C701   C696    1.404   1_554 S
C702   C699    1.404   1_556 S
C704   C698    1.404   1_554 S
C705   O884    1.278   .     S
C706   O881    1.278   .     A
C707   O1135   1.278   1_455 A
C707   O882    1.278   .     S
C708   O1183   1.278   1_455 A
C708   O836    1.278   .     S
C709   O841    1.278   .     A
C709   O837    1.278   .     A
C710   O838    1.278   .     S
C710   O842    1.278   .     S
C711   O843    1.278   .     A
C711   O839    1.278   .     A
C712   O845    1.278   .     A
C712   O840    1.278   .     A
C713   O846    1.283   .     A
C713   O874    1.283   .     A
C714   C766    1.416   .     A
C714   C978    1.399   .     S
C715   O847    1.283   .     A
C715   O875    1.283   .     A
C716   O848    1.283   .     A
C716   O872    1.283   .     A
C717   O873    1.283   .     A
C717   O849    1.283   .     A
C718   O850    1.283   .     A
C718   O879    1.283   .     A
C719   O851    1.283   .     A
C719   O880    1.283   .     A
C720   O852    1.283   .     A
C720   O876    1.283   .     A
C721   O853    1.283   .     A
C721   O878    1.283   .     A
C722   O854    1.283   .     A
C722   O865    1.283   .     A
C723   O856    1.283   .     A
C723   O867    1.283   .     A
C724   O857    1.283   .     A
C724   O863    1.283   .     A
C725   C767    1.416   .     A
C726   O858    1.283   .     A
C726   O864    1.283   .     A
C727   O870    1.283   .     A
C727   O859    1.283   .     A
C728   O860    1.283   .     A
C728   O871    1.283   .     A
C729   O868    1.283   .     A
C729   O861    1.283   .     A
C730   O869    1.283   .     A
C730   O862    1.283   .     A
C731   I769    2.149   .     S
C731   C748    1.401   .     A
C732   I780    2.149   .     S
C732   C746    1.401   .     A
C733   C745    1.401   .     A
C733   I791    2.148   .     S
C734   C744    1.401   .     A
C734   I795    2.148   .     S
C735   I796    2.149   .     S
C735   C743    1.401   .     A
C736   C768    1.416   .     A
C737   I797    2.149   .     S
C737   C742    1.401   .     A
C738   C741    1.401   .     A
C738   I798    2.148   .     S
C739   C740    1.401   .     A
C739   I799    2.148   .     S
C740   I800    2.148   .     S
C741   I770    2.148   .     S
C742   I771    2.149   .     S
C743   I772    2.149   .     S
C744   I773    2.148   .     S
C745   I774    2.148   .     S
C746   I775    2.149   .     S
C747   C82     1.399   1_565 S
C748   I776    2.149   .     S
C749   C765    1.401   .     A
C749   I777    2.149   .     S
C750   C764    1.401   .     A
C750   I778    2.149   .     S
C751   I779    2.148   .     S
C751   C763    1.401   .     A
C752   I781    2.148   .     S
C752   C762    1.401   .     A
C753   C761    1.401   .     A
C753   I782    2.149   .     S
C754   I783    2.149   .     S
C754   C760    1.401   .     A
C755   I784    2.148   .     S
C755   C759    1.401   .     A
C756   I785    2.148   .     S
C756   C757    1.401   .     A
C757   I786    2.148   .     S
C759   I787    2.148   .     S
C760   I788    2.149   .     S
C761   I789    2.149   .     S
C762   I790    2.148   .     S
C763   I792    2.148   .     S
C764   I793    2.149   .     S
C765   I794    2.149   .     S
C766   C934    1.424   .     S
O833   Zn888   1.951   .     S
O833   Zn896   1.951   .     S
O833   Zn885   1.951   .     S
O834   Zn887   1.951   .     S
O834   C106    1.278   1_565 S
O835   Zn890   1.951   .     S
O835   C1007   1.278   .     A
O836   Zn889   1.951   .     S
O837   Zn899   1.951   .     S
O838   Zn898   1.951   .     S
O839   Zn893   1.951   .     S
O840   Zn885   1.951   .     S
O841   Zn895   1.951   .     S
O842   Zn894   1.951   .     S
O843   Zn897   1.951   .     S
O844   Zn893   1.951   .     S
O844   Zn891   1.951   .     S
O844   Zn897   1.951   .     S
O845   Zn896   1.951   .     S
O846   Zn888   1.938   .     S
O847   Zn887   1.938   .     S
O848   Zn890   1.942   .     S
O849   Zn889   1.942   .     S
O850   Zn892   1.938   .     S
O851   Zn891   1.938   .     S
O852   Zn886   1.942   .     S
O853   Zn900   1.942   .     S
O854   Zn887   1.942   .     S
O855   Zn886   1.951   .     S
O855   Zn894   1.951   .     S
O855   Zn898   1.951   .     S
O855   Zn1190  1.951   1_455 S
O856   Zn888   1.942   .     S
O857   Zn900   1.938   .     S
O858   Zn886   1.938   .     S
O859   Zn891   1.942   .     S
O860   Zn892   1.942   .     S
O861   Zn889   1.938   .     S
O862   Zn890   1.938   .     S
O863   Zn1195  1.938   .     S
O864   Zn894   1.938   .     S
O865   Zn297   1.942   1_565 S
O866   Zn899   1.951   .     S
O866   Zn889   1.951   .     S
O866   Zn895   1.951   .     S
O866   Zn1200  1.951   1_455 S
O867   Zn896   1.942   .     S
O868   Zn899   1.938   .     S
O869   Zn1198  1.938   .     S
O870   Zn893   1.942   .     S
O871   Zn285   1.942   1_565 S
O872   Zn1194  1.942   .     S
O873   Zn895   1.942   .     S
O874   Zn885   1.938   .     S
O875   Zn293   1.938   1_565 S
O876   Zn898   1.942   .     S
O877   Zn892   1.951   .     S
O877   C105    1.278   1_565 A
O878   Zn1199  1.942   .     S
O879   Zn296   1.938   1_565 S
O880   Zn897   1.938   .     S
O881   Zn891   1.951   .     S
O882   Zn886   1.951   .     S
O883   C1008   1.278   .     A
O883   Zn900   1.951   .     S
O884   Zn888   1.951   .     S
Zn887  O244    1.951   1_565 S
Zn890  O1155   1.951   .     S
Zn892  O233    1.951   1_565 S
Zn894  O1172   1.942   1_455 S
Zn895  O1163   1.938   1_455 S
Zn898  O1169   1.938   1_455 S
Zn899  O1178   1.942   1_455 S
Zn900  O1166   1.951   .     S
C901   C978    1.399   .     A
C901   C961    1.452   .     S
C901   C904    1.416   .     A
C902   C971    1.452   .     S
C902   C914    1.416   .     A
C902   C384    1.399   1_565 S
C903   C1047   1.416   .     A
C903   C990    1.420   .     A
C903   C338    1.424   1_565 S
C904   C991    1.420   .     A
C904   C934    1.424   .     A
C905   C981    1.416   .     A
C905   C993    1.420   .     A
C905   C636    1.424   1_655 S
C906   C994    1.420   .     A
C906   C992    1.416   .     A
C906   C337    1.424   1_565 A
C907   C1003   1.416   .     A
C907   C995    1.420   .     A
C907   C938    1.424   .     A
C908   C935    1.416   .     A
C908   C996    1.420   .     A
C908   C339    1.424   1_565 S
C909   C946    1.416   .     A
C909   C997    1.420   .     A
C909   C940    1.424   .     A
C910   C998    1.420   .     A
C910   C957    1.416   .     A
C910   C941    1.424   .     S
C911   C999    1.420   .     A
C911   C968    1.416   .     A
C911   C642    1.424   1_655 A
C912   C1058   1.416   .     A
C912   C939    1.424   .     A
C912   C1000   1.420   .     A
C913   C972    1.452   .     S
C913   C685    1.399   1_655 A
C913   C915    1.416   .     A
C914   C1001   1.420   .     A
C914   C340    1.424   1_565 S
C915   C641    1.424   1_655 A
C915   C1002   1.420   .     A
C916   C1004   1.420   .     A
C916   C924    1.416   .     A
C916   C942    1.424   .     S
C917   C1020   1.460   .     S
C917   C1048   1.412   .     A
C917   C1050   1.412   .     A
C918   C1021   1.460   .     S
C918   C1049   1.412   .     A
C918   C1046   1.412   .     A
C919   C1013   1.457   .     S
C919   C1045   1.410   .     A
C919   C1052   1.410   .     A
C920   C1044   1.410   .     A
C920   C1051   1.410   .     A
C920   C1015   1.457   .     S
C921   C1016   1.460   .     S
C921   C1054   1.412   .     A
C921   C1043   1.412   .     A
C922   C1042   1.412   .     A
C922   C1053   1.412   .     A
C922   C1017   1.460   .     S
C923   C1018   1.457   .     S
C923   C1056   1.410   .     A
C923   C1041   1.410   .     A
C924   C973    1.452   .     S
C924   C986    1.399   .     S
C925   C1019   1.457   .     S
C925   C1040   1.410   .     A
C925   C1055   1.410   .     A
C926   C1039   1.410   .     A
C926   C1059   1.410   .     A
C926   C1029   1.457   .     S
C927   C1038   1.410   .     A
C927   C1057   1.410   .     A
C927   C1030   1.457   .     S
C928   C1037   1.412   .     A
C928   C1022   1.460   .     S
C928   C1061   1.412   .     A
C929   C1035   1.412   .     A
C929   C1060   1.412   .     A
C929   C1023   1.460   .     S
C930   C1034   1.410   .     A
C930   C1063   1.410   .     A
C930   C1024   1.457   .     S
C931   C1062   1.410   .     A
C931   C1033   1.410   .     A
C931   C1026   1.457   .     S
C932   C1027   1.460   .     S
C932   C1065   1.412   .     A
C932   C1032   1.412   .     A
C933   C1064   1.412   .     A
C933   C1031   1.412   .     A
C933   C1028   1.460   .     S
C934   C936    1.415   .     A
C935   C974    1.452   .     S
C935   C383    1.399   1_565 S
C936   C1067   1.424   .     A
C937   C938    1.415   .     S
C937   C1068   1.424   .     S
C939   C940    1.415   1_556 S
C940   C939    1.415   1_554 S
C941   C942    1.415   1_556 S
C942   C941    1.415   1_554 S
C943   N1101   1.158   .     T
C943   C987    1.456   .     S
C944   N1112   1.158   .     T
C944   C988    1.456   .     S
C945   C989    1.456   .     S
C945   N1123   1.158   .     T
C946   C975    1.452   .     S
C946   C984    1.399   .     A
C947   C990    1.456   .     S
C947   N1127   1.158   .     T
C948   C991    1.456   .     S
C948   N1128   1.158   .     T
C949   C993    1.456   .     S
C949   N1129   1.158   .     T
C950   C994    1.456   .     S
C950   N1130   1.158   .     T
C951   N1131   1.158   .     T
C951   C995    1.456   .     S
C952   N1132   1.158   .     T
C952   C996    1.456   .     S
C953   N1102   1.158   .     T
C953   C997    1.456   .     S
C954   N1103   1.158   .     T
C954   C998    1.456   .     S
C955   C999    1.456   .     S
C955   N1104   1.158   .     T
C956   N1105   1.158   .     T
C956   C1000   1.456   .     S
C957   C976    1.452   .     S
C957   C985    1.399   .     S
C958   C1001   1.456   .     S
C958   N1106   1.158   .     T
C959   C1002   1.456   .     S
C959   N1107   1.158   .     T
C960   C1004   1.456   .     S
C960   N1108   1.158   .     T
C961   N1109   1.157   .     T
C962   C981    1.452   .     S
C962   N1110   1.157   .     T
C963   N1111   1.157   .     T
C963   C992    1.452   .     S
C964   C1003   1.452   .     S
C964   N1113   1.157   .     T
C965   N1114   1.157   .     T
C965   C1014   1.452   .     S
C966   N1115   1.157   .     T
C966   C1025   1.452   .     S
C967   C1036   1.452   .     S
C967   N1116   1.157   .     T
C968   C977    1.452   .     S
C968   C686    1.399   1_655 A
C969   C1047   1.452   .     S
C969   N1117   1.157   .     T
C970   N1118   1.157   .     T
C970   C1058   1.452   .     S
C971   N1119   1.157   .     T
C972   N1120   1.157   .     T
C973   N1121   1.157   .     T
C974   N1122   1.157   .     T
C975   N1124   1.157   .     T
C976   N1125   1.157   .     T
C977   N1126   1.157   .     T
C978   C1007   1.460   .     S
C979   C1008   1.460   .     S
C979   C1025   1.399   .     S
C980   C1005   1.460   .     S
C980   C1036   1.399   .     S
C981   C679    1.399   1_655 A
C982   C1006   1.460   .     S
C982   C1003   1.399   .     A
C983   C1011   1.460   .     S
C983   C1058   1.399   .     A
C984   C1012   1.460   .     S
C985   C1009   1.460   .     S
C986   C1010   1.460   .     S
C987   C993    1.404   .     A
C987   C1066   1.420   .     A
C988   C991    1.404   .     A
C988   C1067   1.420   .     A
C989   C995    1.404   .     A
C989   C1068   1.420   .     A
C990   C994    1.404   .     A
C992   C380    1.399   1_565 A
C996   C1001   1.404   1_556 S
C997   C1000   1.404   1_554 S
C998   C1004   1.404   1_556 S
C999   C1002   1.404   1_554 S
C1000  C997    1.404   1_556 S
C1001  C996    1.404   1_554 S
C1002  C999    1.404   1_556 S
C1004  C998    1.404   1_554 S
C1005  O1184   1.278   .     S
C1006  O1181   1.278   .     A
C1007  O1182   1.278   .     S
C1008  O1136   1.278   .     S
C1009  O1141   1.278   .     A
C1009  O1137   1.278   .     A
C1010  O1138   1.278   .     S
C1010  O1142   1.278   .     S
C1011  O1143   1.278   .     A
C1011  O1139   1.278   .     A
C1012  O1145   1.278   .     A
C1012  O1140   1.278   .     A
C1013  O1146   1.283   .     A
C1013  O1174   1.283   .     A
C1014  C1066   1.416   .     A
C1014  C678    1.399   1_655 S
C1015  O1147   1.283   .     A
C1015  O1175   1.283   .     A
C1016  O1148   1.283   .     A
C1016  O1172   1.283   .     A
C1017  O1173   1.283   .     A
C1017  O1149   1.283   .     A
C1018  O1150   1.283   .     A
C1018  O1179   1.283   .     A
C1019  O1151   1.283   .     A
C1019  O1180   1.283   .     A
C1020  O1152   1.283   .     A
C1020  O1176   1.283   .     A
C1021  O1153   1.283   .     A
C1021  O1178   1.283   .     A
C1022  O1154   1.283   .     A
C1022  O1165   1.283   .     A
C1023  O1156   1.283   .     A
C1023  O1167   1.283   .     A
C1024  O1157   1.283   .     A
C1024  O1163   1.283   .     A
C1025  C1067   1.416   .     A
C1026  O1158   1.283   .     A
C1026  O1164   1.283   .     A
C1027  O1170   1.283   .     A
C1027  O1159   1.283   .     A
C1028  O1160   1.283   .     A
C1028  O1171   1.283   .     A
C1029  O1168   1.283   .     A
C1029  O1161   1.283   .     A
C1030  O1169   1.283   .     A
C1030  O1162   1.283   .     A
C1031  I1069   2.149   .     S
C1031  C1048   1.401   .     A
C1032  I1080   2.149   .     S
C1032  C1046   1.401   .     A
C1033  C1045   1.401   .     A
C1033  I1091   2.148   .     S
C1034  C1044   1.401   .     A
C1034  I1095   2.148   .     S
C1035  I1096   2.149   .     S
C1035  C1043   1.401   .     A
C1036  C1068   1.416   .     A
C1037  I1097   2.149   .     S
C1037  C1042   1.401   .     A
C1038  C1041   1.401   .     A
C1038  I1098   2.148   .     S
C1039  C1040   1.401   .     A
C1039  I1099   2.148   .     S
C1040  I1100   2.148   .     S
C1041  I1070   2.148   .     S
C1042  I1071   2.149   .     S
C1043  I1072   2.149   .     S
C1044  I1073   2.148   .     S
C1045  I1074   2.148   .     S
C1046  I1075   2.149   .     S
C1047  C382    1.399   1_565 S
C1048  I1076   2.149   .     S
C1049  C1065   1.401   .     A
C1049  I1077   2.149   .     S
C1050  C1064   1.401   .     A
C1050  I1078   2.149   .     S
C1051  I1079   2.148   .     S
C1051  C1063   1.401   .     A
C1052  I1081   2.148   .     S
C1052  C1062   1.401   .     A
C1053  C1061   1.401   .     A
C1053  I1082   2.149   .     S
C1054  I1083   2.149   .     S
C1054  C1060   1.401   .     A
C1055  I1084   2.148   .     S
C1055  C1059   1.401   .     A
C1056  I1085   2.148   .     S
C1056  C1057   1.401   .     A
C1057  I1086   2.148   .     S
C1059  I1087   2.148   .     S
C1060  I1088   2.149   .     S
C1061  I1089   2.149   .     S
C1062  I1090   2.148   .     S
C1063  I1092   2.148   .     S
C1064  I1093   2.149   .     S
C1065  I1094   2.149   .     S
C1066  C634    1.424   1_655 S
O1133  Zn1188  1.951   .     S
O1133  Zn1196  1.951   .     S
O1133  Zn1185  1.951   .     S
O1134  Zn1187  1.951   .     S
O1134  C406    1.278   1_565 S
O1135  Zn1190  1.951   .     S
O1135  C707    1.278   1_655 A
O1136  Zn1189  1.951   .     S
O1137  Zn1199  1.951   .     S
O1138  Zn1198  1.951   .     S
O1139  Zn1193  1.951   .     S
O1140  Zn1185  1.951   .     S
O1141  Zn1195  1.951   .     S
O1142  Zn1194  1.951   .     S
O1143  Zn1197  1.951   .     S
O1144  Zn1193  1.951   .     S
O1144  Zn1191  1.951   .     S
O1144  Zn1197  1.951   .     S
O1145  Zn1196  1.951   .     S
O1146  Zn1188  1.938   .     S
O1147  Zn1187  1.938   .     S
O1148  Zn1190  1.942   .     S
O1149  Zn1189  1.942   .     S
O1150  Zn1192  1.938   .     S
O1151  Zn1191  1.938   .     S
O1152  Zn1186  1.942   .     S
O1153  Zn1200  1.942   .     S
O1154  Zn1187  1.942   .     S
O1155  Zn1186  1.951   .     S
O1155  Zn1194  1.951   .     S
O1155  Zn1198  1.951   .     S
O1156  Zn1188  1.942   .     S
O1157  Zn1200  1.938   .     S
O1158  Zn1186  1.938   .     S
O1159  Zn1191  1.942   .     S
O1160  Zn1192  1.942   .     S
O1161  Zn1189  1.938   .     S
O1162  Zn1190  1.938   .     S
O1163  Zn895   1.938   1_655 S
O1164  Zn1194  1.938   .     S
O1165  Zn597   1.942   1_565 S
O1166  Zn1199  1.951   .     S
O1166  Zn1189  1.951   .     S
O1166  Zn1195  1.951   .     S
O1167  Zn1196  1.942   .     S
O1168  Zn1199  1.938   .     S
O1169  Zn898   1.938   1_655 S
O1170  Zn1193  1.942   .     S
O1171  Zn585   1.942   1_565 S
O1172  Zn894   1.942   1_655 S
O1173  Zn1195  1.942   .     S
O1174  Zn1185  1.938   .     S
O1175  Zn593   1.938   1_565 S
O1176  Zn1198  1.942   .     S
O1177  Zn1192  1.951   .     S
O1177  C405    1.278   1_565 A
O1178  Zn899   1.942   1_655 S
O1179  Zn596   1.938   1_565 S
O1180  Zn1197  1.938   .     S
O1181  Zn1191  1.951   .     S
O1182  Zn1186  1.951   .     S
O1183  C708    1.278   1_655 A
O1183  Zn1200  1.951   .     S
O1184  Zn1188  1.951   .     S
Zn1187 O544    1.951   1_565 S
Zn1190 O855    1.951   1_655 S
Zn1192 O533    1.951   1_565 S
Zn1200 O866    1.951   1_655 S
