data_str_m1_o5_o17_pcu_sym.29
_audit_creation_date              2020-01-03
_audit_creation_method            'Materials Studio'
_symmetry_space_group_name_H-M    'P1'
_symmetry_Int_Tables_number       1
_symmetry_cell_setting            triclinic
loop_
_symmetry_equiv_pos_as_xyz
  x,y,z
_cell_length_a                    31.7978
_cell_length_b                    31.8035
_cell_length_c                    34.4884
_cell_angle_alpha                 89.9835
_cell_angle_beta                  89.9982
_cell_angle_gamma                 90.1722
loop_
_atom_site_label
_atom_site_type_symbol
_atom_site_fract_x
_atom_site_fract_y
_atom_site_fract_z
_atom_site_U_iso_or_equiv
_atom_site_adp_type
_atom_site_occupancy
C1     C     0.24994   0.49999   0.35604   0.00000  Uiso   1.00
C2     C     0.33003   0.41997   0.75001   0.00000  Uiso   1.00
C3     C     0.43625   0.29319   0.02046   0.00000  Uiso   1.00
C4     C     0.18936   0.04768   0.97943   0.00000  Uiso   1.00
C5     C     0.31064   0.45232   0.02057   0.00000  Uiso   1.00
C6     C     0.43593   0.29268   0.97946   0.00000  Uiso   1.00
C7     C     0.06407   0.20732   0.02054   0.00000  Uiso   1.00
C8     C     0.13659   0.22698   0.44623   0.00000  Uiso   1.00
C9     C     0.36341   0.27302   0.55377   0.00000  Uiso   1.00
C10    C     0.21102   0.36801   0.44891   0.00000  Uiso   1.00
C11    C     0.28899   0.13197   0.55109   0.00000  Uiso   1.00
C12    C     0.36800   0.28205   0.44766   0.00000  Uiso   1.00
C13    C     0.41999   0.16999   0.25000   0.00000  Uiso   1.00
C14    C     0.13201   0.21796   0.55234   0.00000  Uiso   1.00
C15    C     0.19996   0.12760   0.44841   0.00000  Uiso   1.00
C16    C     0.30004   0.37242   0.55159   0.00000  Uiso   1.00
C17    C     0.32197   0.38820   0.94285   0.00000  Uiso   1.00
C18    C     0.17803   0.11180   0.05715   0.00000  Uiso   1.00
C19    C     0.12971   0.21335   0.94378   0.00000  Uiso   1.00
C20    C     0.37029   0.28665   0.05622   0.00000  Uiso   1.00
C21    C     0.17900   0.11221   0.94316   0.00000  Uiso   1.00
C22    C     0.32100   0.38779   0.05684   0.00000  Uiso   1.00
C23    C     0.36922   0.28176   0.94746   0.00000  Uiso   1.00
C24    C     0.08001   0.33001   0.75000   0.00000  Uiso   1.00
C25    C     0.13078   0.21824   0.05254   0.00000  Uiso   1.00
C26    C     0.33003   0.41996   0.25000   0.00000  Uiso   1.00
C27    C     0.16997   0.08004   0.75000   0.00000  Uiso   1.00
C28    C     0.08001   0.33001   0.25000   0.00000  Uiso   1.00
C29    C     0.41999   0.16999   0.75000   0.00000  Uiso   1.00
C30    C     0.16999   0.41999   0.75000   0.00000  Uiso   1.00
C31    C     0.33001   0.08001   0.25000   0.00000  Uiso   1.00
C32    C     0.41997   0.33003   0.75000   0.00000  Uiso   1.00
C33    C     0.25006   0.00001   0.64396   0.00000  Uiso   1.00
C34    C     0.08003   0.16997   0.25000   0.00000  Uiso   1.00
C35    C     0.33001   0.08001   0.75000   0.00000  Uiso   1.00
C36    C     0.16999   0.41999   0.25000   0.00000  Uiso   1.00
C37    C     0.08003   0.16997   0.75000   0.00000  Uiso   1.00
C38    C     0.41997   0.33003   0.25000   0.00000  Uiso   1.00
C39    C     0.13834   0.38834   0.25000   0.00000  Uiso   1.00
C40    C     0.36166   0.11166   0.75000   0.00000  Uiso   1.00
C41    C     0.11168   0.13833   0.25000   0.00000  Uiso   1.00
C42    C     0.38831   0.36167   0.75000   0.00000  Uiso   1.00
C43    C     0.36166   0.11166   0.25000   0.00000  Uiso   1.00
C44    C    -0.00000   0.25005   0.35604   0.00000  Uiso   1.00
C45    C     0.13833   0.38834   0.75000   0.00000  Uiso   1.00
C46    C     0.38832   0.36167   0.24999   0.00000  Uiso   1.00
C47    C     0.11168   0.13833   0.75001   0.00000  Uiso   1.00
C48    C     0.13833   0.11168   0.75001   0.00000  Uiso   1.00
C49    C     0.36167   0.38832   0.24999   0.00000  Uiso   1.00
C50    C     0.11167   0.36166   0.75000   0.00000  Uiso   1.00
C51    C     0.38833   0.13834   0.25000   0.00000  Uiso   1.00
C52    C     0.36167   0.38832   0.75001   0.00000  Uiso   1.00
C53    C     0.13832   0.11168   0.24999   0.00000  Uiso   1.00
C54    C     0.38834   0.13834   0.75000   0.00000  Uiso   1.00
C55    C     0.00000   0.24995   0.64396   0.00000  Uiso   1.00
C56    C     0.11166   0.36166   0.25000   0.00000  Uiso   1.00
C57    C     0.46218   0.24581   0.41869   0.00000  Uiso   1.00
C58    C     0.03782   0.25419   0.58131   0.00000  Uiso   1.00
C59    C     0.24772   0.03794   0.41868   0.00000  Uiso   1.00
C60    C     0.25227   0.46206   0.58132   0.00000  Uiso   1.00
C61    C     0.03772   0.25510   0.41868   0.00000  Uiso   1.00
C62    C     0.46228   0.24490   0.58132   0.00000  Uiso   1.00
C63    C     0.25077   0.46194   0.41871   0.00000  Uiso   1.00
C64    C     0.24922   0.03806   0.58129   0.00000  Uiso   1.00
C65    C     0.21833   0.02082   0.91856   0.00000  Uiso   1.00
C66    C     0.00000   0.24999   0.85597   0.00000  Uiso   1.00
C67    C     0.28167   0.47918   0.08144   0.00000  Uiso   1.00
C68    C     0.46980   0.27294   0.91842   0.00000  Uiso   1.00
C69    C     0.03020   0.22706   0.08158   0.00000  Uiso   1.00
C70    C     0.28174   0.47924   0.91857   0.00000  Uiso   1.00
C71    C     0.21826   0.02076   0.08143   0.00000  Uiso   1.00
C72    C     0.03008   0.22683   0.91843   0.00000  Uiso   1.00
C73    C     0.46992   0.27317   0.08157   0.00000  Uiso   1.00
C74    C     0.49997   0.25030   0.39846   0.00000  Uiso   1.00
C75    C     0.00003   0.24969   0.60154   0.00000  Uiso   1.00
C76    C     0.24949   0.49995   0.39847   0.00000  Uiso   1.00
C77    C    -0.00000   0.25001   0.14403   0.00000  Uiso   1.00
C78    C     0.25051   0.00005   0.60153   0.00000  Uiso   1.00
C79    C     0.25002   0.00001   0.89838   0.00000  Uiso   1.00
C80    C     0.24998   0.49999   0.10162   0.00000  Uiso   1.00
C81    C     0.49998   0.24995   0.89829   0.00000  Uiso   1.00
C82    C     0.00002   0.25005   0.10171   0.00000  Uiso   1.00
C83    C     0.03839   0.25471   0.45926   0.00000  Uiso   1.00
C84    C     0.46161   0.24529   0.54074   0.00000  Uiso   1.00
C85    C     0.25053   0.46130   0.45929   0.00000  Uiso   1.00
C86    C     0.24946   0.03870   0.54070   0.00000  Uiso   1.00
C87    C     0.46146   0.24633   0.45928   0.00000  Uiso   1.00
C88    C     0.25000  -0.00000   0.85600   0.00000  Uiso   1.00
C89    C     0.03854   0.25366   0.54072   0.00000  Uiso   1.00
C90    C     0.24733   0.03857   0.45926   0.00000  Uiso   1.00
C91    C     0.25266   0.46143   0.54074   0.00000  Uiso   1.00
C92    C     0.28107   0.47714   0.95923   0.00000  Uiso   1.00
C93    C     0.21893   0.02286   0.04077   0.00000  Uiso   1.00
C94    C     0.03144   0.22767   0.95915   0.00000  Uiso   1.00
C95    C     0.46856   0.27233   0.04085   0.00000  Uiso   1.00
C96    C     0.21899   0.02291   0.95921   0.00000  Uiso   1.00
C97    C     0.28101   0.47709   0.04079   0.00000  Uiso   1.00
C98    C     0.46841   0.27206   0.95913   0.00000  Uiso   1.00
C99    C     0.25000   0.00000   0.14400   0.00000  Uiso   1.00
C100   C     0.03159   0.22794   0.04087   0.00000  Uiso   1.00
C101   C     0.49997   0.25018   0.47967   0.00000  Uiso   1.00
C102   C     0.00003   0.24982   0.52033   0.00000  Uiso   1.00
C103   C     0.24947   0.49996   0.47967   0.00000  Uiso   1.00
C104   C     0.25052   0.00003   0.52032   0.00000  Uiso   1.00
C105   C     0.25001   0.00000   0.97966   0.00000  Uiso   1.00
C106   C     0.24999  -0.00000   0.02034   0.00000  Uiso   1.00
C107   C     0.49999   0.24997   0.97961   0.00000  Uiso   1.00
C108   C     0.00001   0.25003   0.02039   0.00000  Uiso   1.00
C109   C     0.07678   0.25887   0.47953   0.00000  Uiso   1.00
C110   C     0.16997   0.08003   0.24999   0.00000  Uiso   1.00
C111   C     0.42322   0.24113   0.52047   0.00000  Uiso   1.00
C112   C     0.25213   0.42273   0.47961   0.00000  Uiso   1.00
C113   C     0.24787   0.07727   0.52039   0.00000  Uiso   1.00
C114   C     0.42299   0.24259   0.47957   0.00000  Uiso   1.00
C115   C     0.07701   0.25741   0.52043   0.00000  Uiso   1.00
C116   C     0.24560   0.07714   0.47952   0.00000  Uiso   1.00
C117   C     0.25439   0.42286   0.52048   0.00000  Uiso   1.00
C118   C     0.31072   0.45239   0.97949   0.00000  Uiso   1.00
C119   C     0.18928   0.04761   0.02051   0.00000  Uiso   1.00
C120   C     0.06375   0.20681   0.97954   0.00000  Uiso   1.00
H121   H     0.43331   0.24157   0.40250   0.00000  Uiso   1.00
H122   H     0.30612   0.46358   0.09786   0.00000  Uiso   1.00
H123   H     0.44687   0.29067   0.90194   0.00000  Uiso   1.00
H124   H     0.05312   0.20933   0.09806   0.00000  Uiso   1.00
H125   H     0.30620   0.46367   0.90216   0.00000  Uiso   1.00
H126   H     0.19379   0.03633   0.09784   0.00000  Uiso   1.00
H127   H     0.05297   0.20912   0.90194   0.00000  Uiso   1.00
H128   H     0.44703   0.29088   0.09806   0.00000  Uiso   1.00
H129   H     0.13429   0.28899   0.46731   0.00000  Uiso   1.00
H130   H     0.16569   0.22276   0.46357   0.00000  Uiso   1.00
H131   H     0.14549   0.23019   0.41526   0.00000  Uiso   1.00
H132   H     0.06669   0.25842   0.59750   0.00000  Uiso   1.00
H133   H     0.11645   0.19852   0.44941   0.00000  Uiso   1.00
H134   H     0.36570   0.21101   0.53269   0.00000  Uiso   1.00
H135   H     0.33431   0.27725   0.53642   0.00000  Uiso   1.00
H136   H     0.38355   0.30148   0.55059   0.00000  Uiso   1.00
H137   H     0.35450   0.26981   0.58474   0.00000  Uiso   1.00
H138   H     0.27196   0.36118   0.46973   0.00000  Uiso   1.00
H139   H     0.19327   0.35971   0.47559   0.00000  Uiso   1.00
H140   H     0.21424   0.33938   0.43075   0.00000  Uiso   1.00
H141   H     0.19300   0.39177   0.43220   0.00000  Uiso   1.00
H142   H     0.22806   0.13883   0.53026   0.00000  Uiso   1.00
H143   H     0.24702   0.06709   0.40249   0.00000  Uiso   1.00
H144   H     0.30675   0.14026   0.52441   0.00000  Uiso   1.00
H145   H     0.30701   0.10820   0.56780   0.00000  Uiso   1.00
H146   H     0.28579   0.16060   0.56925   0.00000  Uiso   1.00
H147   H     0.36145   0.22164   0.46983   0.00000  Uiso   1.00
H148   H     0.35979   0.30068   0.47376   0.00000  Uiso   1.00
H149   H     0.33929   0.27787   0.42973   0.00000  Uiso   1.00
H150   H     0.39154   0.29977   0.43031   0.00000  Uiso   1.00
H151   H     0.13855   0.27837   0.53017   0.00000  Uiso   1.00
H152   H     0.14022   0.19932   0.52623   0.00000  Uiso   1.00
H153   H     0.10847   0.20023   0.56969   0.00000  Uiso   1.00
H154   H     0.25297   0.43291   0.59751   0.00000  Uiso   1.00
H155   H     0.16071   0.22214   0.57027   0.00000  Uiso   1.00
H156   H     0.25984   0.14034   0.46958   0.00000  Uiso   1.00
H157   H     0.18155   0.13496   0.47492   0.00000  Uiso   1.00
H158   H     0.18402   0.10190   0.43224   0.00000  Uiso   1.00
H159   H     0.20083   0.15589   0.42957   0.00000  Uiso   1.00
H160   H     0.24017   0.35965   0.53042   0.00000  Uiso   1.00
H161   H     0.31846   0.36506   0.52509   0.00000  Uiso   1.00
H162   H     0.29919   0.34412   0.57043   0.00000  Uiso   1.00
H163   H     0.31598   0.39812   0.56776   0.00000  Uiso   1.00
H164   H     0.36930   0.42378   0.96913   0.00000  Uiso   1.00
H165   H     0.06663   0.25898   0.40248   0.00000  Uiso   1.00
H166   H     0.31748   0.36498   0.96645   0.00000  Uiso   1.00
H167   H     0.34385   0.37506   0.92095   0.00000  Uiso   1.00
H168   H     0.29123   0.39365   0.92845   0.00000  Uiso   1.00
H169   H     0.13070   0.07622   0.03087   0.00000  Uiso   1.00
H170   H     0.18252   0.13502   0.03355   0.00000  Uiso   1.00
H171   H     0.20876   0.10635   0.07155   0.00000  Uiso   1.00
H172   H     0.15615   0.12494   0.07905   0.00000  Uiso   1.00
H173   H     0.10590   0.15741   0.96819   0.00000  Uiso   1.00
H174   H     0.15890   0.20860   0.96084   0.00000  Uiso   1.00
H175   H     0.12100   0.24718   0.94503   0.00000  Uiso   1.00
H176   H     0.43337   0.24102   0.59752   0.00000  Uiso   1.00
H177   H     0.13613   0.20503   0.91311   0.00000  Uiso   1.00
H178   H     0.39410   0.34259   0.03181   0.00000  Uiso   1.00
H179   H     0.34110   0.29140   0.03916   0.00000  Uiso   1.00
H180   H     0.36387   0.29497   0.08689   0.00000  Uiso   1.00
H181   H     0.37900   0.25282   0.05497   0.00000  Uiso   1.00
H182   H     0.13114   0.07693   0.96896   0.00000  Uiso   1.00
H183   H     0.18412   0.13488   0.96708   0.00000  Uiso   1.00
H184   H     0.15720   0.12616   0.92162   0.00000  Uiso   1.00
H185   H     0.20949   0.10646   0.92844   0.00000  Uiso   1.00
H186   H     0.36886   0.42307   0.03104   0.00000  Uiso   1.00
H187   H     0.25249   0.43282   0.40254   0.00000  Uiso   1.00
H188   H     0.31588   0.36512   0.03292   0.00000  Uiso   1.00
H189   H     0.29051   0.39354   0.07156   0.00000  Uiso   1.00
H190   H     0.34280   0.37384   0.07838   0.00000  Uiso   1.00
H191   H     0.39091   0.33897   0.96922   0.00000  Uiso   1.00
H192   H     0.35261   0.26994   0.97358   0.00000  Uiso   1.00
H193   H     0.38252   0.25469   0.93129   0.00000  Uiso   1.00
H194   H     0.34616   0.29768   0.92836   0.00000  Uiso   1.00
H195   H     0.10909   0.16103   0.03078   0.00000  Uiso   1.00
H196   H     0.14739   0.23006   0.02642   0.00000  Uiso   1.00
H197   H     0.15384   0.20232   0.07164   0.00000  Uiso   1.00
H198   H     0.24751   0.06718   0.59746   0.00000  Uiso   1.00
H199   H     0.11748   0.24531   0.06871   0.00000  Uiso   1.00
H200   H     0.19388   0.03642   0.90214   0.00000  Uiso   1.00
N201   N     0.11500   0.26471   0.45852   0.00000  Uiso   1.00
N202   N     0.16058   0.07310   0.04191   0.00000  Uiso   1.00
N203   N     0.09648   0.18648   0.95852   0.00000  Uiso   1.00
N204   N     0.40352   0.31352   0.04148   0.00000  Uiso   1.00
N205   N     0.16102   0.07354   0.95800   0.00000  Uiso   1.00
N206   N     0.33898   0.42646   0.04200   0.00000  Uiso   1.00
N207   N     0.40209   0.31106   0.95837   0.00000  Uiso   1.00
N208   N     0.09791   0.18894   0.04163   0.00000  Uiso   1.00
N209   N     0.38500   0.23529   0.54148   0.00000  Uiso   1.00
N210   N     0.25235   0.38399   0.45872   0.00000  Uiso   1.00
N211   N     0.24766   0.11601   0.54128   0.00000  Uiso   1.00
N212   N     0.38423   0.24127   0.45868   0.00000  Uiso   1.00
N213   N     0.11577   0.25873   0.54132   0.00000  Uiso   1.00
N214   N     0.24247   0.11571   0.45855   0.00000  Uiso   1.00
N215   N     0.25754   0.38429   0.54145   0.00000  Uiso   1.00
N216   N     0.33942   0.42690   0.95809   0.00000  Uiso   1.00
O217   O     0.25000  -0.00000   0.25000   0.00000  Uiso   1.00
O218   O     0.25000   0.46538   0.66251   0.00000  Uiso   1.00
O219   O     0.46538   0.25000   0.33749   0.00000  Uiso   1.00
O220   O     0.03461   0.25000   0.66251   0.00000  Uiso   1.00
O221   O    -0.00000   0.21539   0.83749   0.00000  Uiso   1.00
O222   O    -0.00000   0.28462   0.16251   0.00000  Uiso   1.00
O223   O     0.28461   0.00000   0.83749   0.00000  Uiso   1.00
O224   O     0.21538  -0.00000   0.16251   0.00000  Uiso   1.00
O225   O    -0.00000   0.28462   0.83749   0.00000  Uiso   1.00
O226   O     0.00000   0.21538   0.16251   0.00000  Uiso   1.00
O227   O     0.21538   0.00000   0.83749   0.00000  Uiso   1.00
O228   O     0.25000  -0.00000   0.75000   0.00000  Uiso   1.00
O229   O     0.28461  -0.00000   0.16251   0.00000  Uiso   1.00
O230   O     0.20126   0.08332   0.27298   0.00000  Uiso   1.00
O231   O     0.29873   0.41668   0.72702   0.00000  Uiso   1.00
O232   O     0.41668   0.20127   0.27298   0.00000  Uiso   1.00
O233   O     0.08332   0.29873   0.72702   0.00000  Uiso   1.00
O234   O     0.29873   0.41668   0.27298   0.00000  Uiso   1.00
O235   O     0.20126   0.08332   0.72702   0.00000  Uiso   1.00
O236   O     0.08332   0.29873   0.27298   0.00000  Uiso   1.00
O237   O     0.41668   0.20127   0.72702   0.00000  Uiso   1.00
O238   O     0.20126   0.41668   0.72702   0.00000  Uiso   1.00
O239   O     0.00000   0.25000   0.25000   0.00000  Uiso   1.00
O240   O     0.29873   0.08332   0.27298   0.00000  Uiso   1.00
O241   O     0.41668   0.29874   0.72702   0.00000  Uiso   1.00
O242   O     0.08332   0.20126   0.27298   0.00000  Uiso   1.00
O243   O     0.29873   0.08332   0.72702   0.00000  Uiso   1.00
O244   O     0.20126   0.41668   0.27298   0.00000  Uiso   1.00
O245   O     0.08332   0.20126   0.72702   0.00000  Uiso   1.00
O246   O     0.41668   0.29874   0.27298   0.00000  Uiso   1.00
O247   O     0.45126   0.33332   0.77298   0.00000  Uiso   1.00
O248   O     0.04873   0.16668   0.22702   0.00000  Uiso   1.00
O249   O     0.16668   0.45126   0.77298   0.00000  Uiso   1.00
O250   O    -0.00000   0.25000   0.75000   0.00000  Uiso   1.00
O251   O     0.33332   0.04874   0.22702   0.00000  Uiso   1.00
O252   O     0.04873   0.16668   0.77298   0.00000  Uiso   1.00
O253   O     0.45126   0.33332   0.22702   0.00000  Uiso   1.00
O254   O     0.33332   0.04874   0.77298   0.00000  Uiso   1.00
O255   O     0.16668   0.45126   0.22702   0.00000  Uiso   1.00
O256   O     0.45126   0.16668   0.22702   0.00000  Uiso   1.00
O257   O     0.04873   0.33332   0.77298   0.00000  Uiso   1.00
O258   O     0.16668   0.04874   0.22702   0.00000  Uiso   1.00
O259   O     0.33332   0.45126   0.77298   0.00000  Uiso   1.00
O260   O     0.04873   0.33332   0.22702   0.00000  Uiso   1.00
O261   O     0.25000   0.46538   0.33749   0.00000  Uiso   1.00
O262   O     0.45126   0.16668   0.77298   0.00000  Uiso   1.00
O263   O     0.33332   0.45126   0.22702   0.00000  Uiso   1.00
O264   O     0.16668   0.04874   0.77298   0.00000  Uiso   1.00
O265   O     0.25000   0.03462   0.66251   0.00000  Uiso   1.00
O266   O     0.03461   0.25000   0.33749   0.00000  Uiso   1.00
O267   O     0.46538   0.25000   0.66251   0.00000  Uiso   1.00
O268   O     0.25000   0.03462   0.33749   0.00000  Uiso   1.00
Zn269  Zn    0.20052   0.00000   0.21730   0.00000  Uiso   1.00
Zn270  Zn    0.04947   0.25000   0.28270   0.00000  Uiso   1.00
Zn271  Zn    0.25000   0.45052   0.71730   0.00000  Uiso   1.00
Zn272  Zn    0.25000   0.04948   0.28270   0.00000  Uiso   1.00
Zn273  Zn    0.04947   0.25000   0.71730   0.00000  Uiso   1.00
Zn274  Zn    0.45052   0.25000   0.28270   0.00000  Uiso   1.00
Zn275  Zn    0.25000   0.04948   0.71730   0.00000  Uiso   1.00
Zn276  Zn    0.25000   0.45052   0.28270   0.00000  Uiso   1.00
Zn277  Zn    0.29947   0.00000   0.78270   0.00000  Uiso   1.00
Zn278  Zn   -0.00000   0.20053   0.21730   0.00000  Uiso   1.00
Zn279  Zn    0.00000   0.29947   0.78270   0.00000  Uiso   1.00
Zn280  Zn    0.29947   0.00000   0.21730   0.00000  Uiso   1.00
Zn281  Zn    0.20052   0.00000   0.78270   0.00000  Uiso   1.00
Zn282  Zn   -0.00000   0.29948   0.21730   0.00000  Uiso   1.00
Zn283  Zn    0.00000   0.20052   0.78270   0.00000  Uiso   1.00
Zn284  Zn    0.45052   0.25000   0.71730   0.00000  Uiso   1.00
C285   C     0.74994   0.49999   0.35604   0.00000  Uiso   1.00
C286   C     0.83003   0.41997   0.75001   0.00000  Uiso   1.00
C287   C     0.93625   0.29319   0.02046   0.00000  Uiso   1.00
C288   C     0.68936   0.04768   0.97943   0.00000  Uiso   1.00
C289   C     0.81064   0.45232   0.02057   0.00000  Uiso   1.00
C290   C     0.93593   0.29268   0.97946   0.00000  Uiso   1.00
C291   C     0.56407   0.20732   0.02054   0.00000  Uiso   1.00
C292   C     0.63659   0.22698   0.44623   0.00000  Uiso   1.00
C293   C     0.86341   0.27302   0.55377   0.00000  Uiso   1.00
C294   C     0.71102   0.36801   0.44891   0.00000  Uiso   1.00
C295   C     0.78899   0.13197   0.55109   0.00000  Uiso   1.00
C296   C     0.86800   0.28205   0.44766   0.00000  Uiso   1.00
C297   C     0.91999   0.16999   0.25000   0.00000  Uiso   1.00
C298   C     0.63201   0.21796   0.55234   0.00000  Uiso   1.00
C299   C     0.69996   0.12760   0.44841   0.00000  Uiso   1.00
C300   C     0.80004   0.37242   0.55159   0.00000  Uiso   1.00
C301   C     0.82197   0.38820   0.94285   0.00000  Uiso   1.00
C302   C     0.67803   0.11180   0.05715   0.00000  Uiso   1.00
C303   C     0.62971   0.21335   0.94378   0.00000  Uiso   1.00
C304   C     0.87029   0.28665   0.05622   0.00000  Uiso   1.00
C305   C     0.67900   0.11221   0.94316   0.00000  Uiso   1.00
C306   C     0.82100   0.38779   0.05684   0.00000  Uiso   1.00
C307   C     0.86922   0.28176   0.94746   0.00000  Uiso   1.00
C308   C     0.58001   0.33001   0.75000   0.00000  Uiso   1.00
C309   C     0.63078   0.21824   0.05254   0.00000  Uiso   1.00
C310   C     0.83003   0.41996   0.25000   0.00000  Uiso   1.00
C311   C     0.66997   0.08004   0.75000   0.00000  Uiso   1.00
C312   C     0.58001   0.33001   0.25000   0.00000  Uiso   1.00
C313   C     0.91999   0.16999   0.75000   0.00000  Uiso   1.00
C314   C     0.66999   0.41999   0.75000   0.00000  Uiso   1.00
C315   C     0.83001   0.08001   0.25000   0.00000  Uiso   1.00
C316   C     0.91997   0.33003   0.75000   0.00000  Uiso   1.00
C317   C     0.75006   0.00001   0.64396   0.00000  Uiso   1.00
C318   C     0.58003   0.16997   0.25000   0.00000  Uiso   1.00
C319   C     0.83001   0.08001   0.75000   0.00000  Uiso   1.00
C320   C     0.66999   0.41999   0.25000   0.00000  Uiso   1.00
C321   C     0.58003   0.16997   0.75000   0.00000  Uiso   1.00
C322   C     0.91997   0.33003   0.25000   0.00000  Uiso   1.00
C323   C     0.63834   0.38834   0.25000   0.00000  Uiso   1.00
C324   C     0.86166   0.11166   0.75000   0.00000  Uiso   1.00
C325   C     0.61168   0.13833   0.25000   0.00000  Uiso   1.00
C326   C     0.88831   0.36167   0.75000   0.00000  Uiso   1.00
C327   C     0.86166   0.11166   0.25000   0.00000  Uiso   1.00
C328   C     0.50000   0.25005   0.35604   0.00000  Uiso   1.00
C329   C     0.63833   0.38834   0.75000   0.00000  Uiso   1.00
C330   C     0.88832   0.36167   0.24999   0.00000  Uiso   1.00
C331   C     0.61168   0.13833   0.75001   0.00000  Uiso   1.00
C332   C     0.63833   0.11168   0.75001   0.00000  Uiso   1.00
C333   C     0.86167   0.38832   0.24999   0.00000  Uiso   1.00
C334   C     0.61167   0.36166   0.75000   0.00000  Uiso   1.00
C335   C     0.88833   0.13834   0.25000   0.00000  Uiso   1.00
C336   C     0.86167   0.38832   0.75001   0.00000  Uiso   1.00
C337   C     0.63832   0.11168   0.24999   0.00000  Uiso   1.00
C338   C     0.88834   0.13834   0.75000   0.00000  Uiso   1.00
C339   C     0.50000   0.24995   0.64396   0.00000  Uiso   1.00
C340   C     0.61166   0.36166   0.25000   0.00000  Uiso   1.00
C341   C     0.96218   0.24581   0.41869   0.00000  Uiso   1.00
C342   C     0.53782   0.25419   0.58131   0.00000  Uiso   1.00
C343   C     0.74772   0.03794   0.41868   0.00000  Uiso   1.00
C344   C     0.75227   0.46206   0.58132   0.00000  Uiso   1.00
C345   C     0.53772   0.25510   0.41868   0.00000  Uiso   1.00
C346   C     0.96228   0.24490   0.58132   0.00000  Uiso   1.00
C347   C     0.75077   0.46194   0.41871   0.00000  Uiso   1.00
C348   C     0.74922   0.03806   0.58129   0.00000  Uiso   1.00
C349   C     0.71833   0.02082   0.91856   0.00000  Uiso   1.00
C350   C     0.50000   0.24999   0.85597   0.00000  Uiso   1.00
C351   C     0.78167   0.47918   0.08144   0.00000  Uiso   1.00
C352   C     0.96980   0.27294   0.91842   0.00000  Uiso   1.00
C353   C     0.53020   0.22706   0.08158   0.00000  Uiso   1.00
C354   C     0.78174   0.47924   0.91857   0.00000  Uiso   1.00
C355   C     0.71826   0.02076   0.08143   0.00000  Uiso   1.00
C356   C     0.53008   0.22683   0.91843   0.00000  Uiso   1.00
C357   C     0.96992   0.27317   0.08157   0.00000  Uiso   1.00
C358   C     0.99997   0.25030   0.39846   0.00000  Uiso   1.00
C359   C     0.50003   0.24969   0.60154   0.00000  Uiso   1.00
C360   C     0.74949   0.49995   0.39847   0.00000  Uiso   1.00
C361   C     0.50000   0.25001   0.14403   0.00000  Uiso   1.00
C362   C     0.75051   0.00005   0.60153   0.00000  Uiso   1.00
C363   C     0.75002   0.00001   0.89838   0.00000  Uiso   1.00
C364   C     0.74998   0.49999   0.10162   0.00000  Uiso   1.00
C365   C     0.99998   0.24995   0.89829   0.00000  Uiso   1.00
C366   C     0.50002   0.25005   0.10171   0.00000  Uiso   1.00
C367   C     0.53839   0.25471   0.45926   0.00000  Uiso   1.00
C368   C     0.96161   0.24529   0.54074   0.00000  Uiso   1.00
C369   C     0.75053   0.46130   0.45929   0.00000  Uiso   1.00
C370   C     0.74946   0.03870   0.54070   0.00000  Uiso   1.00
C371   C     0.96146   0.24633   0.45928   0.00000  Uiso   1.00
C372   C     0.75000  -0.00000   0.85600   0.00000  Uiso   1.00
C373   C     0.53854   0.25366   0.54072   0.00000  Uiso   1.00
C374   C     0.74733   0.03857   0.45926   0.00000  Uiso   1.00
C375   C     0.75266   0.46143   0.54074   0.00000  Uiso   1.00
C376   C     0.78107   0.47714   0.95923   0.00000  Uiso   1.00
C377   C     0.71893   0.02286   0.04077   0.00000  Uiso   1.00
C378   C     0.53144   0.22767   0.95915   0.00000  Uiso   1.00
C379   C     0.96856   0.27233   0.04085   0.00000  Uiso   1.00
C380   C     0.71899   0.02291   0.95921   0.00000  Uiso   1.00
C381   C     0.78101   0.47709   0.04079   0.00000  Uiso   1.00
C382   C     0.96841   0.27206   0.95913   0.00000  Uiso   1.00
C383   C     0.75000   0.00000   0.14400   0.00000  Uiso   1.00
C384   C     0.53159   0.22794   0.04087   0.00000  Uiso   1.00
C385   C     0.99997   0.25018   0.47967   0.00000  Uiso   1.00
C386   C     0.50003   0.24982   0.52033   0.00000  Uiso   1.00
C387   C     0.74947   0.49996   0.47967   0.00000  Uiso   1.00
C388   C     0.75052   0.00003   0.52032   0.00000  Uiso   1.00
C389   C     0.75001   0.00000   0.97966   0.00000  Uiso   1.00
C390   C     0.74999  -0.00000   0.02034   0.00000  Uiso   1.00
C391   C     0.99999   0.24997   0.97961   0.00000  Uiso   1.00
C392   C     0.50001   0.25003   0.02039   0.00000  Uiso   1.00
C393   C     0.57678   0.25887   0.47953   0.00000  Uiso   1.00
C394   C     0.66997   0.08003   0.24999   0.00000  Uiso   1.00
C395   C     0.92322   0.24113   0.52047   0.00000  Uiso   1.00
C396   C     0.75213   0.42273   0.47961   0.00000  Uiso   1.00
C397   C     0.74787   0.07727   0.52039   0.00000  Uiso   1.00
C398   C     0.92299   0.24259   0.47957   0.00000  Uiso   1.00
C399   C     0.57701   0.25741   0.52043   0.00000  Uiso   1.00
C400   C     0.74560   0.07714   0.47952   0.00000  Uiso   1.00
C401   C     0.75439   0.42286   0.52048   0.00000  Uiso   1.00
C402   C     0.81072   0.45239   0.97949   0.00000  Uiso   1.00
C403   C     0.68928   0.04761   0.02051   0.00000  Uiso   1.00
C404   C     0.56375   0.20681   0.97954   0.00000  Uiso   1.00
H405   H     0.93331   0.24157   0.40250   0.00000  Uiso   1.00
H406   H     0.80612   0.46358   0.09786   0.00000  Uiso   1.00
H407   H     0.94687   0.29067   0.90194   0.00000  Uiso   1.00
H408   H     0.55312   0.20933   0.09806   0.00000  Uiso   1.00
H409   H     0.80620   0.46367   0.90216   0.00000  Uiso   1.00
H410   H     0.69379   0.03633   0.09784   0.00000  Uiso   1.00
H411   H     0.55297   0.20912   0.90194   0.00000  Uiso   1.00
H412   H     0.94703   0.29088   0.09806   0.00000  Uiso   1.00
H413   H     0.63429   0.28899   0.46731   0.00000  Uiso   1.00
H414   H     0.66569   0.22276   0.46357   0.00000  Uiso   1.00
H415   H     0.64549   0.23019   0.41526   0.00000  Uiso   1.00
H416   H     0.56669   0.25842   0.59750   0.00000  Uiso   1.00
H417   H     0.61645   0.19852   0.44941   0.00000  Uiso   1.00
H418   H     0.86570   0.21101   0.53269   0.00000  Uiso   1.00
H419   H     0.83431   0.27725   0.53642   0.00000  Uiso   1.00
H420   H     0.88355   0.30148   0.55059   0.00000  Uiso   1.00
H421   H     0.85450   0.26981   0.58474   0.00000  Uiso   1.00
H422   H     0.77196   0.36118   0.46973   0.00000  Uiso   1.00
H423   H     0.69327   0.35971   0.47559   0.00000  Uiso   1.00
H424   H     0.71424   0.33938   0.43075   0.00000  Uiso   1.00
H425   H     0.69300   0.39177   0.43220   0.00000  Uiso   1.00
H426   H     0.72806   0.13883   0.53026   0.00000  Uiso   1.00
H427   H     0.74702   0.06709   0.40249   0.00000  Uiso   1.00
H428   H     0.80675   0.14026   0.52441   0.00000  Uiso   1.00
H429   H     0.80701   0.10820   0.56780   0.00000  Uiso   1.00
H430   H     0.78579   0.16060   0.56925   0.00000  Uiso   1.00
H431   H     0.86145   0.22164   0.46983   0.00000  Uiso   1.00
H432   H     0.85979   0.30068   0.47376   0.00000  Uiso   1.00
H433   H     0.83929   0.27787   0.42973   0.00000  Uiso   1.00
H434   H     0.89154   0.29977   0.43031   0.00000  Uiso   1.00
H435   H     0.63855   0.27837   0.53017   0.00000  Uiso   1.00
H436   H     0.64022   0.19932   0.52623   0.00000  Uiso   1.00
H437   H     0.60847   0.20023   0.56969   0.00000  Uiso   1.00
H438   H     0.75297   0.43291   0.59751   0.00000  Uiso   1.00
H439   H     0.66071   0.22214   0.57027   0.00000  Uiso   1.00
H440   H     0.75984   0.14034   0.46958   0.00000  Uiso   1.00
H441   H     0.68155   0.13496   0.47492   0.00000  Uiso   1.00
H442   H     0.68402   0.10190   0.43224   0.00000  Uiso   1.00
H443   H     0.70083   0.15589   0.42957   0.00000  Uiso   1.00
H444   H     0.74017   0.35965   0.53042   0.00000  Uiso   1.00
H445   H     0.81846   0.36506   0.52509   0.00000  Uiso   1.00
H446   H     0.79919   0.34412   0.57043   0.00000  Uiso   1.00
H447   H     0.81598   0.39812   0.56776   0.00000  Uiso   1.00
H448   H     0.86930   0.42378   0.96913   0.00000  Uiso   1.00
H449   H     0.56663   0.25898   0.40248   0.00000  Uiso   1.00
H450   H     0.81748   0.36498   0.96645   0.00000  Uiso   1.00
H451   H     0.84385   0.37506   0.92095   0.00000  Uiso   1.00
H452   H     0.79123   0.39365   0.92845   0.00000  Uiso   1.00
H453   H     0.63070   0.07622   0.03087   0.00000  Uiso   1.00
H454   H     0.68252   0.13502   0.03355   0.00000  Uiso   1.00
H455   H     0.70876   0.10635   0.07155   0.00000  Uiso   1.00
H456   H     0.65615   0.12494   0.07905   0.00000  Uiso   1.00
H457   H     0.60590   0.15741   0.96819   0.00000  Uiso   1.00
H458   H     0.65890   0.20860   0.96084   0.00000  Uiso   1.00
H459   H     0.62100   0.24718   0.94503   0.00000  Uiso   1.00
H460   H     0.93337   0.24102   0.59752   0.00000  Uiso   1.00
H461   H     0.63613   0.20503   0.91311   0.00000  Uiso   1.00
H462   H     0.89410   0.34259   0.03181   0.00000  Uiso   1.00
H463   H     0.84110   0.29140   0.03916   0.00000  Uiso   1.00
H464   H     0.86387   0.29497   0.08689   0.00000  Uiso   1.00
H465   H     0.87900   0.25282   0.05497   0.00000  Uiso   1.00
H466   H     0.63114   0.07693   0.96896   0.00000  Uiso   1.00
H467   H     0.68412   0.13488   0.96708   0.00000  Uiso   1.00
H468   H     0.65720   0.12616   0.92162   0.00000  Uiso   1.00
H469   H     0.70949   0.10646   0.92844   0.00000  Uiso   1.00
H470   H     0.86886   0.42307   0.03104   0.00000  Uiso   1.00
H471   H     0.75249   0.43282   0.40254   0.00000  Uiso   1.00
H472   H     0.81588   0.36512   0.03292   0.00000  Uiso   1.00
H473   H     0.79051   0.39354   0.07156   0.00000  Uiso   1.00
H474   H     0.84280   0.37384   0.07838   0.00000  Uiso   1.00
H475   H     0.89091   0.33897   0.96922   0.00000  Uiso   1.00
H476   H     0.85261   0.26994   0.97358   0.00000  Uiso   1.00
H477   H     0.88252   0.25469   0.93129   0.00000  Uiso   1.00
H478   H     0.84616   0.29768   0.92836   0.00000  Uiso   1.00
H479   H     0.60909   0.16103   0.03078   0.00000  Uiso   1.00
H480   H     0.64739   0.23006   0.02642   0.00000  Uiso   1.00
H481   H     0.65384   0.20232   0.07164   0.00000  Uiso   1.00
H482   H     0.74751   0.06718   0.59746   0.00000  Uiso   1.00
H483   H     0.61748   0.24531   0.06871   0.00000  Uiso   1.00
H484   H     0.69388   0.03642   0.90214   0.00000  Uiso   1.00
N485   N     0.61500   0.26471   0.45852   0.00000  Uiso   1.00
N486   N     0.66058   0.07310   0.04191   0.00000  Uiso   1.00
N487   N     0.59648   0.18648   0.95852   0.00000  Uiso   1.00
N488   N     0.90352   0.31352   0.04148   0.00000  Uiso   1.00
N489   N     0.66102   0.07354   0.95800   0.00000  Uiso   1.00
N490   N     0.83898   0.42646   0.04200   0.00000  Uiso   1.00
N491   N     0.90209   0.31106   0.95837   0.00000  Uiso   1.00
N492   N     0.59791   0.18894   0.04163   0.00000  Uiso   1.00
N493   N     0.88500   0.23529   0.54148   0.00000  Uiso   1.00
N494   N     0.75235   0.38399   0.45872   0.00000  Uiso   1.00
N495   N     0.74766   0.11601   0.54128   0.00000  Uiso   1.00
N496   N     0.88423   0.24127   0.45868   0.00000  Uiso   1.00
N497   N     0.61577   0.25873   0.54132   0.00000  Uiso   1.00
N498   N     0.74247   0.11571   0.45855   0.00000  Uiso   1.00
N499   N     0.75754   0.38429   0.54145   0.00000  Uiso   1.00
N500   N     0.83942   0.42690   0.95809   0.00000  Uiso   1.00
O501   O     0.75000  -0.00000   0.25000   0.00000  Uiso   1.00
O502   O     0.75000   0.46538   0.66251   0.00000  Uiso   1.00
O503   O     0.96538   0.25000   0.33749   0.00000  Uiso   1.00
O504   O     0.53461   0.25000   0.66251   0.00000  Uiso   1.00
O505   O     0.50000   0.21539   0.83749   0.00000  Uiso   1.00
O506   O     0.50000   0.28462   0.16251   0.00000  Uiso   1.00
O507   O     0.78461   0.00000   0.83749   0.00000  Uiso   1.00
O508   O     0.71538  -0.00000   0.16251   0.00000  Uiso   1.00
O509   O     0.50000   0.28462   0.83749   0.00000  Uiso   1.00
O510   O     0.50000   0.21538   0.16251   0.00000  Uiso   1.00
O511   O     0.71538   0.00000   0.83749   0.00000  Uiso   1.00
O512   O     0.75000  -0.00000   0.75000   0.00000  Uiso   1.00
O513   O     0.78461  -0.00000   0.16251   0.00000  Uiso   1.00
O514   O     0.70126   0.08332   0.27298   0.00000  Uiso   1.00
O515   O     0.79873   0.41668   0.72702   0.00000  Uiso   1.00
O516   O     0.91668   0.20127   0.27298   0.00000  Uiso   1.00
O517   O     0.58332   0.29873   0.72702   0.00000  Uiso   1.00
O518   O     0.79873   0.41668   0.27298   0.00000  Uiso   1.00
O519   O     0.70126   0.08332   0.72702   0.00000  Uiso   1.00
O520   O     0.58332   0.29873   0.27298   0.00000  Uiso   1.00
O521   O     0.91668   0.20127   0.72702   0.00000  Uiso   1.00
O522   O     0.70126   0.41668   0.72702   0.00000  Uiso   1.00
O523   O     0.50000   0.25000   0.25000   0.00000  Uiso   1.00
O524   O     0.79873   0.08332   0.27298   0.00000  Uiso   1.00
O525   O     0.91668   0.29874   0.72702   0.00000  Uiso   1.00
O526   O     0.58332   0.20126   0.27298   0.00000  Uiso   1.00
O527   O     0.79873   0.08332   0.72702   0.00000  Uiso   1.00
O528   O     0.70126   0.41668   0.27298   0.00000  Uiso   1.00
O529   O     0.58332   0.20126   0.72702   0.00000  Uiso   1.00
O530   O     0.91668   0.29874   0.27298   0.00000  Uiso   1.00
O531   O     0.95126   0.33332   0.77298   0.00000  Uiso   1.00
O532   O     0.54873   0.16668   0.22702   0.00000  Uiso   1.00
O533   O     0.66668   0.45126   0.77298   0.00000  Uiso   1.00
O534   O     0.50000   0.25000   0.75000   0.00000  Uiso   1.00
O535   O     0.83332   0.04874   0.22702   0.00000  Uiso   1.00
O536   O     0.54873   0.16668   0.77298   0.00000  Uiso   1.00
O537   O     0.95126   0.33332   0.22702   0.00000  Uiso   1.00
O538   O     0.83332   0.04874   0.77298   0.00000  Uiso   1.00
O539   O     0.66668   0.45126   0.22702   0.00000  Uiso   1.00
O540   O     0.95126   0.16668   0.22702   0.00000  Uiso   1.00
O541   O     0.54873   0.33332   0.77298   0.00000  Uiso   1.00
O542   O     0.66668   0.04874   0.22702   0.00000  Uiso   1.00
O543   O     0.83332   0.45126   0.77298   0.00000  Uiso   1.00
O544   O     0.54873   0.33332   0.22702   0.00000  Uiso   1.00
O545   O     0.75000   0.46538   0.33749   0.00000  Uiso   1.00
O546   O     0.95126   0.16668   0.77298   0.00000  Uiso   1.00
O547   O     0.83332   0.45126   0.22702   0.00000  Uiso   1.00
O548   O     0.66668   0.04874   0.77298   0.00000  Uiso   1.00
O549   O     0.75000   0.03462   0.66251   0.00000  Uiso   1.00
O550   O     0.53461   0.25000   0.33749   0.00000  Uiso   1.00
O551   O     0.96538   0.25000   0.66251   0.00000  Uiso   1.00
O552   O     0.75000   0.03462   0.33749   0.00000  Uiso   1.00
Zn553  Zn    0.70052   0.00000   0.21730   0.00000  Uiso   1.00
Zn554  Zn    0.54947   0.25000   0.28270   0.00000  Uiso   1.00
Zn555  Zn    0.75000   0.45052   0.71730   0.00000  Uiso   1.00
Zn556  Zn    0.75000   0.04948   0.28270   0.00000  Uiso   1.00
Zn557  Zn    0.54947   0.25000   0.71730   0.00000  Uiso   1.00
Zn558  Zn    0.95052   0.25000   0.28270   0.00000  Uiso   1.00
Zn559  Zn    0.75000   0.04948   0.71730   0.00000  Uiso   1.00
Zn560  Zn    0.75000   0.45052   0.28270   0.00000  Uiso   1.00
Zn561  Zn    0.79947   0.00000   0.78270   0.00000  Uiso   1.00
Zn562  Zn    0.50000   0.20053   0.21730   0.00000  Uiso   1.00
Zn563  Zn    0.50000   0.29947   0.78270   0.00000  Uiso   1.00
Zn564  Zn    0.79947   0.00000   0.21730   0.00000  Uiso   1.00
Zn565  Zn    0.70052   0.00000   0.78270   0.00000  Uiso   1.00
Zn566  Zn    0.50000   0.29948   0.21730   0.00000  Uiso   1.00
Zn567  Zn    0.50000   0.20052   0.78270   0.00000  Uiso   1.00
Zn568  Zn    0.95052   0.25000   0.71730   0.00000  Uiso   1.00
C569   C     0.24994   0.99999   0.35604   0.00000  Uiso   1.00
C570   C     0.33003   0.91997   0.75001   0.00000  Uiso   1.00
C571   C     0.43625   0.79319   0.02046   0.00000  Uiso   1.00
C572   C     0.18936   0.54768   0.97943   0.00000  Uiso   1.00
C573   C     0.31064   0.95232   0.02057   0.00000  Uiso   1.00
C574   C     0.43593   0.79268   0.97946   0.00000  Uiso   1.00
C575   C     0.06407   0.70732   0.02054   0.00000  Uiso   1.00
C576   C     0.13659   0.72698   0.44623   0.00000  Uiso   1.00
C577   C     0.36341   0.77302   0.55377   0.00000  Uiso   1.00
C578   C     0.21102   0.86801   0.44891   0.00000  Uiso   1.00
C579   C     0.28899   0.63197   0.55109   0.00000  Uiso   1.00
C580   C     0.36800   0.78205   0.44766   0.00000  Uiso   1.00
C581   C     0.41999   0.66999   0.25000   0.00000  Uiso   1.00
C582   C     0.13201   0.71796   0.55234   0.00000  Uiso   1.00
C583   C     0.19996   0.62760   0.44841   0.00000  Uiso   1.00
C584   C     0.30004   0.87242   0.55159   0.00000  Uiso   1.00
C585   C     0.32197   0.88820   0.94285   0.00000  Uiso   1.00
C586   C     0.17803   0.61180   0.05715   0.00000  Uiso   1.00
C587   C     0.12971   0.71335   0.94378   0.00000  Uiso   1.00
C588   C     0.37029   0.78665   0.05622   0.00000  Uiso   1.00
C589   C     0.17900   0.61221   0.94316   0.00000  Uiso   1.00
C590   C     0.32100   0.88779   0.05684   0.00000  Uiso   1.00
C591   C     0.36922   0.78176   0.94746   0.00000  Uiso   1.00
C592   C     0.08001   0.83001   0.75000   0.00000  Uiso   1.00
C593   C     0.13078   0.71824   0.05254   0.00000  Uiso   1.00
C594   C     0.33003   0.91996   0.25000   0.00000  Uiso   1.00
C595   C     0.16997   0.58004   0.75000   0.00000  Uiso   1.00
C596   C     0.08001   0.83001   0.25000   0.00000  Uiso   1.00
C597   C     0.41999   0.66999   0.75000   0.00000  Uiso   1.00
C598   C     0.16999   0.91999   0.75000   0.00000  Uiso   1.00
C599   C     0.33001   0.58001   0.25000   0.00000  Uiso   1.00
C600   C     0.41997   0.83003   0.75000   0.00000  Uiso   1.00
C601   C     0.25006   0.50001   0.64396   0.00000  Uiso   1.00
C602   C     0.08003   0.66997   0.25000   0.00000  Uiso   1.00
C603   C     0.33001   0.58001   0.75000   0.00000  Uiso   1.00
C604   C     0.16999   0.91999   0.25000   0.00000  Uiso   1.00
C605   C     0.08003   0.66997   0.75000   0.00000  Uiso   1.00
C606   C     0.41997   0.83003   0.25000   0.00000  Uiso   1.00
C607   C     0.13834   0.88834   0.25000   0.00000  Uiso   1.00
C608   C     0.36166   0.61166   0.75000   0.00000  Uiso   1.00
C609   C     0.11168   0.63833   0.25000   0.00000  Uiso   1.00
C610   C     0.38831   0.86167   0.75000   0.00000  Uiso   1.00
C611   C     0.36166   0.61166   0.25000   0.00000  Uiso   1.00
C612   C    -0.00000   0.75005   0.35604   0.00000  Uiso   1.00
C613   C     0.13833   0.88834   0.75000   0.00000  Uiso   1.00
C614   C     0.38832   0.86167   0.24999   0.00000  Uiso   1.00
C615   C     0.11168   0.63833   0.75001   0.00000  Uiso   1.00
C616   C     0.13833   0.61168   0.75001   0.00000  Uiso   1.00
C617   C     0.36167   0.88832   0.24999   0.00000  Uiso   1.00
C618   C     0.11167   0.86166   0.75000   0.00000  Uiso   1.00
C619   C     0.38833   0.63834   0.25000   0.00000  Uiso   1.00
C620   C     0.36167   0.88832   0.75001   0.00000  Uiso   1.00
C621   C     0.13832   0.61168   0.24999   0.00000  Uiso   1.00
C622   C     0.38834   0.63834   0.75000   0.00000  Uiso   1.00
C623   C     0.00000   0.74995   0.64396   0.00000  Uiso   1.00
C624   C     0.11166   0.86166   0.25000   0.00000  Uiso   1.00
C625   C     0.46218   0.74581   0.41869   0.00000  Uiso   1.00
C626   C     0.03782   0.75419   0.58131   0.00000  Uiso   1.00
C627   C     0.24772   0.53794   0.41868   0.00000  Uiso   1.00
C628   C     0.25227   0.96206   0.58132   0.00000  Uiso   1.00
C629   C     0.03772   0.75510   0.41868   0.00000  Uiso   1.00
C630   C     0.46228   0.74490   0.58132   0.00000  Uiso   1.00
C631   C     0.25077   0.96194   0.41871   0.00000  Uiso   1.00
C632   C     0.24922   0.53806   0.58129   0.00000  Uiso   1.00
C633   C     0.21833   0.52082   0.91856   0.00000  Uiso   1.00
C634   C     0.00000   0.74999   0.85597   0.00000  Uiso   1.00
C635   C     0.28167   0.97918   0.08144   0.00000  Uiso   1.00
C636   C     0.46980   0.77294   0.91842   0.00000  Uiso   1.00
C637   C     0.03020   0.72706   0.08158   0.00000  Uiso   1.00
C638   C     0.28174   0.97924   0.91857   0.00000  Uiso   1.00
C639   C     0.21826   0.52076   0.08143   0.00000  Uiso   1.00
C640   C     0.03008   0.72683   0.91843   0.00000  Uiso   1.00
C641   C     0.46992   0.77317   0.08157   0.00000  Uiso   1.00
C642   C     0.49997   0.75030   0.39846   0.00000  Uiso   1.00
C643   C     0.00003   0.74969   0.60154   0.00000  Uiso   1.00
C644   C     0.24949   0.99995   0.39847   0.00000  Uiso   1.00
C645   C    -0.00000   0.75001   0.14403   0.00000  Uiso   1.00
C646   C     0.25051   0.50005   0.60153   0.00000  Uiso   1.00
C647   C     0.25002   0.50001   0.89838   0.00000  Uiso   1.00
C648   C     0.24998   0.99999   0.10162   0.00000  Uiso   1.00
C649   C     0.49998   0.74995   0.89829   0.00000  Uiso   1.00
C650   C     0.00002   0.75005   0.10171   0.00000  Uiso   1.00
C651   C     0.03839   0.75471   0.45926   0.00000  Uiso   1.00
C652   C     0.46161   0.74529   0.54074   0.00000  Uiso   1.00
C653   C     0.25053   0.96130   0.45929   0.00000  Uiso   1.00
C654   C     0.24946   0.53870   0.54070   0.00000  Uiso   1.00
C655   C     0.46146   0.74633   0.45928   0.00000  Uiso   1.00
C656   C     0.25000   0.50000   0.85600   0.00000  Uiso   1.00
C657   C     0.03854   0.75366   0.54072   0.00000  Uiso   1.00
C658   C     0.24733   0.53857   0.45926   0.00000  Uiso   1.00
C659   C     0.25266   0.96143   0.54074   0.00000  Uiso   1.00
C660   C     0.28107   0.97714   0.95923   0.00000  Uiso   1.00
C661   C     0.21893   0.52286   0.04077   0.00000  Uiso   1.00
C662   C     0.03144   0.72767   0.95915   0.00000  Uiso   1.00
C663   C     0.46856   0.77233   0.04085   0.00000  Uiso   1.00
C664   C     0.21899   0.52291   0.95921   0.00000  Uiso   1.00
C665   C     0.28101   0.97709   0.04079   0.00000  Uiso   1.00
C666   C     0.46841   0.77206   0.95913   0.00000  Uiso   1.00
C667   C     0.25000   0.50000   0.14400   0.00000  Uiso   1.00
C668   C     0.03159   0.72794   0.04087   0.00000  Uiso   1.00
C669   C     0.49997   0.75018   0.47967   0.00000  Uiso   1.00
C670   C     0.00003   0.74982   0.52033   0.00000  Uiso   1.00
C671   C     0.24947   0.99996   0.47967   0.00000  Uiso   1.00
C672   C     0.25052   0.50003   0.52032   0.00000  Uiso   1.00
C673   C     0.25001   0.50000   0.97966   0.00000  Uiso   1.00
C674   C     0.24999   0.50000   0.02034   0.00000  Uiso   1.00
C675   C     0.49999   0.74997   0.97961   0.00000  Uiso   1.00
C676   C     0.00001   0.75003   0.02039   0.00000  Uiso   1.00
C677   C     0.07678   0.75887   0.47953   0.00000  Uiso   1.00
C678   C     0.16997   0.58003   0.24999   0.00000  Uiso   1.00
C679   C     0.42322   0.74113   0.52047   0.00000  Uiso   1.00
C680   C     0.25213   0.92273   0.47961   0.00000  Uiso   1.00
C681   C     0.24787   0.57727   0.52039   0.00000  Uiso   1.00
C682   C     0.42299   0.74259   0.47957   0.00000  Uiso   1.00
C683   C     0.07701   0.75741   0.52043   0.00000  Uiso   1.00
C684   C     0.24560   0.57714   0.47952   0.00000  Uiso   1.00
C685   C     0.25439   0.92286   0.52048   0.00000  Uiso   1.00
C686   C     0.31072   0.95239   0.97949   0.00000  Uiso   1.00
C687   C     0.18928   0.54761   0.02051   0.00000  Uiso   1.00
C688   C     0.06375   0.70681   0.97954   0.00000  Uiso   1.00
H689   H     0.43331   0.74157   0.40250   0.00000  Uiso   1.00
H690   H     0.30612   0.96358   0.09786   0.00000  Uiso   1.00
H691   H     0.44687   0.79067   0.90194   0.00000  Uiso   1.00
H692   H     0.05312   0.70933   0.09806   0.00000  Uiso   1.00
H693   H     0.30620   0.96367   0.90216   0.00000  Uiso   1.00
H694   H     0.19379   0.53633   0.09784   0.00000  Uiso   1.00
H695   H     0.05297   0.70912   0.90194   0.00000  Uiso   1.00
H696   H     0.44703   0.79088   0.09806   0.00000  Uiso   1.00
H697   H     0.13429   0.78899   0.46731   0.00000  Uiso   1.00
H698   H     0.16569   0.72276   0.46357   0.00000  Uiso   1.00
H699   H     0.14549   0.73019   0.41526   0.00000  Uiso   1.00
H700   H     0.06669   0.75842   0.59750   0.00000  Uiso   1.00
H701   H     0.11645   0.69852   0.44941   0.00000  Uiso   1.00
H702   H     0.36570   0.71101   0.53269   0.00000  Uiso   1.00
H703   H     0.33431   0.77725   0.53642   0.00000  Uiso   1.00
H704   H     0.38355   0.80148   0.55059   0.00000  Uiso   1.00
H705   H     0.35450   0.76981   0.58474   0.00000  Uiso   1.00
H706   H     0.27196   0.86118   0.46973   0.00000  Uiso   1.00
H707   H     0.19327   0.85971   0.47559   0.00000  Uiso   1.00
H708   H     0.21424   0.83938   0.43075   0.00000  Uiso   1.00
H709   H     0.19300   0.89177   0.43220   0.00000  Uiso   1.00
H710   H     0.22806   0.63883   0.53026   0.00000  Uiso   1.00
H711   H     0.24702   0.56709   0.40249   0.00000  Uiso   1.00
H712   H     0.30675   0.64026   0.52441   0.00000  Uiso   1.00
H713   H     0.30701   0.60820   0.56780   0.00000  Uiso   1.00
H714   H     0.28579   0.66060   0.56925   0.00000  Uiso   1.00
H715   H     0.36145   0.72164   0.46983   0.00000  Uiso   1.00
H716   H     0.35979   0.80068   0.47376   0.00000  Uiso   1.00
H717   H     0.33929   0.77787   0.42973   0.00000  Uiso   1.00
H718   H     0.39154   0.79977   0.43031   0.00000  Uiso   1.00
H719   H     0.13855   0.77837   0.53017   0.00000  Uiso   1.00
H720   H     0.14022   0.69932   0.52623   0.00000  Uiso   1.00
H721   H     0.10847   0.70023   0.56969   0.00000  Uiso   1.00
H722   H     0.25297   0.93291   0.59751   0.00000  Uiso   1.00
H723   H     0.16071   0.72214   0.57027   0.00000  Uiso   1.00
H724   H     0.25984   0.64034   0.46958   0.00000  Uiso   1.00
H725   H     0.18155   0.63496   0.47492   0.00000  Uiso   1.00
H726   H     0.18402   0.60190   0.43224   0.00000  Uiso   1.00
H727   H     0.20083   0.65589   0.42957   0.00000  Uiso   1.00
H728   H     0.24017   0.85965   0.53042   0.00000  Uiso   1.00
H729   H     0.31846   0.86506   0.52509   0.00000  Uiso   1.00
H730   H     0.29919   0.84412   0.57043   0.00000  Uiso   1.00
H731   H     0.31598   0.89812   0.56776   0.00000  Uiso   1.00
H732   H     0.36930   0.92378   0.96913   0.00000  Uiso   1.00
H733   H     0.06663   0.75898   0.40248   0.00000  Uiso   1.00
H734   H     0.31748   0.86498   0.96645   0.00000  Uiso   1.00
H735   H     0.34385   0.87506   0.92095   0.00000  Uiso   1.00
H736   H     0.29123   0.89365   0.92845   0.00000  Uiso   1.00
H737   H     0.13070   0.57622   0.03087   0.00000  Uiso   1.00
H738   H     0.18252   0.63502   0.03355   0.00000  Uiso   1.00
H739   H     0.20876   0.60635   0.07155   0.00000  Uiso   1.00
H740   H     0.15615   0.62494   0.07905   0.00000  Uiso   1.00
H741   H     0.10590   0.65741   0.96819   0.00000  Uiso   1.00
H742   H     0.15890   0.70860   0.96084   0.00000  Uiso   1.00
H743   H     0.12100   0.74718   0.94503   0.00000  Uiso   1.00
H744   H     0.43337   0.74102   0.59752   0.00000  Uiso   1.00
H745   H     0.13613   0.70503   0.91311   0.00000  Uiso   1.00
H746   H     0.39410   0.84259   0.03181   0.00000  Uiso   1.00
H747   H     0.34110   0.79140   0.03916   0.00000  Uiso   1.00
H748   H     0.36387   0.79497   0.08689   0.00000  Uiso   1.00
H749   H     0.37900   0.75282   0.05497   0.00000  Uiso   1.00
H750   H     0.13114   0.57693   0.96896   0.00000  Uiso   1.00
H751   H     0.18412   0.63488   0.96708   0.00000  Uiso   1.00
H752   H     0.15720   0.62616   0.92162   0.00000  Uiso   1.00
H753   H     0.20949   0.60646   0.92844   0.00000  Uiso   1.00
H754   H     0.36886   0.92307   0.03104   0.00000  Uiso   1.00
H755   H     0.25249   0.93282   0.40254   0.00000  Uiso   1.00
H756   H     0.31588   0.86512   0.03292   0.00000  Uiso   1.00
H757   H     0.29051   0.89354   0.07156   0.00000  Uiso   1.00
H758   H     0.34280   0.87384   0.07838   0.00000  Uiso   1.00
H759   H     0.39091   0.83897   0.96922   0.00000  Uiso   1.00
H760   H     0.35261   0.76994   0.97358   0.00000  Uiso   1.00
H761   H     0.38252   0.75469   0.93129   0.00000  Uiso   1.00
H762   H     0.34616   0.79768   0.92836   0.00000  Uiso   1.00
H763   H     0.10909   0.66103   0.03078   0.00000  Uiso   1.00
H764   H     0.14739   0.73006   0.02642   0.00000  Uiso   1.00
H765   H     0.15384   0.70232   0.07164   0.00000  Uiso   1.00
H766   H     0.24751   0.56718   0.59746   0.00000  Uiso   1.00
H767   H     0.11748   0.74531   0.06871   0.00000  Uiso   1.00
H768   H     0.19388   0.53642   0.90214   0.00000  Uiso   1.00
N769   N     0.11500   0.76471   0.45852   0.00000  Uiso   1.00
N770   N     0.16058   0.57310   0.04191   0.00000  Uiso   1.00
N771   N     0.09648   0.68648   0.95852   0.00000  Uiso   1.00
N772   N     0.40352   0.81352   0.04148   0.00000  Uiso   1.00
N773   N     0.16102   0.57354   0.95800   0.00000  Uiso   1.00
N774   N     0.33898   0.92646   0.04200   0.00000  Uiso   1.00
N775   N     0.40209   0.81106   0.95837   0.00000  Uiso   1.00
N776   N     0.09791   0.68894   0.04163   0.00000  Uiso   1.00
N777   N     0.38500   0.73529   0.54148   0.00000  Uiso   1.00
N778   N     0.25235   0.88399   0.45872   0.00000  Uiso   1.00
N779   N     0.24766   0.61601   0.54128   0.00000  Uiso   1.00
N780   N     0.38423   0.74127   0.45868   0.00000  Uiso   1.00
N781   N     0.11577   0.75873   0.54132   0.00000  Uiso   1.00
N782   N     0.24247   0.61571   0.45855   0.00000  Uiso   1.00
N783   N     0.25754   0.88429   0.54145   0.00000  Uiso   1.00
N784   N     0.33942   0.92690   0.95809   0.00000  Uiso   1.00
O785   O     0.25000   0.50000   0.25000   0.00000  Uiso   1.00
O786   O     0.25000   0.96538   0.66251   0.00000  Uiso   1.00
O787   O     0.46538   0.75000   0.33749   0.00000  Uiso   1.00
O788   O     0.03461   0.75000   0.66251   0.00000  Uiso   1.00
O789   O    -0.00000   0.71539   0.83749   0.00000  Uiso   1.00
O790   O    -0.00000   0.78462   0.16251   0.00000  Uiso   1.00
O791   O     0.28461   0.50000   0.83749   0.00000  Uiso   1.00
O792   O     0.21538   0.50000   0.16251   0.00000  Uiso   1.00
O793   O    -0.00000   0.78462   0.83749   0.00000  Uiso   1.00
O794   O     0.00000   0.71538   0.16251   0.00000  Uiso   1.00
O795   O     0.21538   0.50000   0.83749   0.00000  Uiso   1.00
O796   O     0.25000   0.50000   0.75000   0.00000  Uiso   1.00
O797   O     0.28461   0.50000   0.16251   0.00000  Uiso   1.00
O798   O     0.20126   0.58332   0.27298   0.00000  Uiso   1.00
O799   O     0.29873   0.91668   0.72702   0.00000  Uiso   1.00
O800   O     0.41668   0.70127   0.27298   0.00000  Uiso   1.00
O801   O     0.08332   0.79873   0.72702   0.00000  Uiso   1.00
O802   O     0.29873   0.91668   0.27298   0.00000  Uiso   1.00
O803   O     0.20126   0.58332   0.72702   0.00000  Uiso   1.00
O804   O     0.08332   0.79873   0.27298   0.00000  Uiso   1.00
O805   O     0.41668   0.70127   0.72702   0.00000  Uiso   1.00
O806   O     0.20126   0.91668   0.72702   0.00000  Uiso   1.00
O807   O     0.00000   0.75000   0.25000   0.00000  Uiso   1.00
O808   O     0.29873   0.58332   0.27298   0.00000  Uiso   1.00
O809   O     0.41668   0.79874   0.72702   0.00000  Uiso   1.00
O810   O     0.08332   0.70126   0.27298   0.00000  Uiso   1.00
O811   O     0.29873   0.58332   0.72702   0.00000  Uiso   1.00
O812   O     0.20126   0.91668   0.27298   0.00000  Uiso   1.00
O813   O     0.08332   0.70126   0.72702   0.00000  Uiso   1.00
O814   O     0.41668   0.79874   0.27298   0.00000  Uiso   1.00
O815   O     0.45126   0.83332   0.77298   0.00000  Uiso   1.00
O816   O     0.04873   0.66668   0.22702   0.00000  Uiso   1.00
O817   O     0.16668   0.95126   0.77298   0.00000  Uiso   1.00
O818   O    -0.00000   0.75000   0.75000   0.00000  Uiso   1.00
O819   O     0.33332   0.54874   0.22702   0.00000  Uiso   1.00
O820   O     0.04873   0.66668   0.77298   0.00000  Uiso   1.00
O821   O     0.45126   0.83332   0.22702   0.00000  Uiso   1.00
O822   O     0.33332   0.54874   0.77298   0.00000  Uiso   1.00
O823   O     0.16668   0.95126   0.22702   0.00000  Uiso   1.00
O824   O     0.45126   0.66668   0.22702   0.00000  Uiso   1.00
O825   O     0.04873   0.83332   0.77298   0.00000  Uiso   1.00
O826   O     0.16668   0.54874   0.22702   0.00000  Uiso   1.00
O827   O     0.33332   0.95126   0.77298   0.00000  Uiso   1.00
O828   O     0.04873   0.83332   0.22702   0.00000  Uiso   1.00
O829   O     0.25000   0.96538   0.33749   0.00000  Uiso   1.00
O830   O     0.45126   0.66668   0.77298   0.00000  Uiso   1.00
O831   O     0.33332   0.95126   0.22702   0.00000  Uiso   1.00
O832   O     0.16668   0.54874   0.77298   0.00000  Uiso   1.00
O833   O     0.25000   0.53462   0.66251   0.00000  Uiso   1.00
O834   O     0.03461   0.75000   0.33749   0.00000  Uiso   1.00
O835   O     0.46538   0.75000   0.66251   0.00000  Uiso   1.00
O836   O     0.25000   0.53462   0.33749   0.00000  Uiso   1.00
Zn837  Zn    0.20052   0.50000   0.21730   0.00000  Uiso   1.00
Zn838  Zn    0.04947   0.75000   0.28270   0.00000  Uiso   1.00
Zn839  Zn    0.25000   0.95052   0.71730   0.00000  Uiso   1.00
Zn840  Zn    0.25000   0.54948   0.28270   0.00000  Uiso   1.00
Zn841  Zn    0.04947   0.75000   0.71730   0.00000  Uiso   1.00
Zn842  Zn    0.45052   0.75000   0.28270   0.00000  Uiso   1.00
Zn843  Zn    0.25000   0.54948   0.71730   0.00000  Uiso   1.00
Zn844  Zn    0.25000   0.95052   0.28270   0.00000  Uiso   1.00
Zn845  Zn    0.29947   0.50000   0.78270   0.00000  Uiso   1.00
Zn846  Zn   -0.00000   0.70053   0.21730   0.00000  Uiso   1.00
Zn847  Zn    0.00000   0.79947   0.78270   0.00000  Uiso   1.00
Zn848  Zn    0.29947   0.50000   0.21730   0.00000  Uiso   1.00
Zn849  Zn    0.20052   0.50000   0.78270   0.00000  Uiso   1.00
Zn850  Zn   -0.00000   0.79948   0.21730   0.00000  Uiso   1.00
Zn851  Zn    0.00000   0.70052   0.78270   0.00000  Uiso   1.00
Zn852  Zn    0.45052   0.75000   0.71730   0.00000  Uiso   1.00
C853   C     0.74994   0.99999   0.35604   0.00000  Uiso   1.00
C854   C     0.83003   0.91997   0.75001   0.00000  Uiso   1.00
C855   C     0.93625   0.79319   0.02046   0.00000  Uiso   1.00
C856   C     0.68936   0.54768   0.97943   0.00000  Uiso   1.00
C857   C     0.81064   0.95232   0.02057   0.00000  Uiso   1.00
C858   C     0.93593   0.79268   0.97946   0.00000  Uiso   1.00
C859   C     0.56407   0.70732   0.02054   0.00000  Uiso   1.00
C860   C     0.63659   0.72698   0.44623   0.00000  Uiso   1.00
C861   C     0.86341   0.77302   0.55377   0.00000  Uiso   1.00
C862   C     0.71102   0.86801   0.44891   0.00000  Uiso   1.00
C863   C     0.78899   0.63197   0.55109   0.00000  Uiso   1.00
C864   C     0.86800   0.78205   0.44766   0.00000  Uiso   1.00
C865   C     0.91999   0.66999   0.25000   0.00000  Uiso   1.00
C866   C     0.63201   0.71796   0.55234   0.00000  Uiso   1.00
C867   C     0.69996   0.62760   0.44841   0.00000  Uiso   1.00
C868   C     0.80004   0.87242   0.55159   0.00000  Uiso   1.00
C869   C     0.82197   0.88820   0.94285   0.00000  Uiso   1.00
C870   C     0.67803   0.61180   0.05715   0.00000  Uiso   1.00
C871   C     0.62971   0.71335   0.94378   0.00000  Uiso   1.00
C872   C     0.87029   0.78665   0.05622   0.00000  Uiso   1.00
C873   C     0.67900   0.61221   0.94316   0.00000  Uiso   1.00
C874   C     0.82100   0.88779   0.05684   0.00000  Uiso   1.00
C875   C     0.86922   0.78176   0.94746   0.00000  Uiso   1.00
C876   C     0.58001   0.83001   0.75000   0.00000  Uiso   1.00
C877   C     0.63078   0.71824   0.05254   0.00000  Uiso   1.00
C878   C     0.83003   0.91996   0.25000   0.00000  Uiso   1.00
C879   C     0.66997   0.58004   0.75000   0.00000  Uiso   1.00
C880   C     0.58001   0.83001   0.25000   0.00000  Uiso   1.00
C881   C     0.91999   0.66999   0.75000   0.00000  Uiso   1.00
C882   C     0.66999   0.91999   0.75000   0.00000  Uiso   1.00
C883   C     0.83001   0.58001   0.25000   0.00000  Uiso   1.00
C884   C     0.91997   0.83003   0.75000   0.00000  Uiso   1.00
C885   C     0.75006   0.50001   0.64396   0.00000  Uiso   1.00
C886   C     0.58003   0.66997   0.25000   0.00000  Uiso   1.00
C887   C     0.83001   0.58001   0.75000   0.00000  Uiso   1.00
C888   C     0.66999   0.91999   0.25000   0.00000  Uiso   1.00
C889   C     0.58003   0.66997   0.75000   0.00000  Uiso   1.00
C890   C     0.91997   0.83003   0.25000   0.00000  Uiso   1.00
C891   C     0.63834   0.88834   0.25000   0.00000  Uiso   1.00
C892   C     0.86166   0.61166   0.75000   0.00000  Uiso   1.00
C893   C     0.61168   0.63833   0.25000   0.00000  Uiso   1.00
C894   C     0.88831   0.86167   0.75000   0.00000  Uiso   1.00
C895   C     0.86166   0.61166   0.25000   0.00000  Uiso   1.00
C896   C     0.50000   0.75005   0.35604   0.00000  Uiso   1.00
C897   C     0.63833   0.88834   0.75000   0.00000  Uiso   1.00
C898   C     0.88832   0.86167   0.24999   0.00000  Uiso   1.00
C899   C     0.61168   0.63833   0.75001   0.00000  Uiso   1.00
C900   C     0.63833   0.61168   0.75001   0.00000  Uiso   1.00
C901   C     0.86167   0.88832   0.24999   0.00000  Uiso   1.00
C902   C     0.61167   0.86166   0.75000   0.00000  Uiso   1.00
C903   C     0.88833   0.63834   0.25000   0.00000  Uiso   1.00
C904   C     0.86167   0.88832   0.75001   0.00000  Uiso   1.00
C905   C     0.63832   0.61168   0.24999   0.00000  Uiso   1.00
C906   C     0.88834   0.63834   0.75000   0.00000  Uiso   1.00
C907   C     0.50000   0.74995   0.64396   0.00000  Uiso   1.00
C908   C     0.61166   0.86166   0.25000   0.00000  Uiso   1.00
C909   C     0.96218   0.74581   0.41869   0.00000  Uiso   1.00
C910   C     0.53782   0.75419   0.58131   0.00000  Uiso   1.00
C911   C     0.74772   0.53794   0.41868   0.00000  Uiso   1.00
C912   C     0.75227   0.96206   0.58132   0.00000  Uiso   1.00
C913   C     0.53772   0.75510   0.41868   0.00000  Uiso   1.00
C914   C     0.96228   0.74490   0.58132   0.00000  Uiso   1.00
C915   C     0.75077   0.96194   0.41871   0.00000  Uiso   1.00
C916   C     0.74922   0.53806   0.58129   0.00000  Uiso   1.00
C917   C     0.71833   0.52082   0.91856   0.00000  Uiso   1.00
C918   C     0.50000   0.74999   0.85597   0.00000  Uiso   1.00
C919   C     0.78167   0.97918   0.08144   0.00000  Uiso   1.00
C920   C     0.96980   0.77294   0.91842   0.00000  Uiso   1.00
C921   C     0.53020   0.72706   0.08158   0.00000  Uiso   1.00
C922   C     0.78174   0.97924   0.91857   0.00000  Uiso   1.00
C923   C     0.71826   0.52076   0.08143   0.00000  Uiso   1.00
C924   C     0.53008   0.72683   0.91843   0.00000  Uiso   1.00
C925   C     0.96992   0.77317   0.08157   0.00000  Uiso   1.00
C926   C     0.99997   0.75030   0.39846   0.00000  Uiso   1.00
C927   C     0.50003   0.74969   0.60154   0.00000  Uiso   1.00
C928   C     0.74949   0.99995   0.39847   0.00000  Uiso   1.00
C929   C     0.50000   0.75001   0.14403   0.00000  Uiso   1.00
C930   C     0.75051   0.50005   0.60153   0.00000  Uiso   1.00
C931   C     0.75002   0.50001   0.89838   0.00000  Uiso   1.00
C932   C     0.74998   0.99999   0.10162   0.00000  Uiso   1.00
C933   C     0.99998   0.74995   0.89829   0.00000  Uiso   1.00
C934   C     0.50002   0.75005   0.10171   0.00000  Uiso   1.00
C935   C     0.53839   0.75471   0.45926   0.00000  Uiso   1.00
C936   C     0.96161   0.74529   0.54074   0.00000  Uiso   1.00
C937   C     0.75053   0.96130   0.45929   0.00000  Uiso   1.00
C938   C     0.74946   0.53870   0.54070   0.00000  Uiso   1.00
C939   C     0.96146   0.74633   0.45928   0.00000  Uiso   1.00
C940   C     0.75000   0.50000   0.85600   0.00000  Uiso   1.00
C941   C     0.53854   0.75366   0.54072   0.00000  Uiso   1.00
C942   C     0.74733   0.53857   0.45926   0.00000  Uiso   1.00
C943   C     0.75266   0.96143   0.54074   0.00000  Uiso   1.00
C944   C     0.78107   0.97714   0.95923   0.00000  Uiso   1.00
C945   C     0.71893   0.52286   0.04077   0.00000  Uiso   1.00
C946   C     0.53144   0.72767   0.95915   0.00000  Uiso   1.00
C947   C     0.96856   0.77233   0.04085   0.00000  Uiso   1.00
C948   C     0.71899   0.52291   0.95921   0.00000  Uiso   1.00
C949   C     0.78101   0.97709   0.04079   0.00000  Uiso   1.00
C950   C     0.96841   0.77206   0.95913   0.00000  Uiso   1.00
C951   C     0.75000   0.50000   0.14400   0.00000  Uiso   1.00
C952   C     0.53159   0.72794   0.04087   0.00000  Uiso   1.00
C953   C     0.99997   0.75018   0.47967   0.00000  Uiso   1.00
C954   C     0.50003   0.74982   0.52033   0.00000  Uiso   1.00
C955   C     0.74947   0.99996   0.47967   0.00000  Uiso   1.00
C956   C     0.75052   0.50003   0.52032   0.00000  Uiso   1.00
C957   C     0.75001   0.50000   0.97966   0.00000  Uiso   1.00
C958   C     0.74999   0.50000   0.02034   0.00000  Uiso   1.00
C959   C     0.99999   0.74997   0.97961   0.00000  Uiso   1.00
C960   C     0.50001   0.75003   0.02039   0.00000  Uiso   1.00
C961   C     0.57678   0.75887   0.47953   0.00000  Uiso   1.00
C962   C     0.66997   0.58003   0.24999   0.00000  Uiso   1.00
C963   C     0.92322   0.74113   0.52047   0.00000  Uiso   1.00
C964   C     0.75213   0.92273   0.47961   0.00000  Uiso   1.00
C965   C     0.74787   0.57727   0.52039   0.00000  Uiso   1.00
C966   C     0.92299   0.74259   0.47957   0.00000  Uiso   1.00
C967   C     0.57701   0.75741   0.52043   0.00000  Uiso   1.00
C968   C     0.74560   0.57714   0.47952   0.00000  Uiso   1.00
C969   C     0.75439   0.92286   0.52048   0.00000  Uiso   1.00
C970   C     0.81072   0.95239   0.97949   0.00000  Uiso   1.00
C971   C     0.68928   0.54761   0.02051   0.00000  Uiso   1.00
C972   C     0.56375   0.70681   0.97954   0.00000  Uiso   1.00
H973   H     0.93331   0.74157   0.40250   0.00000  Uiso   1.00
H974   H     0.80612   0.96358   0.09786   0.00000  Uiso   1.00
H975   H     0.94687   0.79067   0.90194   0.00000  Uiso   1.00
H976   H     0.55312   0.70933   0.09806   0.00000  Uiso   1.00
H977   H     0.80620   0.96367   0.90216   0.00000  Uiso   1.00
H978   H     0.69379   0.53633   0.09784   0.00000  Uiso   1.00
H979   H     0.55297   0.70912   0.90194   0.00000  Uiso   1.00
H980   H     0.94703   0.79088   0.09806   0.00000  Uiso   1.00
H981   H     0.63429   0.78899   0.46731   0.00000  Uiso   1.00
H982   H     0.66569   0.72276   0.46357   0.00000  Uiso   1.00
H983   H     0.64549   0.73019   0.41526   0.00000  Uiso   1.00
H984   H     0.56669   0.75842   0.59750   0.00000  Uiso   1.00
H985   H     0.61645   0.69852   0.44941   0.00000  Uiso   1.00
H986   H     0.86570   0.71101   0.53269   0.00000  Uiso   1.00
H987   H     0.83431   0.77725   0.53642   0.00000  Uiso   1.00
H988   H     0.88355   0.80148   0.55059   0.00000  Uiso   1.00
H989   H     0.85450   0.76981   0.58474   0.00000  Uiso   1.00
H990   H     0.77196   0.86118   0.46973   0.00000  Uiso   1.00
H991   H     0.69327   0.85971   0.47559   0.00000  Uiso   1.00
H992   H     0.71424   0.83938   0.43075   0.00000  Uiso   1.00
H993   H     0.69300   0.89177   0.43220   0.00000  Uiso   1.00
H994   H     0.72806   0.63883   0.53026   0.00000  Uiso   1.00
H995   H     0.74702   0.56709   0.40249   0.00000  Uiso   1.00
H996   H     0.80675   0.64026   0.52441   0.00000  Uiso   1.00
H997   H     0.80701   0.60820   0.56780   0.00000  Uiso   1.00
H998   H     0.78579   0.66060   0.56925   0.00000  Uiso   1.00
H999   H     0.86145   0.72164   0.46983   0.00000  Uiso   1.00
H1000  H     0.85979   0.80068   0.47376   0.00000  Uiso   1.00
H1001  H     0.83929   0.77787   0.42973   0.00000  Uiso   1.00
H1002  H     0.89154   0.79977   0.43031   0.00000  Uiso   1.00
H1003  H     0.63855   0.77837   0.53017   0.00000  Uiso   1.00
H1004  H     0.64022   0.69932   0.52623   0.00000  Uiso   1.00
H1005  H     0.60847   0.70023   0.56969   0.00000  Uiso   1.00
H1006  H     0.75297   0.93291   0.59751   0.00000  Uiso   1.00
H1007  H     0.66071   0.72214   0.57027   0.00000  Uiso   1.00
H1008  H     0.75984   0.64034   0.46958   0.00000  Uiso   1.00
H1009  H     0.68155   0.63496   0.47492   0.00000  Uiso   1.00
H1010  H     0.68402   0.60190   0.43224   0.00000  Uiso   1.00
H1011  H     0.70083   0.65589   0.42957   0.00000  Uiso   1.00
H1012  H     0.74017   0.85965   0.53042   0.00000  Uiso   1.00
H1013  H     0.81846   0.86506   0.52509   0.00000  Uiso   1.00
H1014  H     0.79919   0.84412   0.57043   0.00000  Uiso   1.00
H1015  H     0.81598   0.89812   0.56776   0.00000  Uiso   1.00
H1016  H     0.86930   0.92378   0.96913   0.00000  Uiso   1.00
H1017  H     0.56663   0.75898   0.40248   0.00000  Uiso   1.00
H1018  H     0.81748   0.86498   0.96645   0.00000  Uiso   1.00
H1019  H     0.84385   0.87506   0.92095   0.00000  Uiso   1.00
H1020  H     0.79123   0.89365   0.92845   0.00000  Uiso   1.00
H1021  H     0.63070   0.57622   0.03087   0.00000  Uiso   1.00
H1022  H     0.68252   0.63502   0.03355   0.00000  Uiso   1.00
H1023  H     0.70876   0.60635   0.07155   0.00000  Uiso   1.00
H1024  H     0.65615   0.62494   0.07905   0.00000  Uiso   1.00
H1025  H     0.60590   0.65741   0.96819   0.00000  Uiso   1.00
H1026  H     0.65890   0.70860   0.96084   0.00000  Uiso   1.00
H1027  H     0.62100   0.74718   0.94503   0.00000  Uiso   1.00
H1028  H     0.93337   0.74102   0.59752   0.00000  Uiso   1.00
H1029  H     0.63613   0.70503   0.91311   0.00000  Uiso   1.00
H1030  H     0.89410   0.84259   0.03181   0.00000  Uiso   1.00
H1031  H     0.84110   0.79140   0.03916   0.00000  Uiso   1.00
H1032  H     0.86387   0.79497   0.08689   0.00000  Uiso   1.00
H1033  H     0.87900   0.75282   0.05497   0.00000  Uiso   1.00
H1034  H     0.63114   0.57693   0.96896   0.00000  Uiso   1.00
H1035  H     0.68412   0.63488   0.96708   0.00000  Uiso   1.00
H1036  H     0.65720   0.62616   0.92162   0.00000  Uiso   1.00
H1037  H     0.70949   0.60646   0.92844   0.00000  Uiso   1.00
H1038  H     0.86886   0.92307   0.03104   0.00000  Uiso   1.00
H1039  H     0.75249   0.93282   0.40254   0.00000  Uiso   1.00
H1040  H     0.81588   0.86512   0.03292   0.00000  Uiso   1.00
H1041  H     0.79051   0.89354   0.07156   0.00000  Uiso   1.00
H1042  H     0.84280   0.87384   0.07838   0.00000  Uiso   1.00
H1043  H     0.89091   0.83897   0.96922   0.00000  Uiso   1.00
H1044  H     0.85261   0.76994   0.97358   0.00000  Uiso   1.00
H1045  H     0.88252   0.75469   0.93129   0.00000  Uiso   1.00
H1046  H     0.84616   0.79768   0.92836   0.00000  Uiso   1.00
H1047  H     0.60909   0.66103   0.03078   0.00000  Uiso   1.00
H1048  H     0.64739   0.73006   0.02642   0.00000  Uiso   1.00
H1049  H     0.65384   0.70232   0.07164   0.00000  Uiso   1.00
H1050  H     0.74751   0.56718   0.59746   0.00000  Uiso   1.00
H1051  H     0.61748   0.74531   0.06871   0.00000  Uiso   1.00
H1052  H     0.69388   0.53642   0.90214   0.00000  Uiso   1.00
N1053  N     0.61500   0.76471   0.45852   0.00000  Uiso   1.00
N1054  N     0.66058   0.57310   0.04191   0.00000  Uiso   1.00
N1055  N     0.59648   0.68648   0.95852   0.00000  Uiso   1.00
N1056  N     0.90352   0.81352   0.04148   0.00000  Uiso   1.00
N1057  N     0.66102   0.57354   0.95800   0.00000  Uiso   1.00
N1058  N     0.83898   0.92646   0.04200   0.00000  Uiso   1.00
N1059  N     0.90209   0.81106   0.95837   0.00000  Uiso   1.00
N1060  N     0.59791   0.68894   0.04163   0.00000  Uiso   1.00
N1061  N     0.88500   0.73529   0.54148   0.00000  Uiso   1.00
N1062  N     0.75235   0.88399   0.45872   0.00000  Uiso   1.00
N1063  N     0.74766   0.61601   0.54128   0.00000  Uiso   1.00
N1064  N     0.88423   0.74127   0.45868   0.00000  Uiso   1.00
N1065  N     0.61577   0.75873   0.54132   0.00000  Uiso   1.00
N1066  N     0.74247   0.61571   0.45855   0.00000  Uiso   1.00
N1067  N     0.75754   0.88429   0.54145   0.00000  Uiso   1.00
N1068  N     0.83942   0.92690   0.95809   0.00000  Uiso   1.00
O1069  O     0.75000   0.50000   0.25000   0.00000  Uiso   1.00
O1070  O     0.75000   0.96538   0.66251   0.00000  Uiso   1.00
O1071  O     0.96538   0.75000   0.33749   0.00000  Uiso   1.00
O1072  O     0.53461   0.75000   0.66251   0.00000  Uiso   1.00
O1073  O     0.50000   0.71539   0.83749   0.00000  Uiso   1.00
O1074  O     0.50000   0.78462   0.16251   0.00000  Uiso   1.00
O1075  O     0.78461   0.50000   0.83749   0.00000  Uiso   1.00
O1076  O     0.71538   0.50000   0.16251   0.00000  Uiso   1.00
O1077  O     0.50000   0.78462   0.83749   0.00000  Uiso   1.00
O1078  O     0.50000   0.71538   0.16251   0.00000  Uiso   1.00
O1079  O     0.71538   0.50000   0.83749   0.00000  Uiso   1.00
O1080  O     0.75000   0.50000   0.75000   0.00000  Uiso   1.00
O1081  O     0.78461   0.50000   0.16251   0.00000  Uiso   1.00
O1082  O     0.70126   0.58332   0.27298   0.00000  Uiso   1.00
O1083  O     0.79873   0.91668   0.72702   0.00000  Uiso   1.00
O1084  O     0.91668   0.70127   0.27298   0.00000  Uiso   1.00
O1085  O     0.58332   0.79873   0.72702   0.00000  Uiso   1.00
O1086  O     0.79873   0.91668   0.27298   0.00000  Uiso   1.00
O1087  O     0.70126   0.58332   0.72702   0.00000  Uiso   1.00
O1088  O     0.58332   0.79873   0.27298   0.00000  Uiso   1.00
O1089  O     0.91668   0.70127   0.72702   0.00000  Uiso   1.00
O1090  O     0.70126   0.91668   0.72702   0.00000  Uiso   1.00
O1091  O     0.50000   0.75000   0.25000   0.00000  Uiso   1.00
O1092  O     0.79873   0.58332   0.27298   0.00000  Uiso   1.00
O1093  O     0.91668   0.79874   0.72702   0.00000  Uiso   1.00
O1094  O     0.58332   0.70126   0.27298   0.00000  Uiso   1.00
O1095  O     0.79873   0.58332   0.72702   0.00000  Uiso   1.00
O1096  O     0.70126   0.91668   0.27298   0.00000  Uiso   1.00
O1097  O     0.58332   0.70126   0.72702   0.00000  Uiso   1.00
O1098  O     0.91668   0.79874   0.27298   0.00000  Uiso   1.00
O1099  O     0.95126   0.83332   0.77298   0.00000  Uiso   1.00
O1100  O     0.54873   0.66668   0.22702   0.00000  Uiso   1.00
O1101  O     0.66668   0.95126   0.77298   0.00000  Uiso   1.00
O1102  O     0.50000   0.75000   0.75000   0.00000  Uiso   1.00
O1103  O     0.83332   0.54874   0.22702   0.00000  Uiso   1.00
O1104  O     0.54873   0.66668   0.77298   0.00000  Uiso   1.00
O1105  O     0.95126   0.83332   0.22702   0.00000  Uiso   1.00
O1106  O     0.83332   0.54874   0.77298   0.00000  Uiso   1.00
O1107  O     0.66668   0.95126   0.22702   0.00000  Uiso   1.00
O1108  O     0.95126   0.66668   0.22702   0.00000  Uiso   1.00
O1109  O     0.54873   0.83332   0.77298   0.00000  Uiso   1.00
O1110  O     0.66668   0.54874   0.22702   0.00000  Uiso   1.00
O1111  O     0.83332   0.95126   0.77298   0.00000  Uiso   1.00
O1112  O     0.54873   0.83332   0.22702   0.00000  Uiso   1.00
O1113  O     0.75000   0.96538   0.33749   0.00000  Uiso   1.00
O1114  O     0.95126   0.66668   0.77298   0.00000  Uiso   1.00
O1115  O     0.83332   0.95126   0.22702   0.00000  Uiso   1.00
O1116  O     0.66668   0.54874   0.77298   0.00000  Uiso   1.00
O1117  O     0.75000   0.53462   0.66251   0.00000  Uiso   1.00
O1118  O     0.53461   0.75000   0.33749   0.00000  Uiso   1.00
O1119  O     0.96538   0.75000   0.66251   0.00000  Uiso   1.00
O1120  O     0.75000   0.53462   0.33749   0.00000  Uiso   1.00
Zn1121 Zn    0.70052   0.50000   0.21730   0.00000  Uiso   1.00
Zn1122 Zn    0.54947   0.75000   0.28270   0.00000  Uiso   1.00
Zn1123 Zn    0.75000   0.95052   0.71730   0.00000  Uiso   1.00
Zn1124 Zn    0.75000   0.54948   0.28270   0.00000  Uiso   1.00
Zn1125 Zn    0.54947   0.75000   0.71730   0.00000  Uiso   1.00
Zn1126 Zn    0.95052   0.75000   0.28270   0.00000  Uiso   1.00
Zn1127 Zn    0.75000   0.54948   0.71730   0.00000  Uiso   1.00
Zn1128 Zn    0.75000   0.95052   0.28270   0.00000  Uiso   1.00
Zn1129 Zn    0.79947   0.50000   0.78270   0.00000  Uiso   1.00
Zn1130 Zn    0.50000   0.70053   0.21730   0.00000  Uiso   1.00
Zn1131 Zn    0.50000   0.79947   0.78270   0.00000  Uiso   1.00
Zn1132 Zn    0.79947   0.50000   0.21730   0.00000  Uiso   1.00
Zn1133 Zn    0.70052   0.50000   0.78270   0.00000  Uiso   1.00
Zn1134 Zn    0.50000   0.79948   0.21730   0.00000  Uiso   1.00
Zn1135 Zn    0.50000   0.70052   0.78270   0.00000  Uiso   1.00
Zn1136 Zn    0.95052   0.75000   0.71730   0.00000  Uiso   1.00
loop_
_geom_bond_atom_site_label_1
_geom_bond_atom_site_label_2
_geom_bond_distance
_geom_bond_site_symmetry_2
_ccdc_geom_bond_type
C1     O261    1.273   .     A
C1     C76     1.464   .     S
C1     O836    1.273   .     S
C2     O259    1.276   .     A
C2     O231    1.276   .     A
C2     C52     1.425   .     S
C3     N204    1.425   .     S
C3     C95     1.412   .     A
C3     C6      1.414   1_554 S
C4     N205    1.428   .     S
C4     C96     1.414   .     A
C4     C119    1.417   1_556 S
C5     N206    1.428   .     S
C5     C97     1.414   .     A
C5     C118    1.417   1_554 S
C6     C98     1.412   .     A
C6     N207    1.425   .     S
C6     C3      1.414   1_556 S
C7     C100    1.412   .     A
C7     N208    1.425   .     S
C7     C120    1.414   1_554 S
C8     N201    1.448   .     S
C8     H131    1.109   .     S
C8     H133    1.113   .     S
C8     H130    1.110   .     S
C9     H137    1.109   .     S
C9     N209    1.448   .     S
C9     H135    1.110   .     S
C9     H136    1.113   .     S
C10    H140    1.110   .     S
C10    N210    1.448   .     S
C10    H141    1.111   .     S
C10    H139    1.111   .     S
C11    N211    1.448   .     S
C11    H144    1.111   .     S
C11    H145    1.111   .     S
C11    H146    1.110   .     S
C12    N212    1.448   .     S
C12    H150    1.110   .     S
C12    H149    1.110   .     S
C12    H148    1.110   .     S
C13    C51     1.421   .     S
C13    O256    1.276   .     A
C13    O232    1.276   .     A
C14    H155    1.110   .     S
C14    N213    1.448   .     S
C14    H153    1.111   .     S
C14    H152    1.110   .     S
C15    N214    1.447   .     S
C15    H158    1.111   .     S
C15    H159    1.110   .     S
C15    H157    1.111   .     S
C16    H163    1.111   .     S
C16    H162    1.110   .     S
C16    N215    1.447   .     S
C16    H161    1.111   .     S
C17    H166    1.108   .     S
C17    N216    1.448   .     S
C17    H168    1.110   .     S
C17    H167    1.110   .     S
C18    H171    1.110   .     S
C18    H170    1.108   .     S
C18    H172    1.109   .     S
C18    N202    1.448   .     S
C19    H177    1.109   .     S
C19    H175    1.113   .     S
C19    N203    1.449   .     S
C19    H174    1.110   .     S
C20    H180    1.109   .     S
C20    H179    1.110   .     S
C20    N204    1.449   .     S
C20    H181    1.113   .     S
C21    H184    1.109   .     S
C21    N205    1.448   .     S
C21    H185    1.110   .     S
C21    H183    1.107   .     S
C22    N206    1.448   .     S
C22    H190    1.109   .     S
C22    H189    1.110   .     S
C22    H188    1.107   .     S
C23    H192    1.109   .     S
C23    H193    1.111   .     S
C23    N207    1.448   .     S
C23    H194    1.109   .     S
C24    O233    1.276   .     A
C24    C50     1.421   .     S
C24    O257    1.276   .     A
C25    N208    1.448   .     S
C25    H199    1.111   .     S
C25    H196    1.109   .     S
C25    H197    1.109   .     S
C26    O234    1.276   .     A
C26    C49     1.425   .     S
C26    O263    1.276   .     A
C27    C48     1.425   .     S
C27    O235    1.276   .     A
C27    O264    1.276   .     A
C28    C56     1.421   .     S
C28    O260    1.276   .     A
C28    O236    1.276   .     A
C29    O237    1.276   .     A
C29    O262    1.276   .     A
C29    C54     1.421   .     S
C30    C45     1.421   .     S
C30    O238    1.276   .     A
C30    O249    1.276   .     A
C31    C43     1.421   .     S
C31    O240    1.276   .     A
C31    O251    1.276   .     A
C32    O241    1.276   .     A
C32    O247    1.276   .     A
C32    C42     1.425   .     S
C33    C78     1.464   .     S
C33    O265    1.273   .     A
C33    O786    1.273   1_545 S
C34    O242    1.276   .     A
C34    O248    1.276   .     A
C34    C41     1.425   .     S
C35    O243    1.276   .     A
C35    O254    1.276   .     A
C35    C40     1.421   .     S
C36    O255    1.276   .     A
C36    O244    1.276   .     A
C36    C39     1.421   .     S
C37    O245    1.276   .     A
C37    C47     1.425   .     S
C37    O252    1.276   .     A
C38    O246    1.276   .     A
C38    C46     1.425   .     S
C38    O253    1.276   .     A
C39    C56     1.198   .     T
C40    C54     1.198   .     T
C41    C53     1.200   .     T
C42    C52     1.200   .     T
C43    C51     1.198   .     T
C44    O503    1.273   1_455 A
C44    C358    1.463   1_455 S
C44    O266    1.273   .     S
C45    C50     1.198   .     T
C46    C49     1.200   .     T
C47    C48     1.200   .     T
C53    C110    1.425   .     S
C55    O220    1.273   .     A
C55    C75     1.463   .     S
C55    O551    1.273   1_455 S
C57    C87     1.400   .     A
C57    C74     1.396   .     A
C57    H121    1.083   .     S
C58    C75     1.396   .     A
C58    H132    1.083   .     S
C58    C89     1.400   .     A
C59    H143    1.083   .     S
C59    C90     1.400   .     A
C59    C644    1.396   1_545 S
C60    H154    1.083   .     S
C60    C91     1.400   .     A
C60    C646    1.396   .     S
C61    C83     1.400   .     A
C61    H165    1.083   .     S
C61    C358    1.396   1_455 S
C62    H176    1.082   .     S
C62    C84     1.400   .     A
C62    C359    1.396   .     S
C63    C76     1.397   .     A
C63    C85     1.400   .     A
C63    H187    1.083   .     S
C64    H198    1.083   .     S
C64    C86     1.400   .     A
C64    C78     1.397   .     A
C65    C79     1.394   .     A
C65    C96     1.404   .     A
C65    H200    1.083   .     S
C66    C365    1.460   1_455 S
C66    O221    1.272   .     S
C66    O225    1.272   .     S
C67    C97     1.404   .     A
C67    H122    1.083   .     S
C67    C80     1.394   .     A
C68    C81     1.394   .     A
C68    H123    1.084   .     S
C68    C98     1.405   .     A
C69    C82     1.394   .     A
C69    H124    1.084   .     S
C69    C100    1.405   .     A
C70    H125    1.083   .     S
C70    C92     1.404   .     A
C70    C647    1.394   .     S
C71    H126    1.083   .     S
C71    C93     1.404   .     A
C71    C648    1.394   1_545 S
C72    H127    1.083   .     S
C72    C94     1.405   .     A
C72    C365    1.394   1_455 S
C73    C95     1.405   .     A
C73    H128    1.083   .     S
C73    C366    1.394   .     S
C74    C328    1.463   .     S
C74    C345    1.396   .     S
C75    C346    1.396   1_455 S
C76    C627    1.396   .     S
C77    O222    1.272   .     A
C77    C82     1.460   .     S
C77    O226    1.272   .     S
C78    C628    1.396   1_545 S
C79    C638    1.394   1_545 S
C79    C88     1.462   .     S
C80    C639    1.394   .     S
C80    C667    1.462   .     S
C81    C356    1.394   .     S
C81    C350    1.460   .     S
C82    C357    1.394   1_455 S
C83    C109    1.413   .     A
C83    C385    1.417   1_455 S
C84    C111    1.413   .     A
C84    C386    1.417   .     S
C85    C103    1.417   .     A
C85    C112    1.414   .     A
C86    C104    1.417   .     A
C86    C113    1.413   .     A
C87    C114    1.414   .     A
C87    C101    1.417   .     A
C88    O223    1.272   .     S
C88    O227    1.273   .     S
C89    C115    1.414   .     A
C89    C102    1.417   .     A
C90    C116    1.413   .     A
C90    C671    1.417   1_545 S
C91    C117    1.413   .     A
C91    C672    1.417   .     S
C92    C118    1.414   .     A
C92    C673    1.416   .     S
C93    C119    1.414   .     A
C93    C106    1.416   .     S
C94    C120    1.412   .     A
C94    C391    1.416   1_455 S
C95    C392    1.416   .     S
C96    C105    1.416   .     A
C97    C674    1.416   .     A
C98    C107    1.416   .     A
C99    C648    1.462   1_545 S
C99    O224    1.272   .     S
C99    O229    1.273   .     S
C100   C108    1.416   .     A
C101   C367    1.417   .     S
C101   C386    1.402   .     S
C102   C368    1.417   1_455 S
C102   C385    1.402   1_455 S
C103   C658    1.417   .     S
C103   C672    1.402   .     S
C104   C659    1.417   1_545 S
C104   C671    1.402   1_545 S
C105   C660    1.416   1_545 S
C105   C106    1.403   1_556 S
C106   C665    1.416   1_545 A
C106   C105    1.403   1_554 S
C107   C378    1.416   .     S
C107   C392    1.407   1_556 S
C108   C379    1.416   1_455 S
C108   C391    1.407   1_454 S
C109   N201    1.427   .     S
C109   C115    1.411   .     A
C110   O258    1.276   .     A
C110   O230    1.276   .     A
C111   N209    1.427   .     S
C111   C114    1.411   .     A
C112   C117    1.411   .     A
C112   N210    1.428   .     S
C113   C116    1.411   .     A
C113   N211    1.428   .     S
C114   N212    1.428   .     S
C115   N213    1.428   .     S
C116   N214    1.427   .     S
C117   N215    1.427   .     S
C118   N216    1.428   .     S
C118   C5      1.417   1_556 S
C119   N202    1.428   .     S
C119   C4      1.417   1_554 S
C120   N203    1.425   .     S
C120   C7      1.414   1_556 S
H129   N201    1.030   .     S
H134   N209    1.030   .     S
H138   N210    1.030   .     S
H142   N211    1.030   .     S
H147   N212    1.029   .     S
H151   N213    1.029   .     S
H156   N214    1.030   .     S
H160   N215    1.030   .     S
H164   N216    1.029   .     S
H169   N202    1.029   .     S
H173   N203    1.029   .     S
H178   N204    1.029   .     S
H182   N205    1.029   .     S
H186   N206    1.029   .     S
H191   N207    1.028   .     S
H195   N208    1.028   .     S
O217   Zn844   1.936   1_545 S
O217   Zn269   1.936   .     S
O217   Zn272   1.936   .     S
O217   Zn280   1.936   .     S
O218   Zn271   1.948   .     S
O218   C601    1.273   .     S
O219   C328    1.273   .     A
O219   Zn274   1.948   .     S
O220   Zn273   1.948   .     S
O221   Zn283   1.948   .     S
O222   Zn282   1.948   .     S
O223   Zn277   1.948   .     S
O224   Zn269   1.948   .     S
O225   Zn279   1.948   .     S
O226   Zn278   1.948   .     S
O227   Zn281   1.948   .     S
O228   Zn839   1.936   1_545 S
O228   Zn275   1.936   .     S
O228   Zn277   1.936   .     S
O228   Zn281   1.936   .     S
O229   Zn280   1.948   .     S
O230   Zn272   1.919   .     S
O231   Zn271   1.919   .     S
O232   Zn274   1.914   .     S
O233   Zn273   1.914   .     S
O234   Zn276   1.919   .     S
O235   Zn275   1.919   .     S
O236   Zn270   1.914   .     S
O237   Zn284   1.914   .     S
O238   Zn271   1.914   .     S
O239   Zn270   1.936   .     S
O239   Zn558   1.936   1_455 S
O239   Zn278   1.936   .     S
O239   Zn282   1.936   .     S
O240   Zn272   1.914   .     S
O241   Zn284   1.919   .     S
O242   Zn270   1.919   .     S
O243   Zn275   1.914   .     S
O244   Zn276   1.914   .     S
O245   Zn273   1.919   .     S
O246   Zn274   1.919   .     S
O247   Zn563   1.919   .     S
O248   Zn278   1.919   .     S
O249   Zn849   1.914   .     S
O250   Zn568   1.936   1_455 S
O250   Zn273   1.936   .     S
O250   Zn279   1.936   .     S
O250   Zn283   1.936   .     S
O251   Zn280   1.914   .     S
O252   Zn283   1.919   .     S
O253   Zn566   1.919   .     S
O254   Zn277   1.914   .     S
O255   Zn837   1.914   .     S
O256   Zn562   1.914   .     S
O257   Zn279   1.914   .     S
O258   Zn269   1.919   .     S
O259   Zn845   1.919   .     S
O260   Zn282   1.914   .     S
O261   Zn276   1.948   .     S
O262   Zn567   1.914   .     S
O263   Zn848   1.919   .     S
O264   Zn281   1.919   .     S
O265   Zn275   1.948   .     S
O266   Zn270   1.948   .     S
O267   Zn284   1.948   .     S
O267   C339    1.273   .     S
O268   Zn272   1.948   .     S
O268   C569    1.273   1_545 S
Zn269  O823    1.914   1_545 S
Zn271  O796    1.936   .     S
Zn274  O523    1.936   .     S
Zn276  O785    1.936   .     S
Zn277  O827    1.919   1_545 S
Zn278  O540    1.914   1_455 S
Zn279  O531    1.919   1_455 S
Zn280  O831    1.919   1_545 S
Zn281  O817    1.914   1_545 S
Zn282  O537    1.919   1_455 S
Zn283  O546    1.914   1_455 S
Zn284  O534    1.936   .     S
C285   O545    1.273   .     A
C285   C360    1.464   .     S
C285   O1120   1.273   .     S
C286   O543    1.276   .     A
C286   O515    1.276   .     A
C286   C336    1.425   .     S
C287   N488    1.425   .     S
C287   C379    1.412   .     A
C287   C290    1.414   1_554 S
C288   N489    1.428   .     S
C288   C380    1.414   .     A
C288   C403    1.417   1_556 S
C289   N490    1.428   .     S
C289   C381    1.414   .     A
C289   C402    1.417   1_554 S
C290   C382    1.412   .     A
C290   N491    1.425   .     S
C290   C287    1.414   1_556 S
C291   C384    1.412   .     A
C291   N492    1.425   .     S
C291   C404    1.414   1_554 S
C292   N485    1.448   .     S
C292   H415    1.109   .     S
C292   H417    1.113   .     S
C292   H414    1.110   .     S
C293   H421    1.109   .     S
C293   N493    1.448   .     S
C293   H419    1.110   .     S
C293   H420    1.113   .     S
C294   H424    1.110   .     S
C294   N494    1.448   .     S
C294   H425    1.111   .     S
C294   H423    1.111   .     S
C295   N495    1.448   .     S
C295   H428    1.111   .     S
C295   H429    1.111   .     S
C295   H430    1.110   .     S
C296   N496    1.448   .     S
C296   H434    1.110   .     S
C296   H433    1.110   .     S
C296   H432    1.110   .     S
C297   C335    1.421   .     S
C297   O540    1.276   .     A
C297   O516    1.276   .     A
C298   H439    1.110   .     S
C298   N497    1.448   .     S
C298   H437    1.111   .     S
C298   H436    1.110   .     S
C299   N498    1.447   .     S
C299   H442    1.111   .     S
C299   H443    1.110   .     S
C299   H441    1.111   .     S
C300   H447    1.111   .     S
C300   H446    1.110   .     S
C300   N499    1.447   .     S
C300   H445    1.111   .     S
C301   H450    1.108   .     S
C301   N500    1.448   .     S
C301   H452    1.110   .     S
C301   H451    1.110   .     S
C302   H455    1.110   .     S
C302   H454    1.108   .     S
C302   H456    1.109   .     S
C302   N486    1.448   .     S
C303   H461    1.109   .     S
C303   H459    1.113   .     S
C303   N487    1.449   .     S
C303   H458    1.110   .     S
C304   H464    1.109   .     S
C304   H463    1.110   .     S
C304   N488    1.449   .     S
C304   H465    1.113   .     S
C305   H468    1.109   .     S
C305   N489    1.448   .     S
C305   H469    1.110   .     S
C305   H467    1.107   .     S
C306   N490    1.448   .     S
C306   H474    1.109   .     S
C306   H473    1.110   .     S
C306   H472    1.107   .     S
C307   H476    1.109   .     S
C307   H477    1.111   .     S
C307   N491    1.448   .     S
C307   H478    1.109   .     S
C308   O517    1.276   .     A
C308   C334    1.421   .     S
C308   O541    1.276   .     A
C309   N492    1.448   .     S
C309   H483    1.111   .     S
C309   H480    1.109   .     S
C309   H481    1.109   .     S
C310   O518    1.276   .     A
C310   C333    1.425   .     S
C310   O547    1.276   .     A
C311   C332    1.425   .     S
C311   O519    1.276   .     A
C311   O548    1.276   .     A
C312   C340    1.421   .     S
C312   O544    1.276   .     A
C312   O520    1.276   .     A
C313   O521    1.276   .     A
C313   O546    1.276   .     A
C313   C338    1.421   .     S
C314   C329    1.421   .     S
C314   O522    1.276   .     A
C314   O533    1.276   .     A
C315   C327    1.421   .     S
C315   O524    1.276   .     A
C315   O535    1.276   .     A
C316   O525    1.276   .     A
C316   O531    1.276   .     A
C316   C326    1.425   .     S
C317   C362    1.464   .     S
C317   O549    1.273   .     A
C317   O1070   1.273   1_545 S
C318   O526    1.276   .     A
C318   O532    1.276   .     A
C318   C325    1.425   .     S
C319   O527    1.276   .     A
C319   O538    1.276   .     A
C319   C324    1.421   .     S
C320   O539    1.276   .     A
C320   O528    1.276   .     A
C320   C323    1.421   .     S
C321   O529    1.276   .     A
C321   C331    1.425   .     S
C321   O536    1.276   .     A
C322   O530    1.276   .     A
C322   C330    1.425   .     S
C322   O537    1.276   .     A
C323   C340    1.198   .     T
C324   C338    1.198   .     T
C325   C337    1.200   .     T
C326   C336    1.200   .     T
C327   C335    1.198   .     T
C328   O550    1.273   .     S
C329   C334    1.198   .     T
C330   C333    1.200   .     T
C331   C332    1.200   .     T
C337   C394    1.425   .     S
C339   O504    1.273   .     A
C339   C359    1.463   .     S
C341   C371    1.400   .     A
C341   C358    1.396   .     A
C341   H405    1.083   .     S
C342   C359    1.396   .     A
C342   H416    1.083   .     S
C342   C373    1.400   .     A
C343   H427    1.083   .     S
C343   C374    1.400   .     A
C343   C928    1.396   1_545 S
C344   H438    1.083   .     S
C344   C375    1.400   .     A
C344   C930    1.396   .     S
C345   C367    1.400   .     A
C345   H449    1.083   .     S
C346   H460    1.082   .     S
C346   C368    1.400   .     A
C346   C75     1.396   1_655 S
C347   C360    1.397   .     A
C347   C369    1.400   .     A
C347   H471    1.083   .     S
C348   H482    1.083   .     S
C348   C370    1.400   .     A
C348   C362    1.397   .     A
C349   C363    1.394   .     A
C349   C380    1.404   .     A
C349   H484    1.083   .     S
C350   O505    1.272   .     S
C350   O509    1.272   .     S
C351   C381    1.404   .     A
C351   H406    1.083   .     S
C351   C364    1.394   .     A
C352   C365    1.394   .     A
C352   H407    1.084   .     S
C352   C382    1.405   .     A
C353   C366    1.394   .     A
C353   H408    1.084   .     S
C353   C384    1.405   .     A
C354   H409    1.083   .     S
C354   C376    1.404   .     A
C354   C931    1.394   .     S
C355   H410    1.083   .     S
C355   C377    1.404   .     A
C355   C932    1.394   1_545 S
C356   H411    1.083   .     S
C356   C378    1.405   .     A
C357   C379    1.405   .     A
C357   H412    1.083   .     S
C357   C82     1.394   1_655 S
C358   C44     1.463   1_655 S
C358   C61     1.396   1_655 S
C360   C911    1.396   .     S
C361   O506    1.272   .     A
C361   C366    1.460   .     S
C361   O510    1.272   .     S
C362   C912    1.396   1_545 S
C363   C922    1.394   1_545 S
C363   C372    1.462   .     S
C364   C923    1.394   .     S
C364   C951    1.462   .     S
C365   C72     1.394   1_655 S
C365   C66     1.460   1_655 S
C367   C393    1.413   .     A
C368   C395    1.413   .     A
C368   C102    1.417   1_655 S
C369   C387    1.417   .     A
C369   C396    1.414   .     A
C370   C388    1.417   .     A
C370   C397    1.413   .     A
C371   C398    1.414   .     A
C371   C385    1.417   .     A
C372   O507    1.272   .     S
C372   O511    1.273   .     S
C373   C399    1.414   .     A
C373   C386    1.417   .     A
C374   C400    1.413   .     A
C374   C955    1.417   1_545 S
C375   C401    1.413   .     A
C375   C956    1.417   .     S
C376   C402    1.414   .     A
C376   C957    1.416   .     S
C377   C403    1.414   .     A
C377   C390    1.416   .     S
C378   C404    1.412   .     A
C379   C108    1.416   1_655 S
C380   C389    1.416   .     A
C381   C958    1.416   .     A
C382   C391    1.416   .     A
C383   C932    1.462   1_545 S
C383   O508    1.272   .     S
C383   O513    1.273   .     S
C384   C392    1.416   .     A
C385   C83     1.417   1_655 S
C385   C102    1.402   1_655 S
C387   C942    1.417   .     S
C387   C956    1.402   .     S
C388   C943    1.417   1_545 S
C388   C955    1.402   1_545 S
C389   C944    1.416   1_545 S
C389   C390    1.403   1_556 S
C390   C949    1.416   1_545 A
C390   C389    1.403   1_554 S
C391   C94     1.416   1_655 S
C391   C108    1.407   1_656 S
C392   C107    1.407   1_554 S
C393   N485    1.427   .     S
C393   C399    1.411   .     A
C394   O542    1.276   .     A
C394   O514    1.276   .     A
C395   N493    1.427   .     S
C395   C398    1.411   .     A
C396   C401    1.411   .     A
C396   N494    1.428   .     S
C397   C400    1.411   .     A
C397   N495    1.428   .     S
C398   N496    1.428   .     S
C399   N497    1.428   .     S
C400   N498    1.427   .     S
C401   N499    1.427   .     S
C402   N500    1.428   .     S
C402   C289    1.417   1_556 S
C403   N486    1.428   .     S
C403   C288    1.417   1_554 S
C404   N487    1.425   .     S
C404   C291    1.414   1_556 S
H413   N485    1.030   .     S
H418   N493    1.030   .     S
H422   N494    1.030   .     S
H426   N495    1.030   .     S
H431   N496    1.029   .     S
H435   N497    1.029   .     S
H440   N498    1.030   .     S
H444   N499    1.030   .     S
H448   N500    1.029   .     S
H453   N486    1.029   .     S
H457   N487    1.029   .     S
H462   N488    1.029   .     S
H466   N489    1.029   .     S
H470   N490    1.029   .     S
H475   N491    1.028   .     S
H479   N492    1.028   .     S
O501   Zn1128  1.936   1_545 S
O501   Zn553   1.936   .     S
O501   Zn556   1.936   .     S
O501   Zn564   1.936   .     S
O502   Zn555   1.948   .     S
O502   C885    1.273   .     S
O503   C44     1.273   1_655 A
O503   Zn558   1.948   .     S
O504   Zn557   1.948   .     S
O505   Zn567   1.948   .     S
O506   Zn566   1.948   .     S
O507   Zn561   1.948   .     S
O508   Zn553   1.948   .     S
O509   Zn563   1.948   .     S
O510   Zn562   1.948   .     S
O511   Zn565   1.948   .     S
O512   Zn1123  1.936   1_545 S
O512   Zn559   1.936   .     S
O512   Zn561   1.936   .     S
O512   Zn565   1.936   .     S
O513   Zn564   1.948   .     S
O514   Zn556   1.919   .     S
O515   Zn555   1.919   .     S
O516   Zn558   1.914   .     S
O517   Zn557   1.914   .     S
O518   Zn560   1.919   .     S
O519   Zn559   1.919   .     S
O520   Zn554   1.914   .     S
O521   Zn568   1.914   .     S
O522   Zn555   1.914   .     S
O523   Zn554   1.936   .     S
O523   Zn562   1.936   .     S
O523   Zn566   1.936   .     S
O524   Zn556   1.914   .     S
O525   Zn568   1.919   .     S
O526   Zn554   1.919   .     S
O527   Zn559   1.914   .     S
O528   Zn560   1.914   .     S
O529   Zn557   1.919   .     S
O530   Zn558   1.919   .     S
O531   Zn279   1.919   1_655 S
O532   Zn562   1.919   .     S
O533   Zn1133  1.914   .     S
O534   Zn557   1.936   .     S
O534   Zn563   1.936   .     S
O534   Zn567   1.936   .     S
O535   Zn564   1.914   .     S
O536   Zn567   1.919   .     S
O537   Zn282   1.919   1_655 S
O538   Zn561   1.914   .     S
O539   Zn1121  1.914   .     S
O540   Zn278   1.914   1_655 S
O541   Zn563   1.914   .     S
O542   Zn553   1.919   .     S
O543   Zn1129  1.919   .     S
O544   Zn566   1.914   .     S
O545   Zn560   1.948   .     S
O546   Zn283   1.914   1_655 S
O547   Zn1132  1.919   .     S
O548   Zn565   1.919   .     S
O549   Zn559   1.948   .     S
O550   Zn554   1.948   .     S
O551   Zn568   1.948   .     S
O551   C55     1.273   1_655 S
O552   Zn556   1.948   .     S
O552   C853    1.273   1_545 S
Zn553  O1107   1.914   1_545 S
Zn555  O1080   1.936   .     S
Zn558  O239    1.936   1_655 S
Zn560  O1069   1.936   .     S
Zn561  O1111   1.919   1_545 S
Zn564  O1115   1.919   1_545 S
Zn565  O1101   1.914   1_545 S
Zn568  O250    1.936   1_655 S
C569   O829    1.273   .     A
C569   C644    1.464   .     S
C569   O268    1.273   1_565 S
C570   O827    1.276   .     A
C570   O799    1.276   .     A
C570   C620    1.425   .     S
C571   N772    1.425   .     S
C571   C663    1.412   .     A
C571   C574    1.414   1_554 S
C572   N773    1.428   .     S
C572   C664    1.414   .     A
C572   C687    1.417   1_556 S
C573   N774    1.428   .     S
C573   C665    1.414   .     A
C573   C686    1.417   1_554 S
C574   C666    1.412   .     A
C574   N775    1.425   .     S
C574   C571    1.414   1_556 S
C575   C668    1.412   .     A
C575   N776    1.425   .     S
C575   C688    1.414   1_554 S
C576   N769    1.448   .     S
C576   H699    1.109   .     S
C576   H701    1.113   .     S
C576   H698    1.110   .     S
C577   H705    1.109   .     S
C577   N777    1.448   .     S
C577   H703    1.110   .     S
C577   H704    1.113   .     S
C578   H708    1.110   .     S
C578   N778    1.448   .     S
C578   H709    1.111   .     S
C578   H707    1.111   .     S
C579   N779    1.448   .     S
C579   H712    1.111   .     S
C579   H713    1.111   .     S
C579   H714    1.110   .     S
C580   N780    1.448   .     S
C580   H718    1.110   .     S
C580   H717    1.110   .     S
C580   H716    1.110   .     S
C581   C619    1.421   .     S
C581   O824    1.276   .     A
C581   O800    1.276   .     A
C582   H723    1.110   .     S
C582   N781    1.448   .     S
C582   H721    1.111   .     S
C582   H720    1.110   .     S
C583   N782    1.447   .     S
C583   H726    1.111   .     S
C583   H727    1.110   .     S
C583   H725    1.111   .     S
C584   H731    1.111   .     S
C584   H730    1.110   .     S
C584   N783    1.447   .     S
C584   H729    1.111   .     S
C585   H734    1.108   .     S
C585   N784    1.448   .     S
C585   H736    1.110   .     S
C585   H735    1.110   .     S
C586   H739    1.110   .     S
C586   H738    1.108   .     S
C586   H740    1.109   .     S
C586   N770    1.448   .     S
C587   H745    1.109   .     S
C587   H743    1.113   .     S
C587   N771    1.449   .     S
C587   H742    1.110   .     S
C588   H748    1.109   .     S
C588   H747    1.110   .     S
C588   N772    1.449   .     S
C588   H749    1.113   .     S
C589   H752    1.109   .     S
C589   N773    1.448   .     S
C589   H753    1.110   .     S
C589   H751    1.107   .     S
C590   N774    1.448   .     S
C590   H758    1.109   .     S
C590   H757    1.110   .     S
C590   H756    1.107   .     S
C591   H760    1.109   .     S
C591   H761    1.111   .     S
C591   N775    1.448   .     S
C591   H762    1.109   .     S
C592   O801    1.276   .     A
C592   C618    1.421   .     S
C592   O825    1.276   .     A
C593   N776    1.448   .     S
C593   H767    1.111   .     S
C593   H764    1.109   .     S
C593   H765    1.109   .     S
C594   O802    1.276   .     A
C594   C617    1.425   .     S
C594   O831    1.276   .     A
C595   C616    1.425   .     S
C595   O803    1.276   .     A
C595   O832    1.276   .     A
C596   C624    1.421   .     S
C596   O828    1.276   .     A
C596   O804    1.276   .     A
C597   O805    1.276   .     A
C597   O830    1.276   .     A
C597   C622    1.421   .     S
C598   C613    1.421   .     S
C598   O806    1.276   .     A
C598   O817    1.276   .     A
C599   C611    1.421   .     S
C599   O808    1.276   .     A
C599   O819    1.276   .     A
C600   O809    1.276   .     A
C600   O815    1.276   .     A
C600   C610    1.425   .     S
C601   C646    1.464   .     S
C601   O833    1.273   .     A
C602   O810    1.276   .     A
C602   O816    1.276   .     A
C602   C609    1.425   .     S
C603   O811    1.276   .     A
C603   O822    1.276   .     A
C603   C608    1.421   .     S
C604   O823    1.276   .     A
C604   O812    1.276   .     A
C604   C607    1.421   .     S
C605   O813    1.276   .     A
C605   C615    1.425   .     S
C605   O820    1.276   .     A
C606   O814    1.276   .     A
C606   C614    1.425   .     S
C606   O821    1.276   .     A
C607   C624    1.198   .     T
C608   C622    1.198   .     T
C609   C621    1.200   .     T
C610   C620    1.200   .     T
C611   C619    1.198   .     T
C612   O1071   1.273   1_455 A
C612   C926    1.463   1_455 S
C612   O834    1.273   .     S
C613   C618    1.198   .     T
C614   C617    1.200   .     T
C615   C616    1.200   .     T
C621   C678    1.425   .     S
C623   O788    1.273   .     A
C623   C643    1.463   .     S
C623   O1119   1.273   1_455 S
C625   C655    1.400   .     A
C625   C642    1.396   .     A
C625   H689    1.083   .     S
C626   C643    1.396   .     A
C626   H700    1.083   .     S
C626   C657    1.400   .     A
C627   H711    1.083   .     S
C627   C658    1.400   .     A
C628   H722    1.083   .     S
C628   C659    1.400   .     A
C628   C78     1.396   1_565 S
C629   C651    1.400   .     A
C629   H733    1.083   .     S
C629   C926    1.396   1_455 S
C630   H744    1.082   .     S
C630   C652    1.400   .     A
C630   C927    1.396   .     S
C631   C644    1.397   .     A
C631   C653    1.400   .     A
C631   H755    1.083   .     S
C632   H766    1.083   .     S
C632   C654    1.400   .     A
C632   C646    1.397   .     A
C633   C647    1.394   .     A
C633   C664    1.404   .     A
C633   H768    1.083   .     S
C634   C933    1.460   1_455 S
C634   O789    1.272   .     S
C634   O793    1.272   .     S
C635   C665    1.404   .     A
C635   H690    1.083   .     S
C635   C648    1.394   .     A
C636   C649    1.394   .     A
C636   H691    1.084   .     S
C636   C666    1.405   .     A
C637   C650    1.394   .     A
C637   H692    1.084   .     S
C637   C668    1.405   .     A
C638   H693    1.083   .     S
C638   C660    1.404   .     A
C638   C79     1.394   1_565 S
C639   H694    1.083   .     S
C639   C661    1.404   .     A
C640   H695    1.083   .     S
C640   C662    1.405   .     A
C640   C933    1.394   1_455 S
C641   C663    1.405   .     A
C641   H696    1.083   .     S
C641   C934    1.394   .     S
C642   C896    1.463   .     S
C642   C913    1.396   .     S
C643   C914    1.396   1_455 S
C644   C59     1.396   1_565 S
C645   O790    1.272   .     A
C645   C650    1.460   .     S
C645   O794    1.272   .     S
C647   C656    1.462   .     S
C648   C71     1.394   1_565 S
C648   C99     1.462   1_565 S
C649   C924    1.394   .     S
C649   C918    1.460   .     S
C650   C925    1.394   1_455 S
C651   C677    1.413   .     A
C651   C953    1.417   1_455 S
C652   C679    1.413   .     A
C652   C954    1.417   .     S
C653   C671    1.417   .     A
C653   C680    1.414   .     A
C654   C672    1.417   .     A
C654   C681    1.413   .     A
C655   C682    1.414   .     A
C655   C669    1.417   .     A
C656   O791    1.272   .     S
C656   O795    1.273   .     S
C657   C683    1.414   .     A
C657   C670    1.417   .     A
C658   C684    1.413   .     A
C659   C685    1.413   .     A
C659   C104    1.417   1_565 S
C660   C686    1.414   .     A
C660   C105    1.416   1_565 S
C661   C687    1.414   .     A
C661   C674    1.416   .     S
C662   C688    1.412   .     A
C662   C959    1.416   1_455 S
C663   C960    1.416   .     S
C664   C673    1.416   .     A
C665   C106    1.416   1_565 A
C666   C675    1.416   .     A
C667   O792    1.272   .     S
C667   O797    1.273   .     S
C668   C676    1.416   .     A
C669   C935    1.417   .     S
C669   C954    1.402   .     S
C670   C936    1.417   1_455 S
C670   C953    1.402   1_455 S
C671   C90     1.417   1_565 S
C671   C104    1.402   1_565 S
C673   C674    1.403   1_556 S
C674   C673    1.403   1_554 S
C675   C946    1.416   .     S
C675   C960    1.407   1_556 S
C676   C947    1.416   1_455 S
C676   C959    1.407   1_454 S
C677   N769    1.427   .     S
C677   C683    1.411   .     A
C678   O826    1.276   .     A
C678   O798    1.276   .     A
C679   N777    1.427   .     S
C679   C682    1.411   .     A
C680   C685    1.411   .     A
C680   N778    1.428   .     S
C681   C684    1.411   .     A
C681   N779    1.428   .     S
C682   N780    1.428   .     S
C683   N781    1.428   .     S
C684   N782    1.427   .     S
C685   N783    1.427   .     S
C686   N784    1.428   .     S
C686   C573    1.417   1_556 S
C687   N770    1.428   .     S
C687   C572    1.417   1_554 S
C688   N771    1.425   .     S
C688   C575    1.414   1_556 S
H697   N769    1.030   .     S
H702   N777    1.030   .     S
H706   N778    1.030   .     S
H710   N779    1.030   .     S
H715   N780    1.029   .     S
H719   N781    1.029   .     S
H724   N782    1.030   .     S
H728   N783    1.030   .     S
H732   N784    1.029   .     S
H737   N770    1.029   .     S
H741   N771    1.029   .     S
H746   N772    1.029   .     S
H750   N773    1.029   .     S
H754   N774    1.029   .     S
H759   N775    1.028   .     S
H763   N776    1.028   .     S
O785   Zn837   1.936   .     S
O785   Zn840   1.936   .     S
O785   Zn848   1.936   .     S
O786   Zn839   1.948   .     S
O786   C33     1.273   1_565 S
O787   C896    1.273   .     A
O787   Zn842   1.948   .     S
O788   Zn841   1.948   .     S
O789   Zn851   1.948   .     S
O790   Zn850   1.948   .     S
O791   Zn845   1.948   .     S
O792   Zn837   1.948   .     S
O793   Zn847   1.948   .     S
O794   Zn846   1.948   .     S
O795   Zn849   1.948   .     S
O796   Zn843   1.936   .     S
O796   Zn845   1.936   .     S
O796   Zn849   1.936   .     S
O797   Zn848   1.948   .     S
O798   Zn840   1.919   .     S
O799   Zn839   1.919   .     S
O800   Zn842   1.914   .     S
O801   Zn841   1.914   .     S
O802   Zn844   1.919   .     S
O803   Zn843   1.919   .     S
O804   Zn838   1.914   .     S
O805   Zn852   1.914   .     S
O806   Zn839   1.914   .     S
O807   Zn838   1.936   .     S
O807   Zn1126  1.936   1_455 S
O807   Zn846   1.936   .     S
O807   Zn850   1.936   .     S
O808   Zn840   1.914   .     S
O809   Zn852   1.919   .     S
O810   Zn838   1.919   .     S
O811   Zn843   1.914   .     S
O812   Zn844   1.914   .     S
O813   Zn841   1.919   .     S
O814   Zn842   1.919   .     S
O815   Zn1131  1.919   .     S
O816   Zn846   1.919   .     S
O817   Zn281   1.914   1_565 S
O818   Zn1136  1.936   1_455 S
O818   Zn841   1.936   .     S
O818   Zn847   1.936   .     S
O818   Zn851   1.936   .     S
O819   Zn848   1.914   .     S
O820   Zn851   1.919   .     S
O821   Zn1134  1.919   .     S
O822   Zn845   1.914   .     S
O823   Zn269   1.914   1_565 S
O824   Zn1130  1.914   .     S
O825   Zn847   1.914   .     S
O826   Zn837   1.919   .     S
O827   Zn277   1.919   1_565 S
O828   Zn850   1.914   .     S
O829   Zn844   1.948   .     S
O830   Zn1135  1.914   .     S
O831   Zn280   1.919   1_565 S
O832   Zn849   1.919   .     S
O833   Zn843   1.948   .     S
O834   Zn838   1.948   .     S
O835   Zn852   1.948   .     S
O835   C907    1.273   .     S
O836   Zn840   1.948   .     S
Zn839  O228    1.936   1_565 S
Zn842  O1091   1.936   .     S
Zn844  O217    1.936   1_565 S
Zn846  O1108   1.914   1_455 S
Zn847  O1099   1.919   1_455 S
Zn850  O1105   1.919   1_455 S
Zn851  O1114   1.914   1_455 S
Zn852  O1102   1.936   .     S
C853   O1113   1.273   .     A
C853   C928    1.464   .     S
C853   O552    1.273   1_565 S
C854   O1111   1.276   .     A
C854   O1083   1.276   .     A
C854   C904    1.425   .     S
C855   N1056   1.425   .     S
C855   C947    1.412   .     A
C855   C858    1.414   1_554 S
C856   N1057   1.428   .     S
C856   C948    1.414   .     A
C856   C971    1.417   1_556 S
C857   N1058   1.428   .     S
C857   C949    1.414   .     A
C857   C970    1.417   1_554 S
C858   C950    1.412   .     A
C858   N1059   1.425   .     S
C858   C855    1.414   1_556 S
C859   C952    1.412   .     A
C859   N1060   1.425   .     S
C859   C972    1.414   1_554 S
C860   N1053   1.448   .     S
C860   H983    1.109   .     S
C860   H985    1.113   .     S
C860   H982    1.110   .     S
C861   H989    1.109   .     S
C861   N1061   1.448   .     S
C861   H987    1.110   .     S
C861   H988    1.113   .     S
C862   H992    1.110   .     S
C862   N1062   1.448   .     S
C862   H993    1.111   .     S
C862   H991    1.111   .     S
C863   N1063   1.448   .     S
C863   H996    1.111   .     S
C863   H997    1.111   .     S
C863   H998    1.110   .     S
C864   N1064   1.448   .     S
C864   H1002   1.110   .     S
C864   H1001   1.110   .     S
C864   H1000   1.110   .     S
C865   C903    1.421   .     S
C865   O1108   1.276   .     A
C865   O1084   1.276   .     A
C866   H1007   1.110   .     S
C866   N1065   1.448   .     S
C866   H1005   1.111   .     S
C866   H1004   1.110   .     S
C867   N1066   1.447   .     S
C867   H1010   1.111   .     S
C867   H1011   1.110   .     S
C867   H1009   1.111   .     S
C868   H1015   1.111   .     S
C868   H1014   1.110   .     S
C868   N1067   1.447   .     S
C868   H1013   1.111   .     S
C869   H1018   1.108   .     S
C869   N1068   1.448   .     S
C869   H1020   1.110   .     S
C869   H1019   1.110   .     S
C870   H1023   1.110   .     S
C870   H1022   1.108   .     S
C870   H1024   1.109   .     S
C870   N1054   1.448   .     S
C871   H1029   1.109   .     S
C871   H1027   1.113   .     S
C871   N1055   1.449   .     S
C871   H1026   1.110   .     S
C872   H1032   1.109   .     S
C872   H1031   1.110   .     S
C872   N1056   1.449   .     S
C872   H1033   1.113   .     S
C873   H1036   1.109   .     S
C873   N1057   1.448   .     S
C873   H1037   1.110   .     S
C873   H1035   1.107   .     S
C874   N1058   1.448   .     S
C874   H1042   1.109   .     S
C874   H1041   1.110   .     S
C874   H1040   1.107   .     S
C875   H1044   1.109   .     S
C875   H1045   1.111   .     S
C875   N1059   1.448   .     S
C875   H1046   1.109   .     S
C876   O1085   1.276   .     A
C876   C902    1.421   .     S
C876   O1109   1.276   .     A
C877   N1060   1.448   .     S
C877   H1051   1.111   .     S
C877   H1048   1.109   .     S
C877   H1049   1.109   .     S
C878   O1086   1.276   .     A
C878   C901    1.425   .     S
C878   O1115   1.276   .     A
C879   C900    1.425   .     S
C879   O1087   1.276   .     A
C879   O1116   1.276   .     A
C880   C908    1.421   .     S
C880   O1112   1.276   .     A
C880   O1088   1.276   .     A
C881   O1089   1.276   .     A
C881   O1114   1.276   .     A
C881   C906    1.421   .     S
C882   C897    1.421   .     S
C882   O1090   1.276   .     A
C882   O1101   1.276   .     A
C883   C895    1.421   .     S
C883   O1092   1.276   .     A
C883   O1103   1.276   .     A
C884   O1093   1.276   .     A
C884   O1099   1.276   .     A
C884   C894    1.425   .     S
C885   C930    1.464   .     S
C885   O1117   1.273   .     A
C886   O1094   1.276   .     A
C886   O1100   1.276   .     A
C886   C893    1.425   .     S
C887   O1095   1.276   .     A
C887   O1106   1.276   .     A
C887   C892    1.421   .     S
C888   O1107   1.276   .     A
C888   O1096   1.276   .     A
C888   C891    1.421   .     S
C889   O1097   1.276   .     A
C889   C899    1.425   .     S
C889   O1104   1.276   .     A
C890   O1098   1.276   .     A
C890   C898    1.425   .     S
C890   O1105   1.276   .     A
C891   C908    1.198   .     T
C892   C906    1.198   .     T
C893   C905    1.200   .     T
C894   C904    1.200   .     T
C895   C903    1.198   .     T
C896   O1118   1.273   .     S
C897   C902    1.198   .     T
C898   C901    1.200   .     T
C899   C900    1.200   .     T
C905   C962    1.425   .     S
C907   O1072   1.273   .     A
C907   C927    1.463   .     S
C909   C939    1.400   .     A
C909   C926    1.396   .     A
C909   H973    1.083   .     S
C910   C927    1.396   .     A
C910   H984    1.083   .     S
C910   C941    1.400   .     A
C911   H995    1.083   .     S
C911   C942    1.400   .     A
C912   H1006   1.083   .     S
C912   C943    1.400   .     A
C912   C362    1.396   1_565 S
C913   C935    1.400   .     A
C913   H1017   1.083   .     S
C914   H1028   1.082   .     S
C914   C936    1.400   .     A
C914   C643    1.396   1_655 S
C915   C928    1.397   .     A
C915   C937    1.400   .     A
C915   H1039   1.083   .     S
C916   H1050   1.083   .     S
C916   C938    1.400   .     A
C916   C930    1.397   .     A
C917   C931    1.394   .     A
C917   C948    1.404   .     A
C917   H1052   1.083   .     S
C918   O1073   1.272   .     S
C918   O1077   1.272   .     S
C919   C949    1.404   .     A
C919   H974    1.083   .     S
C919   C932    1.394   .     A
C920   C933    1.394   .     A
C920   H975    1.084   .     S
C920   C950    1.405   .     A
C921   C934    1.394   .     A
C921   H976    1.084   .     S
C921   C952    1.405   .     A
C922   H977    1.083   .     S
C922   C944    1.404   .     A
C922   C363    1.394   1_565 S
C923   H978    1.083   .     S
C923   C945    1.404   .     A
C924   H979    1.083   .     S
C924   C946    1.405   .     A
C925   C947    1.405   .     A
C925   H980    1.083   .     S
C925   C650    1.394   1_655 S
C926   C612    1.463   1_655 S
C926   C629    1.396   1_655 S
C928   C343    1.396   1_565 S
C929   O1074   1.272   .     A
C929   C934    1.460   .     S
C929   O1078   1.272   .     S
C931   C940    1.462   .     S
C932   C355    1.394   1_565 S
C932   C383    1.462   1_565 S
C933   C640    1.394   1_655 S
C933   C634    1.460   1_655 S
C935   C961    1.413   .     A
C936   C963    1.413   .     A
C936   C670    1.417   1_655 S
C937   C955    1.417   .     A
C937   C964    1.414   .     A
C938   C956    1.417   .     A
C938   C965    1.413   .     A
C939   C966    1.414   .     A
C939   C953    1.417   .     A
C940   O1075   1.272   .     S
C940   O1079   1.273   .     S
C941   C967    1.414   .     A
C941   C954    1.417   .     A
C942   C968    1.413   .     A
C943   C969    1.413   .     A
C943   C388    1.417   1_565 S
C944   C970    1.414   .     A
C944   C389    1.416   1_565 S
C945   C971    1.414   .     A
C945   C958    1.416   .     S
C946   C972    1.412   .     A
C947   C676    1.416   1_655 S
C948   C957    1.416   .     A
C949   C390    1.416   1_565 A
C950   C959    1.416   .     A
C951   O1076   1.272   .     S
C951   O1081   1.273   .     S
C952   C960    1.416   .     A
C953   C651    1.417   1_655 S
C953   C670    1.402   1_655 S
C955   C374    1.417   1_565 S
C955   C388    1.402   1_565 S
C957   C958    1.403   1_556 S
C958   C957    1.403   1_554 S
C959   C662    1.416   1_655 S
C959   C676    1.407   1_656 S
C960   C675    1.407   1_554 S
C961   N1053   1.427   .     S
C961   C967    1.411   .     A
C962   O1110   1.276   .     A
C962   O1082   1.276   .     A
C963   N1061   1.427   .     S
C963   C966    1.411   .     A
C964   C969    1.411   .     A
C964   N1062   1.428   .     S
C965   C968    1.411   .     A
C965   N1063   1.428   .     S
C966   N1064   1.428   .     S
C967   N1065   1.428   .     S
C968   N1066   1.427   .     S
C969   N1067   1.427   .     S
C970   N1068   1.428   .     S
C970   C857    1.417   1_556 S
C971   N1054   1.428   .     S
C971   C856    1.417   1_554 S
C972   N1055   1.425   .     S
C972   C859    1.414   1_556 S
H981   N1053   1.030   .     S
H986   N1061   1.030   .     S
H990   N1062   1.030   .     S
H994   N1063   1.030   .     S
H999   N1064   1.029   .     S
H1003  N1065   1.029   .     S
H1008  N1066   1.030   .     S
H1012  N1067   1.030   .     S
H1016  N1068   1.029   .     S
H1021  N1054   1.029   .     S
H1025  N1055   1.029   .     S
H1030  N1056   1.029   .     S
H1034  N1057   1.029   .     S
H1038  N1058   1.029   .     S
H1043  N1059   1.028   .     S
H1047  N1060   1.028   .     S
O1069  Zn1121  1.936   .     S
O1069  Zn1124  1.936   .     S
O1069  Zn1132  1.936   .     S
O1070  Zn1123  1.948   .     S
O1070  C317    1.273   1_565 S
O1071  C612    1.273   1_655 A
O1071  Zn1126  1.948   .     S
O1072  Zn1125  1.948   .     S
O1073  Zn1135  1.948   .     S
O1074  Zn1134  1.948   .     S
O1075  Zn1129  1.948   .     S
O1076  Zn1121  1.948   .     S
O1077  Zn1131  1.948   .     S
O1078  Zn1130  1.948   .     S
O1079  Zn1133  1.948   .     S
O1080  Zn1127  1.936   .     S
O1080  Zn1129  1.936   .     S
O1080  Zn1133  1.936   .     S
O1081  Zn1132  1.948   .     S
O1082  Zn1124  1.919   .     S
O1083  Zn1123  1.919   .     S
O1084  Zn1126  1.914   .     S
O1085  Zn1125  1.914   .     S
O1086  Zn1128  1.919   .     S
O1087  Zn1127  1.919   .     S
O1088  Zn1122  1.914   .     S
O1089  Zn1136  1.914   .     S
O1090  Zn1123  1.914   .     S
O1091  Zn1122  1.936   .     S
O1091  Zn1130  1.936   .     S
O1091  Zn1134  1.936   .     S
O1092  Zn1124  1.914   .     S
O1093  Zn1136  1.919   .     S
O1094  Zn1122  1.919   .     S
O1095  Zn1127  1.914   .     S
O1096  Zn1128  1.914   .     S
O1097  Zn1125  1.919   .     S
O1098  Zn1126  1.919   .     S
O1099  Zn847   1.919   1_655 S
O1100  Zn1130  1.919   .     S
O1101  Zn565   1.914   1_565 S
O1102  Zn1125  1.936   .     S
O1102  Zn1131  1.936   .     S
O1102  Zn1135  1.936   .     S
O1103  Zn1132  1.914   .     S
O1104  Zn1135  1.919   .     S
O1105  Zn850   1.919   1_655 S
O1106  Zn1129  1.914   .     S
O1107  Zn553   1.914   1_565 S
O1108  Zn846   1.914   1_655 S
O1109  Zn1131  1.914   .     S
O1110  Zn1121  1.919   .     S
O1111  Zn561   1.919   1_565 S
O1112  Zn1134  1.914   .     S
O1113  Zn1128  1.948   .     S
O1114  Zn851   1.914   1_655 S
O1115  Zn564   1.919   1_565 S
O1116  Zn1133  1.919   .     S
O1117  Zn1127  1.948   .     S
O1118  Zn1122  1.948   .     S
O1119  Zn1136  1.948   .     S
O1119  C623    1.273   1_655 S
O1120  Zn1124  1.948   .     S
Zn1123 O512    1.936   1_565 S
Zn1126 O807    1.936   1_655 S
Zn1128 O501    1.936   1_565 S
Zn1136 O818    1.936   1_655 S
