data_str_m1_o2_o5_pcu_sym.30
_audit_creation_date              2020-01-03
_audit_creation_method            'Materials Studio'
_symmetry_space_group_name_H-M    'P1'
_symmetry_Int_Tables_number       1
_symmetry_cell_setting            triclinic
loop_
_symmetry_equiv_pos_as_xyz
  x,y,z
_cell_length_a                    24.4048
_cell_length_b                    24.5257
_cell_length_c                    22.4236
_cell_angle_alpha                 90.1196
_cell_angle_beta                  89.9790
_cell_angle_gamma                 90.0782
loop_
_atom_site_label
_atom_site_type_symbol
_atom_site_fract_x
_atom_site_fract_y
_atom_site_fract_z
_atom_site_U_iso_or_equiv
_atom_site_adp_type
_atom_site_occupancy
C1     C     0.21993   0.26368   0.25173   0.00000  Uiso   1.00
C2     C     0.76526   0.72342   0.75185   0.00000  Uiso   1.00
C3     C     0.26727   0.77587   0.24464   0.00000  Uiso   1.00
C4     C     0.73118   0.22588   0.75563   0.00000  Uiso   1.00
C5     C     0.76214   0.71946   0.24573   0.00000  Uiso   1.00
C6     C     0.22630   0.27009   0.74678   0.00000  Uiso   1.00
C7     C     0.72432   0.23482   0.25081   0.00000  Uiso   1.00
C8     C     0.26713   0.77650   0.75002   0.00000  Uiso   1.00
C9     C     0.77385   0.26859   0.75527   0.00000  Uiso   1.00
C10    C     0.23405   0.72343   0.25021   0.00000  Uiso   1.00
C11    C     0.72188   0.76535   0.75097   0.00000  Uiso   1.00
C12    C     0.26361   0.22203   0.25323   0.00000  Uiso   1.00
C13    C     0.22575   0.73278   0.74905   0.00000  Uiso   1.00
C14    C     0.76544   0.27877   0.25196   0.00000  Uiso   1.00
C15    C     0.26759   0.22595   0.74667   0.00000  Uiso   1.00
C16    C     0.72196   0.76459   0.24499   0.00000  Uiso   1.00
C17    C     0.99999   0.49995   0.47331   0.00000  Uiso   1.00
C18    C     0.00000   0.49994   0.52668   0.00000  Uiso   1.00
C19    C     0.49990   0.00004   0.47331   0.00000  Uiso   1.00
C20    C     0.49990   0.99995   0.52670   0.00000  Uiso   1.00
C21    C     0.49999   0.99993   0.97331   0.00000  Uiso   1.00
C22    C     0.50001   0.99994   0.02668   0.00000  Uiso   1.00
C23    C     0.99995   0.50004   0.97330   0.00000  Uiso   1.00
C24    C     0.99995   0.49995   0.02670   0.00000  Uiso   1.00
C25    C     0.99998   0.49996   0.09006   0.00000  Uiso   1.00
C26    C     0.99997   0.50003   0.90994   0.00000  Uiso   1.00
C27    C     0.50001   0.99998   0.08999   0.00000  Uiso   1.00
C28    C     0.49999   0.99995   0.91000   0.00000  Uiso   1.00
C29    C     0.49994   0.99996   0.59006   0.00000  Uiso   1.00
C30    C     0.49995   0.00003   0.40994   0.00000  Uiso   1.00
C31    C     0.00000   0.49996   0.58999   0.00000  Uiso   1.00
C32    C    -0.00001   0.49998   0.41000   0.00000  Uiso   1.00
C33    C     0.10506   0.60512   0.25049   0.00000  Uiso   1.00
C34    C     0.89483   0.39483   0.74972   0.00000  Uiso   1.00
C35    C     0.60495   0.89461   0.24976   0.00000  Uiso   1.00
C36    C     0.39457   0.10507   0.74988   0.00000  Uiso   1.00
C37    C     0.89488   0.39509   0.25013   0.00000  Uiso   1.00
C38    C     0.10533   0.60536   0.74961   0.00000  Uiso   1.00
C39    C     0.39438   0.10503   0.25046   0.00000  Uiso   1.00
C40    C     0.60517   0.89503   0.74976   0.00000  Uiso   1.00
C41    C     0.89454   0.60510   0.75027   0.00000  Uiso   1.00
C42    C     0.10517   0.39507   0.24973   0.00000  Uiso   1.00
C43    C     0.39478   0.89510   0.74997   0.00000  Uiso   1.00
C44    C     0.60531   0.10559   0.24942   0.00000  Uiso   1.00
C45    C     0.10485   0.39488   0.74988   0.00000  Uiso   1.00
C46    C     0.89443   0.60474   0.24967   0.00000  Uiso   1.00
C47    C     0.60514   0.10504   0.75009   0.00000  Uiso   1.00
C48    C     0.39506   0.89493   0.24943   0.00000  Uiso   1.00
C49    C     0.21238   0.29449   0.19902   0.00000  Uiso   1.00
C50    C     0.81978   0.74143   0.75281   0.00000  Uiso   1.00
C51    C     0.29542   0.78973   0.19171   0.00000  Uiso   1.00
C52    C     0.74492   0.17079   0.74478   0.00000  Uiso   1.00
C53    C     0.78188   0.69703   0.19149   0.00000  Uiso   1.00
C54    C     0.17741   0.26255   0.71460   0.00000  Uiso   1.00
C55    C     0.74209   0.18157   0.24045   0.00000  Uiso   1.00
C56    C     0.29589   0.78705   0.80283   0.00000  Uiso   1.00
C57    C     0.78957   0.29524   0.80851   0.00000  Uiso   1.00
C58    C     0.23051   0.68482   0.20338   0.00000  Uiso   1.00
C59    C     0.69350   0.77899   0.80413   0.00000  Uiso   1.00
C60    C     0.25131   0.16574   0.25215   0.00000  Uiso   1.00
C61    C     0.17013   0.74608   0.74680   0.00000  Uiso   1.00
C62    C     0.77301   0.31076   0.20088   0.00000  Uiso   1.00
C63    C     0.28111   0.19963   0.80073   0.00000  Uiso   1.00
C64    C     0.73890   0.81769   0.26075   0.00000  Uiso   1.00
C65    C     0.71208   0.79457   0.69759   0.00000  Uiso   1.00
C66    C     0.31788   0.24053   0.25657   0.00000  Uiso   1.00
C67    C     0.79720   0.28308   0.70035   0.00000  Uiso   1.00
C68    C     0.20860   0.70813   0.30465   0.00000  Uiso   1.00
C69    C     0.29453   0.21139   0.69305   0.00000  Uiso   1.00
C70    C     0.66696   0.75330   0.23115   0.00000  Uiso   1.00
C71    C     0.24343   0.67858   0.74841   0.00000  Uiso   1.00
C72    C     0.79915   0.28445   0.30207   0.00000  Uiso   1.00
C73    C     0.26828   0.81595   0.29056   0.00000  Uiso   1.00
C74    C     0.67644   0.24201   0.76367   0.00000  Uiso   1.00
C75    C     0.18960   0.27615   0.30397   0.00000  Uiso   1.00
C76    C     0.75232   0.66728   0.75277   0.00000  Uiso   1.00
C77    C     0.66868   0.24716   0.25593   0.00000  Uiso   1.00
C78    C     0.27948   0.80418   0.69711   0.00000  Uiso   1.00
C79    C     0.78472   0.70294   0.30092   0.00000  Uiso   1.00
C80    C     0.23465   0.31746   0.78166   0.00000  Uiso   1.00
C81    C     0.17700   0.33958   0.19935   0.00000  Uiso   1.00
C82    C     0.86310   0.70296   0.75190   0.00000  Uiso   1.00
C83    C     0.34244   0.82358   0.19504   0.00000  Uiso   1.00
C84    C     0.70316   0.13169   0.74019   0.00000  Uiso   1.00
C85    C     0.82410   0.65789   0.19270   0.00000  Uiso   1.00
C86    C     0.13773   0.30470   0.71343   0.00000  Uiso   1.00
C87    C     0.70365   0.13824   0.23991   0.00000  Uiso   1.00
C88    C     0.34084   0.82337   0.80224   0.00000  Uiso   1.00
C89    C     0.82802   0.33783   0.80626   0.00000  Uiso   1.00
C90    C     0.18482   0.64920   0.20044   0.00000  Uiso   1.00
C91    C     0.65457   0.82112   0.80346   0.00000  Uiso   1.00
C92    C     0.29418   0.12755   0.25443   0.00000  Uiso   1.00
C93    C     0.13060   0.70427   0.74111   0.00000  Uiso   1.00
C94    C     0.81489   0.35097   0.20015   0.00000  Uiso   1.00
C95    C     0.32528   0.16318   0.80251   0.00000  Uiso   1.00
C96    C     0.70041   0.86003   0.26328   0.00000  Uiso   1.00
C97    C     0.67560   0.83886   0.69785   0.00000  Uiso   1.00
C98    C     0.36166   0.20258   0.25552   0.00000  Uiso   1.00
C99    C     0.83496   0.32672   0.69708   0.00000  Uiso   1.00
C100   C     0.16271   0.67347   0.30381   0.00000  Uiso   1.00
C101   C     0.33285   0.16853   0.69298   0.00000  Uiso   1.00
C102   C     0.62786   0.79634   0.23121   0.00000  Uiso   1.00
C103   C     0.20423   0.63582   0.74881   0.00000  Uiso   1.00
C104   C     0.84428   0.32038   0.30028   0.00000  Uiso   1.00
C105   C     0.31248   0.85257   0.29451   0.00000  Uiso   1.00
C106   C     0.63409   0.20231   0.76269   0.00000  Uiso   1.00
C107   C     0.15120   0.31882   0.30292   0.00000  Uiso   1.00
C108   C     0.79478   0.62869   0.75506   0.00000  Uiso   1.00
C109   C     0.62923   0.20550   0.24801   0.00000  Uiso   1.00
C110   C     0.31964   0.84568   0.69728   0.00000  Uiso   1.00
C111   C     0.82996   0.66770   0.30189   0.00000  Uiso   1.00
C112   C     0.19293   0.35646   0.78597   0.00000  Uiso   1.00
C113   C     0.14567   0.35111   0.25100   0.00000  Uiso   1.00
C114   C     0.85033   0.64623   0.75250   0.00000  Uiso   1.00
C115   C     0.35159   0.85388   0.24803   0.00000  Uiso   1.00
C116   C     0.64795   0.14714   0.75036   0.00000  Uiso   1.00
C117   C     0.84957   0.64478   0.24785   0.00000  Uiso   1.00
C118   C     0.14602   0.35160   0.74936   0.00000  Uiso   1.00
C119   C     0.64670   0.15010   0.24614   0.00000  Uiso   1.00
C120   C     0.35146   0.85372   0.74960   0.00000  Uiso   1.00
C121   C     0.85164   0.35294   0.75077   0.00000  Uiso   1.00
C122   C     0.14942   0.64554   0.25034   0.00000  Uiso   1.00
C123   C     0.64627   0.85153   0.75064   0.00000  Uiso   1.00
C124   C     0.34962   0.14570   0.25350   0.00000  Uiso   1.00
C125   C     0.14734   0.64898   0.74698   0.00000  Uiso   1.00
C126   C     0.85128   0.35417   0.24954   0.00000  Uiso   1.00
C127   C     0.35060   0.14633   0.74842   0.00000  Uiso   1.00
C128   C     0.64515   0.84986   0.24755   0.00000  Uiso   1.00
O1     O     0.00000   0.50000   0.25000   0.00000  Uiso   1.00
O2     O     0.00000   0.50000   0.75000   0.00000  Uiso   1.00
O3     O     0.50000   0.00000   0.25000   0.00000  Uiso   1.00
O4     O     0.50000   0.00000   0.75000   0.00000  Uiso   1.00
O5     O     0.00000   0.45454   0.11798   0.00000  Uiso   1.00
O6     O     0.00000   0.54546   0.88202   0.00000  Uiso   1.00
O7     O     0.45454   0.00000   0.11798   0.00000  Uiso   1.00
O8     O     0.54546   0.00000   0.88202   0.00000  Uiso   1.00
O9     O     0.00000   0.54546   0.11798   0.00000  Uiso   1.00
O10    O     0.00000   0.45454   0.88202   0.00000  Uiso   1.00
O11    O     0.54546   0.00000   0.11798   0.00000  Uiso   1.00
O12    O     0.45454   0.00000   0.88202   0.00000  Uiso   1.00
O13    O     0.50000   0.95454   0.61798   0.00000  Uiso   1.00
O14    O     0.50000   0.04546   0.38202   0.00000  Uiso   1.00
O15    O     0.95454   0.50000   0.61798   0.00000  Uiso   1.00
O16    O     0.04546   0.50000   0.38202   0.00000  Uiso   1.00
O17    O     0.50000   0.04546   0.61798   0.00000  Uiso   1.00
O18    O     0.50000   0.95454   0.38202   0.00000  Uiso   1.00
O19    O     0.04546   0.50000   0.61798   0.00000  Uiso   1.00
O20    O     0.95454   0.50000   0.38202   0.00000  Uiso   1.00
O21    O     0.06399   0.60947   0.21539   0.00000  Uiso   1.00
O22    O     0.93601   0.39053   0.78461   0.00000  Uiso   1.00
O23    O     0.60947   0.93601   0.21539   0.00000  Uiso   1.00
O24    O     0.39053   0.06399   0.78461   0.00000  Uiso   1.00
O25    O     0.93601   0.39053   0.21539   0.00000  Uiso   1.00
O26    O     0.06399   0.60947   0.78461   0.00000  Uiso   1.00
O27    O     0.39053   0.06399   0.21539   0.00000  Uiso   1.00
O28    O     0.60947   0.93601   0.78461   0.00000  Uiso   1.00
O29    O     0.93601   0.60947   0.78461   0.00000  Uiso   1.00
O30    O     0.06399   0.39053   0.21539   0.00000  Uiso   1.00
O31    O     0.39053   0.93601   0.78461   0.00000  Uiso   1.00
O32    O     0.60947   0.06399   0.21539   0.00000  Uiso   1.00
O33    O     0.06399   0.39053   0.78461   0.00000  Uiso   1.00
O34    O     0.93601   0.60947   0.21539   0.00000  Uiso   1.00
O35    O     0.60947   0.06399   0.78461   0.00000  Uiso   1.00
O36    O     0.39053   0.93601   0.21539   0.00000  Uiso   1.00
O37    O     0.56399   0.10947   0.71539   0.00000  Uiso   1.00
O38    O     0.43601   0.89053   0.28461   0.00000  Uiso   1.00
O39    O     0.10947   0.43601   0.71539   0.00000  Uiso   1.00
O40    O     0.89053   0.56399   0.28461   0.00000  Uiso   1.00
O41    O     0.43601   0.89053   0.71539   0.00000  Uiso   1.00
O42    O     0.56399   0.10947   0.28461   0.00000  Uiso   1.00
O43    O     0.89053   0.56399   0.71539   0.00000  Uiso   1.00
O44    O     0.10947   0.43601   0.28461   0.00000  Uiso   1.00
O45    O     0.43601   0.10947   0.28461   0.00000  Uiso   1.00
O46    O     0.56399   0.89053   0.71539   0.00000  Uiso   1.00
O47    O     0.89053   0.43601   0.28461   0.00000  Uiso   1.00
O48    O     0.10947   0.56399   0.71539   0.00000  Uiso   1.00
O49    O     0.56399   0.89053   0.28461   0.00000  Uiso   1.00
O50    O     0.43601   0.10947   0.71539   0.00000  Uiso   1.00
O51    O     0.10947   0.56399   0.28461   0.00000  Uiso   1.00
O52    O     0.89053   0.43601   0.71539   0.00000  Uiso   1.00
Zn1    Zn    0.06497   0.50000   0.29947   0.00000  Uiso   1.00
Zn2    Zn    0.93503   0.50000   0.70053   0.00000  Uiso   1.00
Zn3    Zn    0.50000   0.93503   0.29947   0.00000  Uiso   1.00
Zn4    Zn    0.50000   0.06497   0.70053   0.00000  Uiso   1.00
Zn5    Zn    0.93503   0.50000   0.29947   0.00000  Uiso   1.00
Zn6    Zn    0.06497   0.50000   0.70053   0.00000  Uiso   1.00
Zn7    Zn    0.50000   0.06497   0.29947   0.00000  Uiso   1.00
Zn8    Zn    0.50000   0.93503   0.70053   0.00000  Uiso   1.00
Zn9    Zn    0.56497   0.00000   0.79947   0.00000  Uiso   1.00
Zn10   Zn    0.43503   0.00000   0.20053   0.00000  Uiso   1.00
Zn11   Zn    0.00000   0.43503   0.79947   0.00000  Uiso   1.00
Zn12   Zn    0.00000   0.56497   0.20053   0.00000  Uiso   1.00
Zn13   Zn    0.43503   0.00000   0.79947   0.00000  Uiso   1.00
Zn14   Zn    0.56497   0.00000   0.20053   0.00000  Uiso   1.00
Zn15   Zn    0.00000   0.56497   0.79947   0.00000  Uiso   1.00
Zn16   Zn    0.00000   0.43503   0.20053   0.00000  Uiso   1.00
O53    O     0.24006   0.28270   0.14659   0.00000  Uiso   1.00
H1     H     0.25449   0.24506   0.14763   0.00000  Uiso   1.00
O54    O     0.82830   0.79735   0.75265   0.00000  Uiso   1.00
H2     H     0.86538   0.80644   0.76693   0.00000  Uiso   1.00
O55    O     0.27252   0.77502   0.13760   0.00000  Uiso   1.00
H3     H     0.28711   0.79834   0.10542   0.00000  Uiso   1.00
O56    O     0.79857   0.15375   0.73713   0.00000  Uiso   1.00
H4     H     0.82431   0.18204   0.75148   0.00000  Uiso   1.00
O57    O     0.76106   0.71219   0.13646   0.00000  Uiso   1.00
H5     H     0.73842   0.74538   0.13986   0.00000  Uiso   1.00
O58    O     0.17078   0.21368   0.68440   0.00000  Uiso   1.00
H6     H     0.13153   0.20648   0.67735   0.00000  Uiso   1.00
O59    O     0.79782   0.17365   0.23274   0.00000  Uiso   1.00
H7     H     0.80413   0.14276   0.20530   0.00000  Uiso   1.00
O60    O     0.28049   0.75932   0.85358   0.00000  Uiso   1.00
H8     H     0.27811   0.78640   0.88631   0.00000  Uiso   1.00
O61    O     0.76802   0.28121   0.86358   0.00000  Uiso   1.00
H9     H     0.74870   0.24583   0.86114   0.00000  Uiso   1.00
O62    O     0.27521   0.67807   0.16621   0.00000  Uiso   1.00
H10    H     0.27601   0.64034   0.15063   0.00000  Uiso   1.00
O63    O     0.70231   0.75225   0.85769   0.00000  Uiso   1.00
H11    H     0.73346   0.72676   0.85461   0.00000  Uiso   1.00
O64    O     0.19800   0.14629   0.25005   0.00000  Uiso   1.00
H12    H     0.17190   0.17637   0.24304   0.00000  Uiso   1.00
O65    O     0.15595   0.80047   0.74874   0.00000  Uiso   1.00
H13    H     0.12423   0.80403   0.77605   0.00000  Uiso   1.00
O66    O     0.73813   0.30131   0.15326   0.00000  Uiso   1.00
H14    H     0.75397   0.31597   0.11614   0.00000  Uiso   1.00
O67    O     0.25358   0.21053   0.85342   0.00000  Uiso   1.00
H15    H     0.21623   0.22385   0.84444   0.00000  Uiso   1.00
O68    O     0.79271   0.82949   0.27576   0.00000  Uiso   1.00
H16    H     0.81767   0.80231   0.25778   0.00000  Uiso   1.00
O69    O     0.73895   0.78216   0.64484   0.00000  Uiso   1.00
H17    H     0.75394   0.74475   0.64633   0.00000  Uiso   1.00
O70    O     0.32582   0.29650   0.25864   0.00000  Uiso   1.00
H18    H     0.36199   0.30547   0.27555   0.00000  Uiso   1.00
O71    O     0.78158   0.25386   0.65042   0.00000  Uiso   1.00
H19    H     0.81460   0.24755   0.62568   0.00000  Uiso   1.00
O72    O     0.23016   0.72277   0.35933   0.00000  Uiso   1.00
H20    H     0.27019   0.72817   0.35447   0.00000  Uiso   1.00
O73    O     0.28387   0.23781   0.63978   0.00000  Uiso   1.00
H21    H     0.26947   0.27480   0.64766   0.00000  Uiso   1.00
O74    O     0.65419   0.69971   0.21715   0.00000  Uiso   1.00
H22    H     0.61429   0.69415   0.21518   0.00000  Uiso   1.00
O75    O     0.29953   0.66984   0.74922   0.00000  Uiso   1.00
H23    H     0.30847   0.63304   0.73447   0.00000  Uiso   1.00
O76    O     0.78840   0.25223   0.35100   0.00000  Uiso   1.00
H24    H     0.78801   0.27648   0.38636   0.00000  Uiso   1.00
O77    O     0.22454   0.82383   0.32869   0.00000  Uiso   1.00
H25    H     0.19072   0.81190   0.30790   0.00000  Uiso   1.00
O78    O     0.66691   0.29696   0.77363   0.00000  Uiso   1.00
H26    H     0.62806   0.30591   0.76696   0.00000  Uiso   1.00
O79    O     0.19601   0.24784   0.35696   0.00000  Uiso   1.00
H27    H     0.22646   0.22150   0.35414   0.00000  Uiso   1.00
O80    O     0.69876   0.64839   0.75268   0.00000  Uiso   1.00
H28    H     0.67286   0.67849   0.74500   0.00000  Uiso   1.00
O81    O     0.65427   0.30065   0.26674   0.00000  Uiso   1.00
H29    H     0.62305   0.30047   0.29500   0.00000  Uiso   1.00
O82    O     0.25072   0.79038   0.64635   0.00000  Uiso   1.00
H30    H     0.27779   0.78549   0.61385   0.00000  Uiso   1.00
O83    O     0.76528   0.72260   0.35488   0.00000  Uiso   1.00
H31    H     0.72739   0.73618   0.35005   0.00000  Uiso   1.00
O84    O     0.28233   0.32607   0.81378   0.00000  Uiso   1.00
H32    H     0.31271   0.30523   0.79551   0.00000  Uiso   1.00
C129   C     0.17502   0.37572   0.14418   0.00000  Uiso   1.00
C130   C     0.22542   0.41256   0.14118   0.00000  Uiso   1.00
H33    H     0.22324   0.43836   0.10064   0.00000  Uiso   1.00
H34    H     0.22701   0.43947   0.18105   0.00000  Uiso   1.00
H35    H     0.26358   0.38804   0.13903   0.00000  Uiso   1.00
H36    H     0.17283   0.35010   0.10331   0.00000  Uiso   1.00
H37    H     0.13834   0.40215   0.14269   0.00000  Uiso   1.00
C131   C     0.92203   0.72286   0.74713   0.00000  Uiso   1.00
C132   C     0.94541   0.73748   0.80860   0.00000  Uiso   1.00
H38    H     0.95557   0.70009   0.83397   0.00000  Uiso   1.00
H39    H     0.98327   0.76207   0.80329   0.00000  Uiso   1.00
H40    H     0.91592   0.76165   0.83544   0.00000  Uiso   1.00
H41    H     0.94865   0.69239   0.72505   0.00000  Uiso   1.00
H42    H     0.92463   0.75864   0.71697   0.00000  Uiso   1.00
C133   C     0.38286   0.82581   0.14292   0.00000  Uiso   1.00
C134   C     0.40487   0.76924   0.12715   0.00000  Uiso   1.00
H43    H     0.43710   0.77301   0.09242   0.00000  Uiso   1.00
H44    H     0.42308   0.74979   0.16714   0.00000  Uiso   1.00
H45    H     0.37189   0.74260   0.10943   0.00000  Uiso   1.00
H46    H     0.36344   0.84458   0.10322   0.00000  Uiso   1.00
H47    H     0.41917   0.85142   0.15286   0.00000  Uiso   1.00
C135   C     0.71864   0.07369   0.72259   0.00000  Uiso   1.00
C136   C     0.74088   0.04168   0.77571   0.00000  Uiso   1.00
H48    H     0.71019   0.04008   0.81219   0.00000  Uiso   1.00
H49    H     0.75041   0.99933   0.76157   0.00000  Uiso   1.00
H50    H     0.77899   0.06077   0.79296   0.00000  Uiso   1.00
H51    H     0.68347   0.05129   0.70301   0.00000  Uiso   1.00
H52    H     0.75008   0.07455   0.68673   0.00000  Uiso   1.00
C137   C     0.84099   0.63005   0.13452   0.00000  Uiso   1.00
C138   C     0.82129   0.57092   0.13209   0.00000  Uiso   1.00
H53    H     0.83217   0.55284   0.08822   0.00000  Uiso   1.00
H54    H     0.84072   0.54597   0.16740   0.00000  Uiso   1.00
H55    H     0.77608   0.56920   0.13749   0.00000  Uiso   1.00
H56    H     0.82388   0.65099   0.09490   0.00000  Uiso   1.00
H57    H     0.88590   0.63212   0.12786   0.00000  Uiso   1.00
C139   C     0.08748   0.30018   0.67342   0.00000  Uiso   1.00
C140   C     0.03985   0.27254   0.70578   0.00000  Uiso   1.00
H58    H     0.05294   0.23373   0.72675   0.00000  Uiso   1.00
H59    H     0.00673   0.26329   0.67346   0.00000  Uiso   1.00
H60    H     0.02316   0.29974   0.74094   0.00000  Uiso   1.00
H61    H     0.07398   0.34086   0.65756   0.00000  Uiso   1.00
H62    H     0.09739   0.27751   0.63188   0.00000  Uiso   1.00
C141   C     0.72454   0.08054   0.23151   0.00000  Uiso   1.00
C142   C     0.72980   0.06687   0.16488   0.00000  Uiso   1.00
H63    H     0.69026   0.05190   0.14681   0.00000  Uiso   1.00
H64    H     0.74253   0.10300   0.13847   0.00000  Uiso   1.00
H65    H     0.76128   0.03494   0.15800   0.00000  Uiso   1.00
H66    H     0.76495   0.07599   0.25368   0.00000  Uiso   1.00
H67    H     0.69866   0.05007   0.25466   0.00000  Uiso   1.00
C143   C     0.37944   0.82684   0.85575   0.00000  Uiso   1.00
C144   C     0.43406   0.79873   0.84284   0.00000  Uiso   1.00
H68    H     0.45650   0.81924   0.80619   0.00000  Uiso   1.00
H69    H     0.46022   0.80007   0.88333   0.00000  Uiso   1.00
H70    H     0.42698   0.75539   0.83051   0.00000  Uiso   1.00
H71    H     0.38662   0.86992   0.86870   0.00000  Uiso   1.00
H72    H     0.36242   0.80710   0.89603   0.00000  Uiso   1.00
C145   C     0.84105   0.36835   0.86382   0.00000  Uiso   1.00
C146   C     0.88155   0.33672   0.90246   0.00000  Uiso   1.00
H73    H     0.86366   0.29716   0.91656   0.00000  Uiso   1.00
H74    H     0.92010   0.32882   0.87765   0.00000  Uiso   1.00
H75    H     0.89142   0.36087   0.94300   0.00000  Uiso   1.00
H76    H     0.85758   0.40975   0.85525   0.00000  Uiso   1.00
H77    H     0.80276   0.37536   0.88956   0.00000  Uiso   1.00
C147   C     0.17359   0.61686   0.14362   0.00000  Uiso   1.00
C148   C     0.19042   0.55708   0.14935   0.00000  Uiso   1.00
H78    H     0.23412   0.55365   0.16250   0.00000  Uiso   1.00
H79    H     0.16486   0.53563   0.18280   0.00000  Uiso   1.00
H80    H     0.18476   0.53635   0.10572   0.00000  Uiso   1.00
H81    H     0.12963   0.61943   0.13144   0.00000  Uiso   1.00
H82    H     0.19546   0.63505   0.10501   0.00000  Uiso   1.00
C149   C     0.62167   0.83236   0.85988   0.00000  Uiso   1.00
C150   C     0.65377   0.86838   0.90317   0.00000  Uiso   1.00
H83    H     0.69195   0.84766   0.91757   0.00000  Uiso   1.00
H84    H     0.66461   0.90778   0.88190   0.00000  Uiso   1.00
H85    H     0.62835   0.87681   0.94322   0.00000  Uiso   1.00
H86    H     0.58172   0.85189   0.84996   0.00000  Uiso   1.00
H87    H     0.61096   0.79338   0.88226   0.00000  Uiso   1.00
C151   C     0.27913   0.06752   0.26105   0.00000  Uiso   1.00
C152   C     0.26291   0.04207   0.20133   0.00000  Uiso   1.00
H88    H     0.22520   0.06149   0.18371   0.00000  Uiso   1.00
H89    H     0.29620   0.04688   0.16804   0.00000  Uiso   1.00
H90    H     0.25479   0.99788   0.20752   0.00000  Uiso   1.00
H91    H     0.31274   0.04351   0.28137   0.00000  Uiso   1.00
H92    H     0.24444   0.06317   0.29284   0.00000  Uiso   1.00
C153   C     0.07234   0.71845   0.72227   0.00000  Uiso   1.00
C154   C     0.06073   0.70008   0.65830   0.00000  Uiso   1.00
H93    H     0.09152   0.71787   0.62743   0.00000  Uiso   1.00
H94    H     0.06158   0.65503   0.65424   0.00000  Uiso   1.00
H95    H     0.01946   0.71435   0.64459   0.00000  Uiso   1.00
H96    H     0.04251   0.69992   0.75318   0.00000  Uiso   1.00
H97    H     0.06412   0.76281   0.72356   0.00000  Uiso   1.00
C155   C     0.81912   0.39135   0.14845   0.00000  Uiso   1.00
C156   C     0.77044   0.43048   0.14775   0.00000  Uiso   1.00
H98    H     0.73105   0.40822   0.14335   0.00000  Uiso   1.00
H99    H     0.76973   0.45490   0.18953   0.00000  Uiso   1.00
H100   H     0.77440   0.45868   0.10933   0.00000  Uiso   1.00
H101   H     0.85648   0.41690   0.15044   0.00000  Uiso   1.00
H102   H     0.82260   0.36955   0.10522   0.00000  Uiso   1.00
C157   C     0.34551   0.14470   0.86348   0.00000  Uiso   1.00
C158   C     0.31068   0.09804   0.88816   0.00000  Uiso   1.00
H103   H     0.26806   0.11188   0.89641   0.00000  Uiso   1.00
H104   H     0.30962   0.06317   0.85658   0.00000  Uiso   1.00
H105   H     0.32834   0.08387   0.93104   0.00000  Uiso   1.00
H106   H     0.38927   0.13262   0.86253   0.00000  Uiso   1.00
H107   H     0.34417   0.17943   0.89539   0.00000  Uiso   1.00
C159   C     0.72026   0.91587   0.28303   0.00000  Uiso   1.00
C160   C     0.75353   0.94266   0.23356   0.00000  Uiso   1.00
H108   H     0.78659   0.91566   0.21688   0.00000  Uiso   1.00
H109   H     0.72605   0.95278   0.19576   0.00000  Uiso   1.00
H110   H     0.77325   0.98003   0.25113   0.00000  Uiso   1.00
H111   H     0.68631   0.94347   0.29599   0.00000  Uiso   1.00
H112   H     0.74611   0.91172   0.32358   0.00000  Uiso   1.00
C161   C     0.66951   0.87334   0.64168   0.00000  Uiso   1.00
C162   C     0.69909   0.92791   0.64827   0.00000  Uiso   1.00
H113   H     0.69507   0.95161   0.60637   0.00000  Uiso   1.00
H114   H     0.68117   0.95219   0.68516   0.00000  Uiso   1.00
H115   H     0.74331   0.92115   0.65736   0.00000  Uiso   1.00
H116   H     0.68645   0.85252   0.60177   0.00000  Uiso   1.00
H117   H     0.62577   0.88021   0.63086   0.00000  Uiso   1.00
C163   C     0.42036   0.22346   0.25357   0.00000  Uiso   1.00
C164   C     0.44186   0.23593   0.31639   0.00000  Uiso   1.00
H118   H     0.45196   0.19771   0.34027   0.00000  Uiso   1.00
H119   H     0.47942   0.26132   0.31347   0.00000  Uiso   1.00
H120   H     0.41128   0.25854   0.34341   0.00000  Uiso   1.00
H121   H     0.44796   0.19427   0.23092   0.00000  Uiso   1.00
H122   H     0.42324   0.26044   0.22523   0.00000  Uiso   1.00
C165   C     0.85528   0.34588   0.63623   0.00000  Uiso   1.00
C166   C     0.91329   0.32594   0.62328   0.00000  Uiso   1.00
H123   H     0.92573   0.33900   0.57786   0.00000  Uiso   1.00
H124   H     0.94290   0.34328   0.65571   0.00000  Uiso   1.00
H125   H     0.91483   0.28073   0.62538   0.00000  Uiso   1.00
H126   H     0.82801   0.33183   0.59971   0.00000  Uiso   1.00
H127   H     0.85321   0.39079   0.63239   0.00000  Uiso   1.00
C167   C     0.12840   0.66698   0.36024   0.00000  Uiso   1.00
C168   C     0.07308   0.69556   0.35435   0.00000  Uiso   1.00
H128   H     0.04798   0.67694   0.31845   0.00000  Uiso   1.00
H129   H     0.05011   0.69194   0.39692   0.00000  Uiso   1.00
H130   H     0.07929   0.73951   0.34446   0.00000  Uiso   1.00
H131   H     0.12225   0.62334   0.37116   0.00000  Uiso   1.00
H132   H     0.14917   0.68470   0.39981   0.00000  Uiso   1.00
C169   C     0.35372   0.14711   0.63300   0.00000  Uiso   1.00
C170   C     0.33414   0.08889   0.62082   0.00000  Uiso   1.00
H133   H     0.34718   0.07621   0.57541   0.00000  Uiso   1.00
H134   H     0.35177   0.05964   0.65312   0.00000  Uiso   1.00
H135   H     0.28872   0.08683   0.62326   0.00000  Uiso   1.00
H136   H     0.33909   0.17217   0.59512   0.00000  Uiso   1.00
H137   H     0.39891   0.14986   0.62994   0.00000  Uiso   1.00
C171   C     0.56884   0.78603   0.21154   0.00000  Uiso   1.00
C172   C     0.53381   0.76386   0.26270   0.00000  Uiso   1.00
H138   H     0.54966   0.72427   0.27904   0.00000  Uiso   1.00
H139   H     0.49110   0.75781   0.24708   0.00000  Uiso   1.00
H140   H     0.53316   0.79290   0.30065   0.00000  Uiso   1.00
H141   H     0.54930   0.82366   0.19434   0.00000  Uiso   1.00
H142   H     0.56747   0.75781   0.17279   0.00000  Uiso   1.00
C173   C     0.22354   0.57703   0.75166   0.00000  Uiso   1.00
C174   C     0.23755   0.55543   0.68923   0.00000  Uiso   1.00
H143   H     0.26188   0.51742   0.69267   0.00000  Uiso   1.00
H144   H     0.19969   0.54651   0.66368   0.00000  Uiso   1.00
H145   H     0.26207   0.58537   0.66345   0.00000  Uiso   1.00
H146   H     0.25962   0.57336   0.78153   0.00000  Uiso   1.00
H147   H     0.19261   0.55034   0.77291   0.00000  Uiso   1.00
C175   C     0.88689   0.32005   0.35017   0.00000  Uiso   1.00
C176   C     0.93883   0.29002   0.33100   0.00000  Uiso   1.00
H148   H     0.95876   0.31049   0.29265   0.00000  Uiso   1.00
H149   H     0.96844   0.28932   0.36860   0.00000  Uiso   1.00
H150   H     0.92881   0.24732   0.31842   0.00000  Uiso   1.00
H151   H     0.89726   0.36227   0.36404   0.00000  Uiso   1.00
H152   H     0.87194   0.29988   0.39116   0.00000  Uiso   1.00
C177   C     0.31530   0.89153   0.34741   0.00000  Uiso   1.00
C178   C     0.33560   0.86213   0.40307   0.00000  Uiso   1.00
H153   H     0.30738   0.82833   0.41511   0.00000  Uiso   1.00
H154   H     0.37726   0.84537   0.39522   0.00000  Uiso   1.00
H155   H     0.33753   0.89125   0.44100   0.00000  Uiso   1.00
H156   H     0.34251   0.92693   0.33899   0.00000  Uiso   1.00
H157   H     0.27425   0.90934   0.35625   0.00000  Uiso   1.00
C179   C     0.57544   0.21788   0.77909   0.00000  Uiso   1.00
C180   C     0.54319   0.23816   0.72498   0.00000  Uiso   1.00
H158   H     0.56223   0.27511   0.70547   0.00000  Uiso   1.00
H159   H     0.54113   0.20639   0.68982   0.00000  Uiso   1.00
H160   H     0.50073   0.24838   0.73883   0.00000  Uiso   1.00
H161   H     0.55307   0.18304   0.79921   0.00000  Uiso   1.00
H162   H     0.57511   0.24927   0.81485   0.00000  Uiso   1.00
C181   C     0.11597   0.32874   0.35795   0.00000  Uiso   1.00
C182   C     0.14647   0.36308   0.40414   0.00000  Uiso   1.00
H163   H     0.18388   0.34162   0.41957   0.00000  Uiso   1.00
H164   H     0.15839   0.40306   0.38494   0.00000  Uiso   1.00
H165   H     0.11947   0.37040   0.44320   0.00000  Uiso   1.00
H166   H     0.07674   0.34908   0.34667   0.00000  Uiso   1.00
H167   H     0.10389   0.28923   0.37831   0.00000  Uiso   1.00
C183   C     0.77927   0.56893   0.76304   0.00000  Uiso   1.00
C184   C     0.76197   0.54282   0.70402   0.00000  Uiso   1.00
H168   H     0.72434   0.56252   0.68657   0.00000  Uiso   1.00
H169   H     0.79495   0.54664   0.67021   0.00000  Uiso   1.00
H170   H     0.75328   0.49885   0.71111   0.00000  Uiso   1.00
H171   H     0.81298   0.54489   0.78312   0.00000  Uiso   1.00
H172   H     0.74502   0.56537   0.79550   0.00000  Uiso   1.00
C185   C     0.57031   0.22093   0.23323   0.00000  Uiso   1.00
C186   C     0.55585   0.20585   0.16887   0.00000  Uiso   1.00
H173   H     0.58685   0.22290   0.13773   0.00000  Uiso   1.00
H174   H     0.55373   0.16101   0.16284   0.00000  Uiso   1.00
H175   H     0.51529   0.22318   0.15708   0.00000  Uiso   1.00
H176   H     0.54160   0.20140   0.26465   0.00000  Uiso   1.00
H177   H     0.56282   0.26530   0.23723   0.00000  Uiso   1.00
C187   C     0.32591   0.88338   0.64358   0.00000  Uiso   1.00
C188   C     0.30060   0.93927   0.65573   0.00000  Uiso   1.00
H178   H     0.25660   0.93474   0.66744   0.00000  Uiso   1.00
H179   H     0.32204   0.96063   0.69258   0.00000  Uiso   1.00
H180   H     0.30381   0.96484   0.61507   0.00000  Uiso   1.00
H181   H     0.36967   0.88802   0.63122   0.00000  Uiso   1.00
H182   H     0.30568   0.86720   0.60309   0.00000  Uiso   1.00
C189   C     0.85778   0.65685   0.36152   0.00000  Uiso   1.00
C190   C     0.82643   0.61447   0.39797   0.00000  Uiso   1.00
H183   H     0.78487   0.62957   0.40940   0.00000  Uiso   1.00
H184   H     0.82241   0.57570   0.37273   0.00000  Uiso   1.00
H185   H     0.84887   0.60619   0.44006   0.00000  Uiso   1.00
H186   H     0.90083   0.64331   0.35590   0.00000  Uiso   1.00
H187   H     0.86066   0.69536   0.38757   0.00000  Uiso   1.00
C191   C     0.19958   0.40302   0.83022   0.00000  Uiso   1.00
C192   C     0.23888   0.44593   0.80636   0.00000  Uiso   1.00
H188   H     0.28105   0.42954   0.80221   0.00000  Uiso   1.00
H189   H     0.22461   0.45925   0.76188   0.00000  Uiso   1.00
H190   H     0.23989   0.48137   0.83722   0.00000  Uiso   1.00
H191   H     0.15992   0.42292   0.84070   0.00000  Uiso   1.00
H192   H     0.21518   0.38712   0.87337   0.00000  Uiso   1.00
loop_
_geom_bond_atom_site_label_1
_geom_bond_atom_site_label_2
_geom_bond_distance
_geom_bond_site_symmetry_2
_ccdc_geom_bond_type
C1     C12     1.478   .     S
C1     C49     1.416   .     A
C1     C75     1.419   .     A
C2     C50     1.402   .     A
C2     C11     1.477   .     S
C2     C76     1.412   .     A
C3     C73     1.422   .     A
C3     C51     1.413   .     A
C3     C10     1.525   .     S
C4     C74     1.405   .     A
C4     C9      1.476   .     S
C4     C52     1.413   .     A
C5     C79     1.415   .     A
C5     C53     1.418   .     A
C5     C16     1.480   .     S
C6     C54     1.406   .     A
C6     C15     1.480   .     S
C6     C80     1.414   .     A
C7     C55     1.396   .     A
C7     C77     1.396   .     A
C7     C14     1.472   .     S
C8     C56     1.400   .     A
C8     C13     1.472   .     S
C8     C78     1.401   .     A
C9     C67     1.403   .     A
C9     C57     1.413   .     A
C10    C68     1.421   .     A
C10    C58     1.415   .     A
C11    C59     1.418   .     A
C11    C65     1.417   .     A
C12    C66     1.401   .     A
C12    C60     1.413   .     A
C13    C71     1.398   .     A
C13    C61     1.397   .     A
C14    C62     1.402   .     A
C14    C72     1.399   .     A
C15    C69     1.415   .     A
C15    C63     1.414   .     A
C16    C70     1.405   .     A
C16    C64     1.410   .     A
C17    C32     1.420   1_655 S
C17    C18     1.197   1_655 S
C18    C31     1.420   .     S
C18    C17     1.197   1_455 S
C19    C30     1.421   .     S
C19    C20     1.197   1_545 S
C20    C29     1.421   .     S
C20    C19     1.197   1_565 S
C21    C28     1.420   .     S
C21    C22     1.197   1_556 S
C22    C27     1.420   .     S
C22    C21     1.197   1_554 S
C23    C26     1.421   .     S
C23    C24     1.197   1_556 S
C24    C25     1.421   .     S
C24    C23     1.197   1_554 S
C25    O5      1.279   1_655 S
C25    O9      1.278   1_655 S
C26    O6      1.279   1_655 S
C26    O10     1.278   1_655 S
C27    O7      1.275   1_565 S
C27    O11     1.275   1_565 S
C28    O8      1.275   1_565 S
C28    O12     1.275   1_565 S
C29    O13     1.279   .     A
C29    O17     1.278   1_565 S
C30    O14     1.279   .     A
C30    O18     1.278   1_545 S
C31    O19     1.275   .     A
C31    O15     1.275   1_455 S
C32    C17     1.420   1_455 S
C32    O20     1.275   1_455 A
C32    O16     1.275   .     S
C33    C122    1.467   .     S
C33    O21     1.279   .     A
C33    O51     1.272   .     A
C34    O22     1.278   .     A
C34    O52     1.276   .     A
C34    C121    1.471   .     S
C35    C128    1.474   .     S
C35    O49     1.273   .     A
C35    O23     1.281   .     A
C36    O50     1.278   .     A
C36    C127    1.476   .     S
C36    O24     1.278   .     A
C37    C126    1.462   .     S
C37    O25     1.275   .     A
C37    O47     1.270   .     A
C38    O48     1.275   .     A
C38    O26     1.282   .     A
C38    C125    1.482   .     S
C39    C124    1.482   .     S
C39    O27     1.279   .     A
C39    O45     1.277   .     A
C40    O46     1.271   .     A
C40    C123    1.466   .     S
C40    O28     1.276   .     A
C41    O43     1.278   .     A
C41    O29     1.276   .     A
C41    C114    1.479   .     S
C42    O44     1.276   .     A
C42    O30     1.271   .     A
C42    C113    1.464   .     S
C43    C120    1.464   .     S
C43    O31     1.272   .     A
C43    O41     1.275   .     A
C44    C119    1.488   .     S
C44    O32     1.277   .     A
C44    O42     1.284   .     A
C45    C118    1.463   .     S
C45    O33     1.270   .     A
C45    O39     1.277   .     A
C46    C117    1.472   .     S
C46    O40     1.275   .     A
C46    O34     1.278   .     A
C47    O37     1.276   .     A
C47    C116    1.468   .     S
C47    O35     1.276   .     A
C48    O36     1.270   .     A
C48    O38     1.278   .     A
C48    C115    1.462   .     S
C49    O53     1.386   .     S
C49    C81     1.404   .     A
C50    C82     1.418   .     A
C50    O54     1.387   .     S
C51    C83     1.417   .     A
C51    O55     1.383   .     S
C52    C84     1.402   .     A
C52    O56     1.386   .     S
C53    C85     1.409   .     A
C53    O57     1.386   .     S
C54    C86     1.418   .     A
C54    O58     1.385   .     S
C55    O59     1.385   .     S
C55    C87     1.416   .     A
C56    C88     1.412   .     A
C56    O60     1.379   .     S
C57    O61     1.386   .     S
C57    C89     1.404   .     A
C58    O62     1.383   .     S
C58    C90     1.417   .     A
C59    O63     1.387   .     S
C59    C91     1.405   .     A
C60    O64     1.386   .     S
C60    C92     1.406   .     A
C61    O65     1.379   .     S
C61    C93     1.413   .     A
C62    C94     1.419   .     A
C62    O66     1.385   .     S
C63    O67     1.385   .     S
C63    C95     1.402   .     A
C64    C96     1.402   .     A
C64    O68     1.386   .     S
C65    O69     1.386   .     S
C65    C97     1.405   .     A
C66    O70     1.387   .     S
C66    C98     1.418   .     A
C67    C99     1.413   .     A
C67    O71     1.381   .     S
C68    C100    1.405   .     A
C68    O72     1.381   .     S
C69    C101    1.408   .     A
C69    O73     1.385   .     S
C70    C102    1.424   .     A
C70    O74     1.386   .     S
C71    O75     1.386   .     S
C71    C103    1.419   .     A
C72    O76     1.378   .     S
C72    C104    1.410   .     A
C73    O77     1.381   .     S
C73    C105    1.405   .     A
C74    C106    1.419   .     A
C74    O78     1.386   .     S
C75    C107    1.406   .     A
C75    O79     1.386   .     S
C76    C108    1.405   .     A
C76    O80     1.386   .     S
C77    O81     1.380   .     S
C77    C109    1.414   .     A
C78    O82     1.379   .     S
C78    C110    1.412   .     A
C79    O83     1.385   .     S
C79    C111    1.403   .     A
C80    C112    1.401   .     A
C80    O84     1.384   .     S
C81    C129    1.524   .     S
C81    C113    1.416   .     A
C82    C131    1.522   .     S
C82    C114    1.425   .     A
C83    C133    1.530   .     S
C83    C115    1.418   .     A
C84    C116    1.418   .     A
C84    C135    1.523   .     S
C85    C117    1.422   .     A
C85    C137    1.528   .     S
C86    C139    1.523   .     S
C86    C118    1.417   .     A
C87    C141    1.516   .     S
C87    C119    1.427   .     A
C88    C120    1.420   .     A
C88    C143    1.528   .     S
C89    C145    1.524   .     S
C89    C121    1.421   .     A
C90    C122    1.416   .     A
C90    C147    1.524   .     S
C91    C149    1.523   .     S
C91    C123    1.416   .     A
C92    C124    1.424   .     A
C92    C151    1.524   .     S
C93    C125    1.423   .     A
C93    C153    1.524   .     S
C94    C155    1.530   .     S
C94    C126    1.422   .     A
C95    C157    1.524   .     S
C95    C127    1.422   .     A
C96    C159    1.517   .     S
C96    C128    1.416   .     A
C97    C123    1.417   .     A
C97    C161    1.526   .     S
C98    C124    1.426   .     A
C98    C163    1.521   .     S
C99    C121    1.423   .     A
C99    C165    1.526   .     S
C100   C167    1.526   .     S
C100   C122    1.417   .     A
C101   C127    1.426   .     A
C101   C169    1.530   .     S
C102   C128    1.425   .     A
C102   C171    1.527   .     S
C103   C173    1.519   .     S
C103   C125    1.427   .     A
C104   C175    1.528   .     S
C104   C126    1.419   .     A
C105   C115    1.413   .     A
C105   C177    1.523   .     S
C106   C116    1.422   .     A
C106   C179    1.527   .     S
C107   C113    1.416   .     A
C107   C181    1.523   .     S
C108   C183    1.524   .     S
C108   C114    1.423   .     A
C109   C185    1.524   .     S
C109   C119    1.425   .     A
C110   C187    1.527   .     S
C110   C120    1.420   .     A
C111   C189    1.524   .     S
C111   C117    1.418   .     A
C112   C191    1.520   .     S
C112   C118    1.414   .     A
O1     Zn12    1.943   .     S
O1     Zn1     1.935   .     S
O1     Zn16    1.940   .     S
O1     Zn5     1.935   1_455 S
O2     Zn15    1.940   .     S
O2     Zn6     1.935   .     S
O2     Zn11    1.943   .     S
O2     Zn2     1.935   1_455 S
O3     Zn7     1.940   .     S
O3     Zn10    1.935   .     S
O3     Zn14    1.935   .     S
O3     Zn3     1.943   1_545 S
O4     Zn13    1.935   .     S
O4     Zn4     1.943   .     S
O4     Zn9     1.935   .     S
O4     Zn8     1.940   1_545 S
O5     Zn16    1.913   .     S
O5     C25     1.279   1_455 S
O6     Zn15    1.913   .     S
O6     C26     1.279   1_455 S
O7     Zn10    1.911   .     S
O7     C27     1.275   1_545 S
O8     Zn9     1.911   .     S
O8     C28     1.275   1_545 S
O9     Zn12    1.911   .     S
O9     C25     1.278   1_455 S
O10    Zn11    1.911   .     S
O10    C26     1.278   1_455 S
O11    Zn14    1.911   .     S
O11    C27     1.275   1_545 S
O12    Zn13    1.911   .     S
O12    C28     1.275   1_545 S
O13    Zn8     1.913   .     S
O14    Zn7     1.913   .     S
O15    Zn2     1.911   .     S
O15    C31     1.275   1_655 S
O16    Zn1     1.911   .     S
O17    Zn4     1.911   .     S
O17    C29     1.278   1_545 S
O18    Zn3     1.911   .     S
O18    C30     1.278   1_565 S
O19    Zn6     1.911   .     S
O20    Zn5     1.911   .     S
O20    C32     1.275   1_655 A
O21    Zn12    1.933   .     S
O22    Zn11    1.933   1_655 S
O23    Zn14    1.939   1_565 S
O24    Zn13    1.939   .     S
O25    Zn16    1.933   1_655 S
O26    Zn15    1.933   .     S
O27    Zn10    1.938   .     S
O28    Zn9     1.938   1_565 S
O29    Zn15    1.936   1_655 S
O30    Zn16    1.936   .     S
O31    Zn13    1.936   1_565 S
O32    Zn14    1.936   .     S
O33    Zn11    1.935   .     S
O34    Zn12    1.935   1_655 S
O35    Zn9     1.937   .     S
O36    Zn10    1.937   1_565 S
O37    Zn4     1.933   .     S
O38    Zn3     1.933   .     S
O39    Zn6     1.939   .     S
O40    Zn5     1.939   .     S
O41    Zn8     1.933   .     S
O42    Zn7     1.933   .     S
O43    Zn2     1.938   .     S
O44    Zn1     1.938   .     S
O45    Zn7     1.936   .     S
O46    Zn8     1.936   .     S
O47    Zn5     1.936   .     S
O48    Zn6     1.936   .     S
O49    Zn3     1.935   .     S
O50    Zn4     1.935   .     S
O51    Zn1     1.937   .     S
O52    Zn2     1.937   .     S
Zn2    O2      1.935   1_655 S
Zn3    O3      1.943   1_565 S
Zn5    O1      1.935   1_655 S
Zn8    O4      1.940   1_565 S
Zn9    O28     1.938   1_545 S
Zn10   O36     1.937   1_545 S
Zn11   O22     1.933   1_455 S
Zn12   O34     1.935   1_455 S
Zn13   O31     1.936   1_545 S
Zn14   O23     1.939   1_545 S
Zn15   O29     1.936   1_455 S
Zn16   O25     1.933   1_455 S
O53    H1      0.989   .     S
O54    H2      0.985   .     S
O55    H3      0.988   .     S
O56    H4      0.989   .     S
O57    H5      0.987   .     S
O58    H6      0.987   .     S
O59    H7      0.987   .     S
O60    H8      0.990   .     S
O61    H9      0.988   .     S
O62    H10     0.989   .     S
O63    H11     0.987   .     S
O64    H12     0.988   .     S
O65    H13     0.991   .     S
O66    H14     0.986   .     S
O67    H15     0.990   .     S
O68    H16     0.989   .     S
O69    H17     0.989   .     S
O70    H18     0.985   .     S
O71    H19     0.990   .     S
O72    H20     0.992   .     S
O73    H21     0.989   .     S
O74    H22     0.984   .     S
O75    H23     0.985   .     S
O76    H24     0.990   .     S
O77    H25     0.991   .     S
O78    H26     0.985   .     S
O79    H27     0.987   .     S
O80    H28     0.988   .     S
O81    H29     0.991   .     S
O82    H30     0.990   .     S
O83    H31     0.989   .     S
O84    H32     0.989   .     S
C129   H36     1.111   .     S
C129   C130    1.527   .     S
C129   H37     1.107   .     S
C130   H34     1.111   .     S
C130   H35     1.110   .     S
C130   H33     1.110   .     S
C131   H42     1.111   .     S
C131   C132    1.533   .     S
C131   H41     1.107   .     S
C132   H39     1.109   .     S
C132   H38     1.109   .     S
C132   H40     1.109   .     S
C133   H46     1.110   .     S
C133   H47     1.108   .     S
C133   C134    1.529   .     S
C134   H43     1.111   .     S
C134   H45     1.109   .     S
C134   H44     1.110   .     S
C135   C136    1.528   .     S
C135   H52     1.112   .     S
C135   H51     1.109   .     S
C136   H50     1.110   .     S
C136   H48     1.110   .     S
C136   H49     1.110   1_545 S
H49    C136    1.110   1_565 S
C137   H57     1.107   .     S
C137   H56     1.109   .     S
C137   C138    1.528   .     S
C138   H55     1.111   .     S
C138   H54     1.109   .     S
C138   H53     1.110   .     S
C139   C140    1.529   .     S
C139   H62     1.111   .     S
C139   H61     1.110   .     S
C140   H59     1.109   .     S
C140   H58     1.110   .     S
C140   H60     1.109   .     S
C141   H67     1.108   .     S
C141   H66     1.110   .     S
C141   C142    1.536   .     S
C142   H65     1.108   .     S
C142   H64     1.111   .     S
C142   H63     1.109   .     S
C143   H72     1.106   .     S
C143   H71     1.109   .     S
C143   C144    1.529   .     S
C144   H69     1.111   .     S
C144   H68     1.108   .     S
C144   H70     1.111   .     S
C145   H76     1.109   .     S
C145   H77     1.112   .     S
C145   C146    1.528   .     S
C146   H75     1.110   .     S
C146   H74     1.110   .     S
C146   H73     1.110   .     S
C147   C148    1.529   .     S
C147   H81     1.109   .     S
C147   H82     1.111   .     S
C148   H79     1.109   .     S
C148   H78     1.110   .     S
C148   H80     1.110   .     S
C149   H87     1.111   .     S
C149   H86     1.110   .     S
C149   C150    1.527   .     S
C150   H85     1.110   .     S
C150   H83     1.110   .     S
C150   H84     1.110   .     S
C151   H91     1.109   .     S
C151   H92     1.112   .     S
C151   C152    1.528   .     S
C152   H88     1.110   .     S
C152   H89     1.110   .     S
C152   H90     1.111   1_545 S
H90    C152    1.111   1_565 S
C153   H96     1.103   .     S
C153   H97     1.107   .     S
C153   C154    1.529   .     S
C154   H94     1.109   .     S
C154   H95     1.110   .     S
C154   H93     1.111   .     S
C155   C156    1.528   .     S
C155   H102    1.109   .     S
C155   H101    1.107   .     S
C156   H99     1.111   .     S
C156   H98     1.109   .     S
C156   H100    1.110   .     S
C157   H107    1.112   .     S
C157   C158    1.529   .     S
C157   H106    1.109   .     S
C158   H103    1.110   .     S
C158   H105    1.110   .     S
C158   H104    1.109   .     S
C159   H111    1.109   .     S
C159   C160    1.524   .     S
C159   H112    1.112   .     S
C160   H110    1.107   .     S
C160   H108    1.109   .     S
C160   H109    1.110   .     S
C161   H117    1.108   .     S
C161   H116    1.110   .     S
C161   C162    1.527   .     S
C162   H113    1.110   .     S
C162   H115    1.111   .     S
C162   H114    1.108   .     S
C163   C164    1.533   .     S
C163   H122    1.111   .     S
C163   H121    1.106   .     S
C164   H118    1.109   .     S
C164   H120    1.110   .     S
C164   H119    1.109   .     S
C165   H127    1.106   .     S
C165   C166    1.526   .     S
C165   H126    1.109   .     S
C166   H123    1.110   .     S
C166   H125    1.110   .     S
C166   H124    1.109   .     S
C167   C168    1.528   .     S
C167   H131    1.108   .     S
C167   H132    1.110   .     S
C168   H130    1.111   .     S
C168   H128    1.109   .     S
C168   H129    1.110   .     S
C169   H137    1.107   .     S
C169   C170    1.529   .     S
C169   H136    1.109   .     S
C170   H133    1.111   .     S
C170   H134    1.108   .     S
C170   H135    1.111   .     S
C171   H141    1.110   .     S
C171   C172    1.531   .     S
C171   H142    1.110   .     S
C172   H138    1.109   .     S
C172   H140    1.109   .     S
C172   H139    1.109   .     S
C173   H147    1.107   .     S
C173   H146    1.110   .     S
C173   C174    1.534   .     S
C174   H143    1.109   .     S
C174   H145    1.110   .     S
C174   H144    1.109   .     S
C175   C176    1.528   .     S
C175   H152    1.106   .     S
C175   H151    1.109   .     S
C176   H150    1.111   .     S
C176   H149    1.111   .     S
C176   H148    1.109   .     S
C177   C178    1.526   .     S
C177   H157    1.111   .     S
C177   H156    1.109   .     S
C178   H154    1.111   .     S
C178   H155    1.111   .     S
C178   H153    1.111   .     S
C179   C180    1.531   .     S
C179   H161    1.110   .     S
C179   H162    1.110   .     S
C180   H158    1.109   .     S
C180   H160    1.110   .     S
C180   H159    1.108   .     S
C181   H167    1.111   .     S
C181   H166    1.110   .     S
C181   C182    1.527   .     S
C182   H163    1.110   .     S
C182   H165    1.110   .     S
C182   H164    1.110   .     S
C183   H171    1.109   .     S
C183   H172    1.112   .     S
C183   C184    1.528   .     S
C184   H170    1.110   .     S
C184   H168    1.110   .     S
C184   H169    1.110   .     S
C185   C186    1.530   .     S
C185   H176    1.103   .     S
C185   H177    1.107   .     S
C186   H173    1.111   .     S
C186   H174    1.109   .     S
C186   H175    1.110   .     S
C187   H182    1.106   .     S
C187   C188    1.528   .     S
C187   H181    1.109   .     S
C188   H180    1.110   .     S
C188   H179    1.109   .     S
C188   H178    1.111   .     S
C189   H187    1.112   .     S
C189   H186    1.109   .     S
C189   C190    1.528   .     S
C190   H183    1.110   .     S
C190   H185    1.110   .     S
C190   H184    1.110   .     S
C191   H192    1.112   .     S
C191   H191    1.110   .     S
C191   C192    1.521   .     S
C192   H188    1.109   .     S
C192   H190    1.110   .     S
C192   H189    1.107   .     S
