data_str_m1_o1_o5_pcu_sym.6
_audit_creation_date              2020-01-03
_audit_creation_method            'Materials Studio'
_symmetry_space_group_name_H-M    'P1'
_symmetry_Int_Tables_number       1
_symmetry_cell_setting            triclinic
loop_
_symmetry_equiv_pos_as_xyz
  x,y,z
_cell_length_a                    36.7318
_cell_length_b                    36.7150
_cell_length_c                    22.4189
_cell_angle_alpha                 89.9833
_cell_angle_beta                  89.9990
_cell_angle_gamma                 90.0109
loop_
_atom_site_label
_atom_site_type_symbol
_atom_site_fract_x
_atom_site_fract_y
_atom_site_fract_z
_atom_site_U_iso_or_equiv
_atom_site_adp_type
_atom_site_occupancy
C1     C     0.00000   0.25000   0.02667   0.00000  Uiso   1.00
C2     C     0.00000   0.25000   0.58993   0.00000  Uiso   1.00
C3     C     0.25000   0.00000   0.41006   0.00000  Uiso   1.00
C4     C     0.25000  -0.00000   0.58994   0.00000  Uiso   1.00
C5     C     0.25000  -0.00000   0.91007   0.00000  Uiso   1.00
C6     C     0.25000   0.00000   0.08993   0.00000  Uiso   1.00
C7     C     0.00000   0.25000   0.91006   0.00000  Uiso   1.00
C8     C     0.00000   0.25000   0.08994   0.00000  Uiso   1.00
C9     C     0.07001   0.17999   0.25004   0.00000  Uiso   1.00
C10    C     0.42998   0.32003   0.74999   0.00000  Uiso   1.00
C11    C     0.17996   0.42996   0.24999   0.00000  Uiso   1.00
C12    C     0.00000   0.25000   0.97333   0.00000  Uiso   1.00
C13    C     0.32003   0.07003   0.75001   0.00000  Uiso   1.00
C14    C     0.42998   0.32003   0.25000   0.00000  Uiso   1.00
C15    C     0.07003   0.17998   0.74999   0.00000  Uiso   1.00
C16    C     0.32001   0.07001   0.24996   0.00000  Uiso   1.00
C17    C     0.17998   0.42997   0.75000   0.00000  Uiso   1.00
C18    C     0.07002   0.32003   0.75000   0.00000  Uiso   1.00
C19    C     0.42988   0.18005   0.25032   0.00000  Uiso   1.00
C20    C     0.17997   0.07002   0.75001   0.00000  Uiso   1.00
C21    C     0.32002   0.42997   0.25001   0.00000  Uiso   1.00
C22    C     0.42998   0.17997   0.75000   0.00000  Uiso   1.00
C23    C     0.25000   0.00001   0.02667   0.00000  Uiso   1.00
C24    C     0.06999   0.32000   0.25000   0.00000  Uiso   1.00
C25    C     0.32002   0.42997   0.75001   0.00000  Uiso   1.00
C26    C     0.17988   0.06994   0.24968   0.00000  Uiso   1.00
C27    C     0.13484   0.33788   0.25303   0.00000  Uiso   1.00
C28    C     0.36498   0.16208   0.75246   0.00000  Uiso   1.00
C29    C     0.35999   0.38704   0.19552   0.00000  Uiso   1.00
C30    C     0.16206   0.13503   0.75263   0.00000  Uiso   1.00
C31    C     0.38812   0.13901   0.19584   0.00000  Uiso   1.00
C32    C     0.11294   0.36001   0.80448   0.00000  Uiso   1.00
C33    C     0.13840   0.11191   0.19487   0.00000  Uiso   1.00
C34    C     0.25000  -0.00000   0.97333   0.00000  Uiso   1.00
C35    C     0.33796   0.36495   0.75263   0.00000  Uiso   1.00
C36    C     0.13502   0.16207   0.75262   0.00000  Uiso   1.00
C37    C     0.38704   0.36002   0.19552   0.00000  Uiso   1.00
C38    C     0.33794   0.13504   0.75247   0.00000  Uiso   1.00
C39    C     0.16187   0.36472   0.25309   0.00000  Uiso   1.00
C40    C     0.36499   0.33792   0.75260   0.00000  Uiso   1.00
C41    C     0.11148   0.13880   0.19534   0.00000  Uiso   1.00
C42    C     0.13999   0.38703   0.80449   0.00000  Uiso   1.00
C43    C     0.36103   0.11200   0.19561   0.00000  Uiso   1.00
C44    C     0.38502   0.08792   0.74754   0.00000  Uiso   1.00
C45    C     0.25000  -0.00000   0.52667   0.00000  Uiso   1.00
C46    C     0.11474   0.41189   0.24689   0.00000  Uiso   1.00
C47    C     0.08794   0.11497   0.74737   0.00000  Uiso   1.00
C48    C     0.39000   0.36295   0.30449   0.00000  Uiso   1.00
C49    C     0.13706   0.38999   0.69551   0.00000  Uiso   1.00
C50    C     0.36148   0.11119   0.30466   0.00000  Uiso   1.00
C51    C     0.41204   0.38505   0.74737   0.00000  Uiso   1.00
C52    C     0.11103   0.13800   0.30439   0.00000  Uiso   1.00
C53    C     0.36295   0.38997   0.30449   0.00000  Uiso   1.00
C54    C     0.11498   0.08793   0.74738   0.00000  Uiso   1.00
C55    C     0.08790   0.38486   0.24697   0.00000  Uiso   1.00
C56    C     0.25000   0.00000   0.47333   0.00000  Uiso   1.00
C57    C     0.41206   0.11496   0.74753   0.00000  Uiso   1.00
C58    C     0.13811   0.11098   0.30416   0.00000  Uiso   1.00
C59    C     0.38501   0.41208   0.74740   0.00000  Uiso   1.00
C60    C     0.38842   0.13808   0.30513   0.00000  Uiso   1.00
C61    C     0.11001   0.36297   0.69551   0.00000  Uiso   1.00
C62    C     0.15186   0.40186   0.24999   0.00000  Uiso   1.00
C63    C     0.34811   0.09811   0.75001   0.00000  Uiso   1.00
C64    C     0.40190   0.34812   0.25000   0.00000  Uiso   1.00
C65    C     0.09811   0.15189   0.74999   0.00000  Uiso   1.00
C66    C     0.34796   0.09816   0.25005   0.00000  Uiso   1.00
C67    C    -0.00000   0.25000   0.52667   0.00000  Uiso   1.00
C68    C     0.15190   0.40188   0.75000   0.00000  Uiso   1.00
C69    C     0.09797   0.15184   0.24995   0.00000  Uiso   1.00
C70    C     0.40189   0.34812   0.74997   0.00000  Uiso   1.00
C71    C     0.15189   0.09811   0.75001   0.00000  Uiso   1.00
C72    C     0.34810   0.40188   0.25001   0.00000  Uiso   1.00
C73    C     0.40189   0.15189   0.74999   0.00000  Uiso   1.00
C74    C     0.09802   0.34802   0.25001   0.00000  Uiso   1.00
C75    C     0.34811   0.40189   0.75003   0.00000  Uiso   1.00
C76    C     0.15179   0.09805   0.24945   0.00000  Uiso   1.00
C77    C     0.09810   0.34812   0.75000   0.00000  Uiso   1.00
C78    C    -0.00000   0.24999   0.47333   0.00000  Uiso   1.00
C79    C     0.40180   0.15194   0.25055   0.00000  Uiso   1.00
C80    C     0.49999   0.25000   0.41007   0.00000  Uiso   1.00
H81    H     0.15923   0.29634   0.29710   0.00000  Uiso   1.00
H82    H     0.38148   0.16418   0.11587   0.00000  Uiso   1.00
H83    H     0.12127   0.33340   0.88275   0.00000  Uiso   1.00
H84    H     0.08872   0.36631   0.88534   0.00000  Uiso   1.00
H85    H     0.14832   0.06986   0.13808   0.00000  Uiso   1.00
H86    H     0.17801   0.10546   0.13244   0.00000  Uiso   1.00
H87    H     0.29484   0.33999   0.79200   0.00000  Uiso   1.00
H88    H     0.29432   0.33922   0.71615   0.00000  Uiso   1.00
H89    H     0.15993   0.20521   0.79199   0.00000  Uiso   1.00
H90    H     0.16075   0.20573   0.71614   0.00000  Uiso   1.00
H91    H     0.41124   0.36633   0.11465   0.00000  Uiso   1.00
H92    H     0.16160   0.29362   0.22172   0.00000  Uiso   1.00
H93    H     0.37868   0.33342   0.11727   0.00000  Uiso   1.00
H94    H     0.29433   0.16071   0.71575   0.00000  Uiso   1.00
H95    H     0.29474   0.16000   0.79160   0.00000  Uiso   1.00
H96    H     0.21293   0.36015   0.21897   0.00000  Uiso   1.00
H97    H     0.21120   0.36739   0.29407   0.00000  Uiso   1.00
H98    H     0.34012   0.29470   0.79193   0.00000  Uiso   1.00
H99    H     0.33931   0.29423   0.71607   0.00000  Uiso   1.00
H100   H     0.08598   0.13053   0.11634   0.00000  Uiso   1.00
H101   H     0.11838   0.16341   0.11526   0.00000  Uiso   1.00
H102   H     0.16656   0.37864   0.88275   0.00000  Uiso   1.00
H103   H     0.33934   0.20573   0.71573   0.00000  Uiso   1.00
H104   H     0.13372   0.41125   0.88534   0.00000  Uiso   1.00
H105   H     0.33606   0.11898   0.11559   0.00000  Uiso   1.00
H106   H     0.36889   0.08632   0.11636   0.00000  Uiso   1.00
H107   H     0.40995   0.04469   0.70842   0.00000  Uiso   1.00
H108   H     0.41066   0.04427   0.78427   0.00000  Uiso   1.00
H109   H     0.11744   0.46124   0.20589   0.00000  Uiso   1.00
H110   H     0.11019   0.46298   0.28098   0.00000  Uiso   1.00
H111   H     0.04427   0.08925   0.78388   0.00000  Uiso   1.00
H112   H     0.04477   0.09006   0.70803   0.00000  Uiso   1.00
H113   H     0.41659   0.37134   0.38273   0.00000  Uiso   1.00
H114   H     0.34005   0.20531   0.79158   0.00000  Uiso   1.00
H115   H     0.38374   0.33873   0.38536   0.00000  Uiso   1.00
H116   H     0.16128   0.38369   0.61466   0.00000  Uiso   1.00
H117   H     0.12873   0.41660   0.61725   0.00000  Uiso   1.00
H118   H     0.33599   0.11947   0.38367   0.00000  Uiso   1.00
H119   H     0.36837   0.08658   0.38474   0.00000  Uiso   1.00
H120   H     0.45568   0.41078   0.78385   0.00000  Uiso   1.00
H121   H     0.45516   0.41001   0.70799   0.00000  Uiso   1.00
H122   H     0.08607   0.13103   0.38442   0.00000  Uiso   1.00
H123   H     0.11891   0.16368   0.38362   0.00000  Uiso   1.00
H124   H     0.37130   0.41656   0.38275   0.00000  Uiso   1.00
H125   H     0.36625   0.41126   0.11464   0.00000  Uiso   1.00
H126   H     0.33874   0.38365   0.38534   0.00000  Uiso   1.00
H127   H     0.08925   0.04427   0.78385   0.00000  Uiso   1.00
H128   H     0.09007   0.04479   0.70800   0.00000  Uiso   1.00
H129   H     0.04367   0.41166   0.27829   0.00000  Uiso   1.00
H130   H     0.04639   0.40928   0.20291   0.00000  Uiso   1.00
H131   H     0.45526   0.09000   0.70840   0.00000  Uiso   1.00
H132   H     0.45567   0.08929   0.78425   0.00000  Uiso   1.00
H133   H     0.13145   0.08581   0.38411   0.00000  Uiso   1.00
H134   H     0.16400   0.11876   0.38324   0.00000  Uiso   1.00
H135   H     0.41069   0.45577   0.78393   0.00000  Uiso   1.00
H136   H     0.33339   0.37865   0.11729   0.00000  Uiso   1.00
H137   H     0.40988   0.45530   0.70808   0.00000  Uiso   1.00
H138   H     0.42804   0.14449   0.36755   0.00000  Uiso   1.00
H139   H     0.39838   0.18011   0.36194   0.00000  Uiso   1.00
H140   H     0.11629   0.33874   0.61466   0.00000  Uiso   1.00
H141   H     0.08344   0.37136   0.61725   0.00000  Uiso   1.00
H142   H     0.20523   0.15994   0.79198   0.00000  Uiso   1.00
H143   H     0.20573   0.16075   0.71612   0.00000  Uiso   1.00
H144   H     0.41402   0.13123   0.11676   0.00000  Uiso   1.00
N145   N     0.14460   0.30012   0.25758   0.00000  Uiso   1.00
N146   N     0.40038   0.34522   0.14039   0.00000  Uiso   1.00
N147   N     0.30006   0.14477   0.75321   0.00000  Uiso   1.00
N148   N     0.19921   0.35357   0.25833   0.00000  Uiso   1.00
N149   N     0.35528   0.30001   0.75346   0.00000  Uiso   1.00
N150   N     0.09698   0.15239   0.14017   0.00000  Uiso   1.00
N151   N     0.15479   0.40037   0.85962   0.00000  Uiso   1.00
N152   N     0.34731   0.09767   0.14039   0.00000  Uiso   1.00
N153   N     0.39473   0.05002   0.74682   0.00000  Uiso   1.00
N154   N     0.10362   0.44925   0.24163   0.00000  Uiso   1.00
N155   N     0.05006   0.10524   0.74649   0.00000  Uiso   1.00
N156   N     0.35527   0.19998   0.75318   0.00000  Uiso   1.00
N157   N     0.40481   0.34961   0.35962   0.00000  Uiso   1.00
N158   N     0.15042   0.40479   0.64038   0.00000  Uiso   1.00
N159   N     0.34698   0.09760   0.35983   0.00000  Uiso   1.00
N160   N     0.44991   0.39480   0.74646   0.00000  Uiso   1.00
N161   N     0.09733   0.15234   0.35960   0.00000  Uiso   1.00
N162   N     0.34960   0.40476   0.35962   0.00000  Uiso   1.00
N163   N     0.10524   0.05004   0.74648   0.00000  Uiso   1.00
N164   N     0.05016   0.39464   0.24244   0.00000  Uiso   1.00
N165   N     0.44994   0.10523   0.74680   0.00000  Uiso   1.00
N166   N     0.15264   0.09719   0.35920   0.00000  Uiso   1.00
N167   N     0.34518   0.40037   0.14039   0.00000  Uiso   1.00
N168   N     0.39472   0.44999   0.74654   0.00000  Uiso   1.00
N169   N     0.40078   0.15173   0.36163   0.00000  Uiso   1.00
N170   N     0.09521   0.34963   0.64038   0.00000  Uiso   1.00
N171   N     0.19994   0.14476   0.75352   0.00000  Uiso   1.00
N172   N     0.40266   0.15280   0.14080   0.00000  Uiso   1.00
N173   N     0.09958   0.34521   0.85962   0.00000  Uiso   1.00
N174   N     0.15074   0.09824   0.13837   0.00000  Uiso   1.00
N175   N     0.30009   0.35520   0.75354   0.00000  Uiso   1.00
N176   N     0.14476   0.19996   0.75351   0.00000  Uiso   1.00
O177   O     0.00000   0.25000   0.25000   0.00000  Uiso   1.00
O178   O     0.00000   0.28035   0.61781   0.00000  Uiso   1.00
O179   O     0.21965   0.00000   0.38219   0.00000  Uiso   1.00
O180   O     0.28036   0.00000   0.61781   0.00000  Uiso   1.00
O181   O     0.25000   0.03036   0.88219   0.00000  Uiso   1.00
O182   O     0.25000   0.46965   0.11781   0.00000  Uiso   1.00
O183   O     0.03036   0.25000   0.88219   0.00000  Uiso   1.00
O184   O     0.46965   0.25000   0.11781   0.00000  Uiso   1.00
O185   O     0.25000   0.46965   0.88219   0.00000  Uiso   1.00
O186   O     0.25000   0.03036   0.11781   0.00000  Uiso   1.00
O187   O     0.46965   0.25000   0.88219   0.00000  Uiso   1.00
O188   O     0.00000   0.25000   0.75000   0.00000  Uiso   1.00
O189   O     0.03036   0.25000   0.11781   0.00000  Uiso   1.00
O190   O     0.04268   0.17692   0.28474   0.00000  Uiso   1.00
O191   O     0.45733   0.32308   0.71526   0.00000  Uiso   1.00
O192   O     0.17693   0.45732   0.28474   0.00000  Uiso   1.00
O193   O     0.32308   0.04268   0.71526   0.00000  Uiso   1.00
O194   O     0.45733   0.32308   0.28474   0.00000  Uiso   1.00
O195   O     0.04268   0.17692   0.71526   0.00000  Uiso   1.00
O196   O     0.32308   0.04268   0.28474   0.00000  Uiso   1.00
O197   O     0.17693   0.45732   0.71526   0.00000  Uiso   1.00
O198   O     0.04268   0.32307   0.71526   0.00000  Uiso   1.00
O199   O     0.25000   0.00000   0.25000   0.00000  Uiso   1.00
O200   O     0.45733   0.17693   0.28474   0.00000  Uiso   1.00
O201   O     0.17693   0.04268   0.71526   0.00000  Uiso   1.00
O202   O     0.32308   0.45733   0.28474   0.00000  Uiso   1.00
O203   O     0.45733   0.17693   0.71526   0.00000  Uiso   1.00
O204   O     0.04268   0.32307   0.28474   0.00000  Uiso   1.00
O205   O     0.32308   0.45733   0.71526   0.00000  Uiso   1.00
O206   O     0.17693   0.04268   0.28474   0.00000  Uiso   1.00
O207   O     0.29268   0.42693   0.78474   0.00000  Uiso   1.00
O208   O     0.20733   0.07308   0.21526   0.00000  Uiso   1.00
O209   O     0.42693   0.20733   0.78474   0.00000  Uiso   1.00
O210   O     0.25000   0.00000   0.75000   0.00000  Uiso   1.00
O211   O     0.07308   0.29267   0.21526   0.00000  Uiso   1.00
O212   O     0.20733   0.07308   0.78474   0.00000  Uiso   1.00
O213   O     0.29268   0.42693   0.21526   0.00000  Uiso   1.00
O214   O     0.07308   0.29267   0.78474   0.00000  Uiso   1.00
O215   O     0.42693   0.20733   0.21526   0.00000  Uiso   1.00
O216   O     0.29268   0.07308   0.21526   0.00000  Uiso   1.00
O217   O     0.20733   0.42693   0.78474   0.00000  Uiso   1.00
O218   O     0.42693   0.29268   0.21526   0.00000  Uiso   1.00
O219   O     0.07308   0.20732   0.78474   0.00000  Uiso   1.00
O220   O     0.20733   0.42693   0.21526   0.00000  Uiso   1.00
O221   O     0.00000   0.28036   0.38219   0.00000  Uiso   1.00
O222   O     0.29268   0.07308   0.78474   0.00000  Uiso   1.00
O223   O     0.07308   0.20732   0.21526   0.00000  Uiso   1.00
O224   O     0.42693   0.29268   0.78474   0.00000  Uiso   1.00
O225   O     0.00000   0.21964   0.61781   0.00000  Uiso   1.00
O226   O     0.28036   0.00000   0.38219   0.00000  Uiso   1.00
O227   O     0.21965   0.00000   0.61781   0.00000  Uiso   1.00
O228   O     0.00000   0.21965   0.38219   0.00000  Uiso   1.00
Zn229  Zn    0.04333   0.25000   0.20067   0.00000  Uiso   1.00
Zn230  Zn    0.20667   0.00000   0.29933   0.00000  Uiso   1.00
Zn231  Zn    0.00000   0.20667   0.70067   0.00000  Uiso   1.00
Zn232  Zn    0.00000   0.29333   0.29933   0.00000  Uiso   1.00
Zn233  Zn    0.20667   0.00000   0.70067   0.00000  Uiso   1.00
Zn234  Zn    0.29333   0.00000   0.29933   0.00000  Uiso   1.00
Zn235  Zn    0.00000   0.29333   0.70067   0.00000  Uiso   1.00
Zn236  Zn    0.00000   0.20667   0.29933   0.00000  Uiso   1.00
Zn237  Zn    0.45667   0.25000   0.79933   0.00000  Uiso   1.00
Zn238  Zn    0.25000   0.45667   0.20067   0.00000  Uiso   1.00
Zn239  Zn    0.25000   0.04333   0.79933   0.00000  Uiso   1.00
Zn240  Zn    0.45667   0.25000   0.20067   0.00000  Uiso   1.00
Zn241  Zn    0.04333   0.25000   0.79933   0.00000  Uiso   1.00
Zn242  Zn    0.25000   0.04333   0.20067   0.00000  Uiso   1.00
Zn243  Zn    0.25000   0.45667   0.79933   0.00000  Uiso   1.00
Zn244  Zn    0.29333   0.00000   0.70067   0.00000  Uiso   1.00
C245   C     0.50000   0.25000   0.02667   0.00000  Uiso   1.00
C246   C     0.50000   0.25000   0.58993   0.00000  Uiso   1.00
C247   C     0.75000   0.00000   0.41006   0.00000  Uiso   1.00
C248   C     0.75000  -0.00000   0.58994   0.00000  Uiso   1.00
C249   C     0.75000  -0.00000   0.91007   0.00000  Uiso   1.00
C250   C     0.75000   0.00000   0.08993   0.00000  Uiso   1.00
C251   C     0.50000   0.25000   0.91006   0.00000  Uiso   1.00
C252   C     0.50000   0.25000   0.08994   0.00000  Uiso   1.00
C253   C     0.57001   0.17999   0.25004   0.00000  Uiso   1.00
C254   C     0.92998   0.32003   0.74999   0.00000  Uiso   1.00
C255   C     0.67996   0.42996   0.24999   0.00000  Uiso   1.00
C256   C     0.50000   0.25000   0.97333   0.00000  Uiso   1.00
C257   C     0.82003   0.07003   0.75001   0.00000  Uiso   1.00
C258   C     0.92998   0.32003   0.25000   0.00000  Uiso   1.00
C259   C     0.57003   0.17998   0.74999   0.00000  Uiso   1.00
C260   C     0.82001   0.07001   0.24996   0.00000  Uiso   1.00
C261   C     0.67998   0.42997   0.75000   0.00000  Uiso   1.00
C262   C     0.57002   0.32003   0.75000   0.00000  Uiso   1.00
C263   C     0.92988   0.18005   0.25032   0.00000  Uiso   1.00
C264   C     0.67997   0.07002   0.75001   0.00000  Uiso   1.00
C265   C     0.82002   0.42997   0.25001   0.00000  Uiso   1.00
C266   C     0.92998   0.17997   0.75000   0.00000  Uiso   1.00
C267   C     0.75000   0.00001   0.02667   0.00000  Uiso   1.00
C268   C     0.56999   0.32000   0.25000   0.00000  Uiso   1.00
C269   C     0.82002   0.42997   0.75001   0.00000  Uiso   1.00
C270   C     0.67988   0.06994   0.24968   0.00000  Uiso   1.00
C271   C     0.63484   0.33788   0.25303   0.00000  Uiso   1.00
C272   C     0.86498   0.16208   0.75246   0.00000  Uiso   1.00
C273   C     0.85999   0.38704   0.19552   0.00000  Uiso   1.00
C274   C     0.66206   0.13503   0.75263   0.00000  Uiso   1.00
C275   C     0.88812   0.13901   0.19584   0.00000  Uiso   1.00
C276   C     0.61294   0.36001   0.80448   0.00000  Uiso   1.00
C277   C     0.63840   0.11191   0.19487   0.00000  Uiso   1.00
C278   C     0.75000  -0.00000   0.97333   0.00000  Uiso   1.00
C279   C     0.83796   0.36495   0.75263   0.00000  Uiso   1.00
C280   C     0.63502   0.16207   0.75262   0.00000  Uiso   1.00
C281   C     0.88704   0.36002   0.19552   0.00000  Uiso   1.00
C282   C     0.83794   0.13504   0.75247   0.00000  Uiso   1.00
C283   C     0.66187   0.36472   0.25309   0.00000  Uiso   1.00
C284   C     0.86499   0.33792   0.75260   0.00000  Uiso   1.00
C285   C     0.61148   0.13880   0.19534   0.00000  Uiso   1.00
C286   C     0.63999   0.38703   0.80449   0.00000  Uiso   1.00
C287   C     0.86103   0.11200   0.19561   0.00000  Uiso   1.00
C288   C     0.88502   0.08792   0.74754   0.00000  Uiso   1.00
C289   C     0.75000  -0.00000   0.52667   0.00000  Uiso   1.00
C290   C     0.61474   0.41189   0.24689   0.00000  Uiso   1.00
C291   C     0.58794   0.11497   0.74737   0.00000  Uiso   1.00
C292   C     0.89000   0.36295   0.30449   0.00000  Uiso   1.00
C293   C     0.63706   0.38999   0.69551   0.00000  Uiso   1.00
C294   C     0.86148   0.11119   0.30466   0.00000  Uiso   1.00
C295   C     0.91204   0.38505   0.74737   0.00000  Uiso   1.00
C296   C     0.61103   0.13800   0.30439   0.00000  Uiso   1.00
C297   C     0.86295   0.38997   0.30449   0.00000  Uiso   1.00
C298   C     0.61498   0.08793   0.74738   0.00000  Uiso   1.00
C299   C     0.58790   0.38486   0.24697   0.00000  Uiso   1.00
C300   C     0.75000   0.00000   0.47333   0.00000  Uiso   1.00
C301   C     0.91206   0.11496   0.74753   0.00000  Uiso   1.00
C302   C     0.63811   0.11098   0.30416   0.00000  Uiso   1.00
C303   C     0.88501   0.41208   0.74740   0.00000  Uiso   1.00
C304   C     0.88842   0.13808   0.30513   0.00000  Uiso   1.00
C305   C     0.61001   0.36297   0.69551   0.00000  Uiso   1.00
C306   C     0.65186   0.40186   0.24999   0.00000  Uiso   1.00
C307   C     0.84811   0.09811   0.75001   0.00000  Uiso   1.00
C308   C     0.90190   0.34812   0.25000   0.00000  Uiso   1.00
C309   C     0.59811   0.15189   0.74999   0.00000  Uiso   1.00
C310   C     0.84796   0.09816   0.25005   0.00000  Uiso   1.00
C311   C     0.50000   0.25000   0.52667   0.00000  Uiso   1.00
C312   C     0.65190   0.40188   0.75000   0.00000  Uiso   1.00
C313   C     0.59797   0.15184   0.24995   0.00000  Uiso   1.00
C314   C     0.90189   0.34812   0.74997   0.00000  Uiso   1.00
C315   C     0.65189   0.09811   0.75001   0.00000  Uiso   1.00
C316   C     0.84810   0.40188   0.25001   0.00000  Uiso   1.00
C317   C     0.90189   0.15189   0.74999   0.00000  Uiso   1.00
C318   C     0.59802   0.34802   0.25001   0.00000  Uiso   1.00
C319   C     0.84811   0.40189   0.75003   0.00000  Uiso   1.00
C320   C     0.65179   0.09805   0.24945   0.00000  Uiso   1.00
C321   C     0.59810   0.34812   0.75000   0.00000  Uiso   1.00
C322   C     0.50000   0.24999   0.47333   0.00000  Uiso   1.00
C323   C     0.90180   0.15194   0.25055   0.00000  Uiso   1.00
C324   C     0.99999   0.25000   0.41007   0.00000  Uiso   1.00
H325   H     0.65923   0.29634   0.29710   0.00000  Uiso   1.00
H326   H     0.88148   0.16418   0.11587   0.00000  Uiso   1.00
H327   H     0.62127   0.33340   0.88275   0.00000  Uiso   1.00
H328   H     0.58872   0.36631   0.88534   0.00000  Uiso   1.00
H329   H     0.64832   0.06986   0.13808   0.00000  Uiso   1.00
H330   H     0.67801   0.10546   0.13244   0.00000  Uiso   1.00
H331   H     0.79484   0.33999   0.79200   0.00000  Uiso   1.00
H332   H     0.79432   0.33922   0.71615   0.00000  Uiso   1.00
H333   H     0.65993   0.20521   0.79199   0.00000  Uiso   1.00
H334   H     0.66075   0.20573   0.71614   0.00000  Uiso   1.00
H335   H     0.91124   0.36633   0.11465   0.00000  Uiso   1.00
H336   H     0.66160   0.29362   0.22172   0.00000  Uiso   1.00
H337   H     0.87868   0.33342   0.11727   0.00000  Uiso   1.00
H338   H     0.79433   0.16071   0.71575   0.00000  Uiso   1.00
H339   H     0.79474   0.16000   0.79160   0.00000  Uiso   1.00
H340   H     0.71293   0.36015   0.21897   0.00000  Uiso   1.00
H341   H     0.71120   0.36739   0.29407   0.00000  Uiso   1.00
H342   H     0.84012   0.29470   0.79193   0.00000  Uiso   1.00
H343   H     0.83931   0.29423   0.71607   0.00000  Uiso   1.00
H344   H     0.58598   0.13053   0.11634   0.00000  Uiso   1.00
H345   H     0.61838   0.16341   0.11526   0.00000  Uiso   1.00
H346   H     0.66656   0.37864   0.88275   0.00000  Uiso   1.00
H347   H     0.83934   0.20573   0.71573   0.00000  Uiso   1.00
H348   H     0.63372   0.41125   0.88534   0.00000  Uiso   1.00
H349   H     0.83606   0.11898   0.11559   0.00000  Uiso   1.00
H350   H     0.86889   0.08632   0.11636   0.00000  Uiso   1.00
H351   H     0.90995   0.04469   0.70842   0.00000  Uiso   1.00
H352   H     0.91066   0.04427   0.78427   0.00000  Uiso   1.00
H353   H     0.61744   0.46124   0.20589   0.00000  Uiso   1.00
H354   H     0.61019   0.46298   0.28098   0.00000  Uiso   1.00
H355   H     0.54427   0.08925   0.78388   0.00000  Uiso   1.00
H356   H     0.54477   0.09006   0.70803   0.00000  Uiso   1.00
H357   H     0.91659   0.37134   0.38273   0.00000  Uiso   1.00
H358   H     0.84005   0.20531   0.79158   0.00000  Uiso   1.00
H359   H     0.88374   0.33873   0.38536   0.00000  Uiso   1.00
H360   H     0.66128   0.38369   0.61466   0.00000  Uiso   1.00
H361   H     0.62873   0.41660   0.61725   0.00000  Uiso   1.00
H362   H     0.83599   0.11947   0.38367   0.00000  Uiso   1.00
H363   H     0.86837   0.08658   0.38474   0.00000  Uiso   1.00
H364   H     0.95568   0.41078   0.78385   0.00000  Uiso   1.00
H365   H     0.95516   0.41001   0.70799   0.00000  Uiso   1.00
H366   H     0.58607   0.13103   0.38442   0.00000  Uiso   1.00
H367   H     0.61891   0.16368   0.38362   0.00000  Uiso   1.00
H368   H     0.87130   0.41656   0.38275   0.00000  Uiso   1.00
H369   H     0.86625   0.41126   0.11464   0.00000  Uiso   1.00
H370   H     0.83874   0.38365   0.38534   0.00000  Uiso   1.00
H371   H     0.58925   0.04427   0.78385   0.00000  Uiso   1.00
H372   H     0.59007   0.04479   0.70800   0.00000  Uiso   1.00
H373   H     0.54367   0.41166   0.27829   0.00000  Uiso   1.00
H374   H     0.54639   0.40928   0.20291   0.00000  Uiso   1.00
H375   H     0.95526   0.09000   0.70840   0.00000  Uiso   1.00
H376   H     0.95567   0.08929   0.78425   0.00000  Uiso   1.00
H377   H     0.63145   0.08581   0.38411   0.00000  Uiso   1.00
H378   H     0.66400   0.11876   0.38324   0.00000  Uiso   1.00
H379   H     0.91069   0.45577   0.78393   0.00000  Uiso   1.00
H380   H     0.83339   0.37865   0.11729   0.00000  Uiso   1.00
H381   H     0.90988   0.45530   0.70808   0.00000  Uiso   1.00
H382   H     0.92804   0.14449   0.36755   0.00000  Uiso   1.00
H383   H     0.89838   0.18011   0.36194   0.00000  Uiso   1.00
H384   H     0.61629   0.33874   0.61466   0.00000  Uiso   1.00
H385   H     0.58344   0.37136   0.61725   0.00000  Uiso   1.00
H386   H     0.70523   0.15994   0.79198   0.00000  Uiso   1.00
H387   H     0.70573   0.16075   0.71612   0.00000  Uiso   1.00
H388   H     0.91402   0.13123   0.11676   0.00000  Uiso   1.00
N389   N     0.64460   0.30012   0.25758   0.00000  Uiso   1.00
N390   N     0.90038   0.34522   0.14039   0.00000  Uiso   1.00
N391   N     0.80006   0.14477   0.75321   0.00000  Uiso   1.00
N392   N     0.69921   0.35357   0.25833   0.00000  Uiso   1.00
N393   N     0.85528   0.30001   0.75346   0.00000  Uiso   1.00
N394   N     0.59698   0.15239   0.14017   0.00000  Uiso   1.00
N395   N     0.65479   0.40037   0.85962   0.00000  Uiso   1.00
N396   N     0.84731   0.09767   0.14039   0.00000  Uiso   1.00
N397   N     0.89473   0.05002   0.74682   0.00000  Uiso   1.00
N398   N     0.60362   0.44925   0.24163   0.00000  Uiso   1.00
N399   N     0.55006   0.10524   0.74649   0.00000  Uiso   1.00
N400   N     0.85527   0.19998   0.75318   0.00000  Uiso   1.00
N401   N     0.90481   0.34961   0.35962   0.00000  Uiso   1.00
N402   N     0.65042   0.40479   0.64038   0.00000  Uiso   1.00
N403   N     0.84698   0.09760   0.35983   0.00000  Uiso   1.00
N404   N     0.94991   0.39480   0.74646   0.00000  Uiso   1.00
N405   N     0.59733   0.15234   0.35960   0.00000  Uiso   1.00
N406   N     0.84960   0.40476   0.35962   0.00000  Uiso   1.00
N407   N     0.60524   0.05004   0.74648   0.00000  Uiso   1.00
N408   N     0.55016   0.39464   0.24244   0.00000  Uiso   1.00
N409   N     0.94994   0.10523   0.74680   0.00000  Uiso   1.00
N410   N     0.65264   0.09719   0.35920   0.00000  Uiso   1.00
N411   N     0.84518   0.40037   0.14039   0.00000  Uiso   1.00
N412   N     0.89472   0.44999   0.74654   0.00000  Uiso   1.00
N413   N     0.90078   0.15173   0.36163   0.00000  Uiso   1.00
N414   N     0.59521   0.34963   0.64038   0.00000  Uiso   1.00
N415   N     0.69994   0.14476   0.75352   0.00000  Uiso   1.00
N416   N     0.90266   0.15280   0.14080   0.00000  Uiso   1.00
N417   N     0.59958   0.34521   0.85962   0.00000  Uiso   1.00
N418   N     0.65074   0.09824   0.13837   0.00000  Uiso   1.00
N419   N     0.80009   0.35520   0.75354   0.00000  Uiso   1.00
N420   N     0.64476   0.19996   0.75351   0.00000  Uiso   1.00
O421   O     0.50000   0.25000   0.25000   0.00000  Uiso   1.00
O422   O     0.50000   0.28035   0.61781   0.00000  Uiso   1.00
O423   O     0.71965   0.00000   0.38219   0.00000  Uiso   1.00
O424   O     0.78036   0.00000   0.61781   0.00000  Uiso   1.00
O425   O     0.75000   0.03036   0.88219   0.00000  Uiso   1.00
O426   O     0.75000   0.46965   0.11781   0.00000  Uiso   1.00
O427   O     0.53036   0.25000   0.88219   0.00000  Uiso   1.00
O428   O     0.96965   0.25000   0.11781   0.00000  Uiso   1.00
O429   O     0.75000   0.46965   0.88219   0.00000  Uiso   1.00
O430   O     0.75000   0.03036   0.11781   0.00000  Uiso   1.00
O431   O     0.96965   0.25000   0.88219   0.00000  Uiso   1.00
O432   O     0.50000   0.25000   0.75000   0.00000  Uiso   1.00
O433   O     0.53036   0.25000   0.11781   0.00000  Uiso   1.00
O434   O     0.54268   0.17692   0.28474   0.00000  Uiso   1.00
O435   O     0.95733   0.32308   0.71526   0.00000  Uiso   1.00
O436   O     0.67693   0.45732   0.28474   0.00000  Uiso   1.00
O437   O     0.82308   0.04268   0.71526   0.00000  Uiso   1.00
O438   O     0.95733   0.32308   0.28474   0.00000  Uiso   1.00
O439   O     0.54268   0.17692   0.71526   0.00000  Uiso   1.00
O440   O     0.82308   0.04268   0.28474   0.00000  Uiso   1.00
O441   O     0.67693   0.45732   0.71526   0.00000  Uiso   1.00
O442   O     0.54268   0.32307   0.71526   0.00000  Uiso   1.00
O443   O     0.75000   0.00000   0.25000   0.00000  Uiso   1.00
O444   O     0.95733   0.17693   0.28474   0.00000  Uiso   1.00
O445   O     0.67693   0.04268   0.71526   0.00000  Uiso   1.00
O446   O     0.82308   0.45733   0.28474   0.00000  Uiso   1.00
O447   O     0.95733   0.17693   0.71526   0.00000  Uiso   1.00
O448   O     0.54268   0.32307   0.28474   0.00000  Uiso   1.00
O449   O     0.82308   0.45733   0.71526   0.00000  Uiso   1.00
O450   O     0.67693   0.04268   0.28474   0.00000  Uiso   1.00
O451   O     0.79268   0.42693   0.78474   0.00000  Uiso   1.00
O452   O     0.70733   0.07308   0.21526   0.00000  Uiso   1.00
O453   O     0.92693   0.20733   0.78474   0.00000  Uiso   1.00
O454   O     0.75000   0.00000   0.75000   0.00000  Uiso   1.00
O455   O     0.57308   0.29267   0.21526   0.00000  Uiso   1.00
O456   O     0.70733   0.07308   0.78474   0.00000  Uiso   1.00
O457   O     0.79268   0.42693   0.21526   0.00000  Uiso   1.00
O458   O     0.57308   0.29267   0.78474   0.00000  Uiso   1.00
O459   O     0.92693   0.20733   0.21526   0.00000  Uiso   1.00
O460   O     0.79268   0.07308   0.21526   0.00000  Uiso   1.00
O461   O     0.70733   0.42693   0.78474   0.00000  Uiso   1.00
O462   O     0.92693   0.29268   0.21526   0.00000  Uiso   1.00
O463   O     0.57308   0.20732   0.78474   0.00000  Uiso   1.00
O464   O     0.70733   0.42693   0.21526   0.00000  Uiso   1.00
O465   O     0.50000   0.28036   0.38219   0.00000  Uiso   1.00
O466   O     0.79268   0.07308   0.78474   0.00000  Uiso   1.00
O467   O     0.57308   0.20732   0.21526   0.00000  Uiso   1.00
O468   O     0.92693   0.29268   0.78474   0.00000  Uiso   1.00
O469   O     0.50000   0.21964   0.61781   0.00000  Uiso   1.00
O470   O     0.78036   0.00000   0.38219   0.00000  Uiso   1.00
O471   O     0.71965   0.00000   0.61781   0.00000  Uiso   1.00
O472   O     0.50000   0.21965   0.38219   0.00000  Uiso   1.00
Zn473  Zn    0.54333   0.25000   0.20067   0.00000  Uiso   1.00
Zn474  Zn    0.70667   0.00000   0.29933   0.00000  Uiso   1.00
Zn475  Zn    0.50000   0.20667   0.70067   0.00000  Uiso   1.00
Zn476  Zn    0.50000   0.29333   0.29933   0.00000  Uiso   1.00
Zn477  Zn    0.70667   0.00000   0.70067   0.00000  Uiso   1.00
Zn478  Zn    0.79333   0.00000   0.29933   0.00000  Uiso   1.00
Zn479  Zn    0.50000   0.29333   0.70067   0.00000  Uiso   1.00
Zn480  Zn    0.50000   0.20667   0.29933   0.00000  Uiso   1.00
Zn481  Zn    0.95667   0.25000   0.79933   0.00000  Uiso   1.00
Zn482  Zn    0.75000   0.45667   0.20067   0.00000  Uiso   1.00
Zn483  Zn    0.75000   0.04333   0.79933   0.00000  Uiso   1.00
Zn484  Zn    0.95667   0.25000   0.20067   0.00000  Uiso   1.00
Zn485  Zn    0.54333   0.25000   0.79933   0.00000  Uiso   1.00
Zn486  Zn    0.75000   0.04333   0.20067   0.00000  Uiso   1.00
Zn487  Zn    0.75000   0.45667   0.79933   0.00000  Uiso   1.00
Zn488  Zn    0.79333   0.00000   0.70067   0.00000  Uiso   1.00
C489   C     0.00000   0.75000   0.02667   0.00000  Uiso   1.00
C490   C     0.00000   0.75000   0.58993   0.00000  Uiso   1.00
C491   C     0.25000   0.50000   0.41006   0.00000  Uiso   1.00
C492   C     0.25000   0.50000   0.58994   0.00000  Uiso   1.00
C493   C     0.25000   0.50000   0.91007   0.00000  Uiso   1.00
C494   C     0.25000   0.50000   0.08993   0.00000  Uiso   1.00
C495   C     0.00000   0.75000   0.91006   0.00000  Uiso   1.00
C496   C     0.00000   0.75000   0.08994   0.00000  Uiso   1.00
C497   C     0.07001   0.67999   0.25004   0.00000  Uiso   1.00
C498   C     0.42998   0.82003   0.74999   0.00000  Uiso   1.00
C499   C     0.17996   0.92996   0.24999   0.00000  Uiso   1.00
C500   C     0.00000   0.75000   0.97333   0.00000  Uiso   1.00
C501   C     0.32003   0.57003   0.75001   0.00000  Uiso   1.00
C502   C     0.42998   0.82003   0.25000   0.00000  Uiso   1.00
C503   C     0.07003   0.67998   0.74999   0.00000  Uiso   1.00
C504   C     0.32001   0.57001   0.24996   0.00000  Uiso   1.00
C505   C     0.17998   0.92997   0.75000   0.00000  Uiso   1.00
C506   C     0.07002   0.82003   0.75000   0.00000  Uiso   1.00
C507   C     0.42988   0.68005   0.25032   0.00000  Uiso   1.00
C508   C     0.17997   0.57002   0.75001   0.00000  Uiso   1.00
C509   C     0.32002   0.92997   0.25001   0.00000  Uiso   1.00
C510   C     0.42998   0.67997   0.75000   0.00000  Uiso   1.00
C511   C     0.25000   0.50001   0.02667   0.00000  Uiso   1.00
C512   C     0.06999   0.82000   0.25000   0.00000  Uiso   1.00
C513   C     0.32002   0.92997   0.75001   0.00000  Uiso   1.00
C514   C     0.17988   0.56994   0.24968   0.00000  Uiso   1.00
C515   C     0.13484   0.83788   0.25303   0.00000  Uiso   1.00
C516   C     0.36498   0.66208   0.75246   0.00000  Uiso   1.00
C517   C     0.35999   0.88704   0.19552   0.00000  Uiso   1.00
C518   C     0.16206   0.63503   0.75263   0.00000  Uiso   1.00
C519   C     0.38812   0.63901   0.19584   0.00000  Uiso   1.00
C520   C     0.11294   0.86001   0.80448   0.00000  Uiso   1.00
C521   C     0.13840   0.61191   0.19487   0.00000  Uiso   1.00
C522   C     0.25000   0.50000   0.97333   0.00000  Uiso   1.00
C523   C     0.33796   0.86495   0.75263   0.00000  Uiso   1.00
C524   C     0.13502   0.66207   0.75262   0.00000  Uiso   1.00
C525   C     0.38704   0.86002   0.19552   0.00000  Uiso   1.00
C526   C     0.33794   0.63504   0.75247   0.00000  Uiso   1.00
C527   C     0.16187   0.86472   0.25309   0.00000  Uiso   1.00
C528   C     0.36499   0.83792   0.75260   0.00000  Uiso   1.00
C529   C     0.11148   0.63880   0.19534   0.00000  Uiso   1.00
C530   C     0.13999   0.88703   0.80449   0.00000  Uiso   1.00
C531   C     0.36103   0.61200   0.19561   0.00000  Uiso   1.00
C532   C     0.38502   0.58792   0.74754   0.00000  Uiso   1.00
C533   C     0.25000   0.50000   0.52667   0.00000  Uiso   1.00
C534   C     0.11474   0.91189   0.24689   0.00000  Uiso   1.00
C535   C     0.08794   0.61497   0.74737   0.00000  Uiso   1.00
C536   C     0.39000   0.86295   0.30449   0.00000  Uiso   1.00
C537   C     0.13706   0.88999   0.69551   0.00000  Uiso   1.00
C538   C     0.36148   0.61119   0.30466   0.00000  Uiso   1.00
C539   C     0.41204   0.88505   0.74737   0.00000  Uiso   1.00
C540   C     0.11103   0.63800   0.30439   0.00000  Uiso   1.00
C541   C     0.36295   0.88997   0.30449   0.00000  Uiso   1.00
C542   C     0.11498   0.58793   0.74738   0.00000  Uiso   1.00
C543   C     0.08790   0.88486   0.24697   0.00000  Uiso   1.00
C544   C     0.25000   0.50000   0.47333   0.00000  Uiso   1.00
C545   C     0.41206   0.61496   0.74753   0.00000  Uiso   1.00
C546   C     0.13811   0.61098   0.30416   0.00000  Uiso   1.00
C547   C     0.38501   0.91208   0.74740   0.00000  Uiso   1.00
C548   C     0.38842   0.63808   0.30513   0.00000  Uiso   1.00
C549   C     0.11001   0.86297   0.69551   0.00000  Uiso   1.00
C550   C     0.15186   0.90186   0.24999   0.00000  Uiso   1.00
C551   C     0.34811   0.59811   0.75001   0.00000  Uiso   1.00
C552   C     0.40190   0.84812   0.25000   0.00000  Uiso   1.00
C553   C     0.09811   0.65189   0.74999   0.00000  Uiso   1.00
C554   C     0.34796   0.59816   0.25005   0.00000  Uiso   1.00
C555   C    -0.00000   0.75000   0.52667   0.00000  Uiso   1.00
C556   C     0.15190   0.90188   0.75000   0.00000  Uiso   1.00
C557   C     0.09797   0.65184   0.24995   0.00000  Uiso   1.00
C558   C     0.40189   0.84812   0.74997   0.00000  Uiso   1.00
C559   C     0.15189   0.59811   0.75001   0.00000  Uiso   1.00
C560   C     0.34810   0.90188   0.25001   0.00000  Uiso   1.00
C561   C     0.40189   0.65189   0.74999   0.00000  Uiso   1.00
C562   C     0.09802   0.84802   0.25001   0.00000  Uiso   1.00
C563   C     0.34811   0.90189   0.75003   0.00000  Uiso   1.00
C564   C     0.15179   0.59805   0.24945   0.00000  Uiso   1.00
C565   C     0.09810   0.84812   0.75000   0.00000  Uiso   1.00
C566   C    -0.00000   0.74999   0.47333   0.00000  Uiso   1.00
C567   C     0.40180   0.65194   0.25055   0.00000  Uiso   1.00
C568   C     0.49999   0.75000   0.41007   0.00000  Uiso   1.00
H569   H     0.15923   0.79634   0.29710   0.00000  Uiso   1.00
H570   H     0.38148   0.66418   0.11587   0.00000  Uiso   1.00
H571   H     0.12127   0.83340   0.88275   0.00000  Uiso   1.00
H572   H     0.08872   0.86631   0.88534   0.00000  Uiso   1.00
H573   H     0.14832   0.56986   0.13808   0.00000  Uiso   1.00
H574   H     0.17801   0.60546   0.13244   0.00000  Uiso   1.00
H575   H     0.29484   0.83999   0.79200   0.00000  Uiso   1.00
H576   H     0.29432   0.83922   0.71615   0.00000  Uiso   1.00
H577   H     0.15993   0.70521   0.79199   0.00000  Uiso   1.00
H578   H     0.16075   0.70573   0.71614   0.00000  Uiso   1.00
H579   H     0.41124   0.86633   0.11465   0.00000  Uiso   1.00
H580   H     0.16160   0.79362   0.22172   0.00000  Uiso   1.00
H581   H     0.37868   0.83342   0.11727   0.00000  Uiso   1.00
H582   H     0.29433   0.66071   0.71575   0.00000  Uiso   1.00
H583   H     0.29474   0.66000   0.79160   0.00000  Uiso   1.00
H584   H     0.21293   0.86015   0.21897   0.00000  Uiso   1.00
H585   H     0.21120   0.86739   0.29407   0.00000  Uiso   1.00
H586   H     0.34012   0.79470   0.79193   0.00000  Uiso   1.00
H587   H     0.33931   0.79423   0.71607   0.00000  Uiso   1.00
H588   H     0.08598   0.63053   0.11634   0.00000  Uiso   1.00
H589   H     0.11838   0.66341   0.11526   0.00000  Uiso   1.00
H590   H     0.16656   0.87864   0.88275   0.00000  Uiso   1.00
H591   H     0.33934   0.70573   0.71573   0.00000  Uiso   1.00
H592   H     0.13372   0.91125   0.88534   0.00000  Uiso   1.00
H593   H     0.33606   0.61898   0.11559   0.00000  Uiso   1.00
H594   H     0.36889   0.58632   0.11636   0.00000  Uiso   1.00
H595   H     0.40995   0.54469   0.70842   0.00000  Uiso   1.00
H596   H     0.41066   0.54427   0.78427   0.00000  Uiso   1.00
H597   H     0.11744   0.96124   0.20589   0.00000  Uiso   1.00
H598   H     0.11019   0.96298   0.28098   0.00000  Uiso   1.00
H599   H     0.04427   0.58925   0.78388   0.00000  Uiso   1.00
H600   H     0.04477   0.59006   0.70803   0.00000  Uiso   1.00
H601   H     0.41659   0.87134   0.38273   0.00000  Uiso   1.00
H602   H     0.34005   0.70531   0.79158   0.00000  Uiso   1.00
H603   H     0.38374   0.83873   0.38536   0.00000  Uiso   1.00
H604   H     0.16128   0.88369   0.61466   0.00000  Uiso   1.00
H605   H     0.12873   0.91660   0.61725   0.00000  Uiso   1.00
H606   H     0.33599   0.61947   0.38367   0.00000  Uiso   1.00
H607   H     0.36837   0.58658   0.38474   0.00000  Uiso   1.00
H608   H     0.45568   0.91078   0.78385   0.00000  Uiso   1.00
H609   H     0.45516   0.91001   0.70799   0.00000  Uiso   1.00
H610   H     0.08607   0.63103   0.38442   0.00000  Uiso   1.00
H611   H     0.11891   0.66368   0.38362   0.00000  Uiso   1.00
H612   H     0.37130   0.91656   0.38275   0.00000  Uiso   1.00
H613   H     0.36625   0.91126   0.11464   0.00000  Uiso   1.00
H614   H     0.33874   0.88365   0.38534   0.00000  Uiso   1.00
H615   H     0.08925   0.54427   0.78385   0.00000  Uiso   1.00
H616   H     0.09007   0.54479   0.70800   0.00000  Uiso   1.00
H617   H     0.04367   0.91166   0.27829   0.00000  Uiso   1.00
H618   H     0.04639   0.90928   0.20291   0.00000  Uiso   1.00
H619   H     0.45526   0.59000   0.70840   0.00000  Uiso   1.00
H620   H     0.45567   0.58929   0.78425   0.00000  Uiso   1.00
H621   H     0.13145   0.58581   0.38411   0.00000  Uiso   1.00
H622   H     0.16400   0.61876   0.38324   0.00000  Uiso   1.00
H623   H     0.41069   0.95577   0.78393   0.00000  Uiso   1.00
H624   H     0.33339   0.87865   0.11729   0.00000  Uiso   1.00
H625   H     0.40988   0.95530   0.70808   0.00000  Uiso   1.00
H626   H     0.42804   0.64449   0.36755   0.00000  Uiso   1.00
H627   H     0.39838   0.68011   0.36194   0.00000  Uiso   1.00
H628   H     0.11629   0.83874   0.61466   0.00000  Uiso   1.00
H629   H     0.08344   0.87136   0.61725   0.00000  Uiso   1.00
H630   H     0.20523   0.65994   0.79198   0.00000  Uiso   1.00
H631   H     0.20573   0.66075   0.71612   0.00000  Uiso   1.00
H632   H     0.41402   0.63123   0.11676   0.00000  Uiso   1.00
N633   N     0.14460   0.80012   0.25758   0.00000  Uiso   1.00
N634   N     0.40038   0.84522   0.14039   0.00000  Uiso   1.00
N635   N     0.30006   0.64477   0.75321   0.00000  Uiso   1.00
N636   N     0.19921   0.85357   0.25833   0.00000  Uiso   1.00
N637   N     0.35528   0.80001   0.75346   0.00000  Uiso   1.00
N638   N     0.09698   0.65239   0.14017   0.00000  Uiso   1.00
N639   N     0.15479   0.90037   0.85962   0.00000  Uiso   1.00
N640   N     0.34731   0.59767   0.14039   0.00000  Uiso   1.00
N641   N     0.39473   0.55002   0.74682   0.00000  Uiso   1.00
N642   N     0.10362   0.94925   0.24163   0.00000  Uiso   1.00
N643   N     0.05006   0.60524   0.74649   0.00000  Uiso   1.00
N644   N     0.35527   0.69998   0.75318   0.00000  Uiso   1.00
N645   N     0.40481   0.84961   0.35962   0.00000  Uiso   1.00
N646   N     0.15042   0.90479   0.64038   0.00000  Uiso   1.00
N647   N     0.34698   0.59760   0.35983   0.00000  Uiso   1.00
N648   N     0.44991   0.89480   0.74646   0.00000  Uiso   1.00
N649   N     0.09733   0.65234   0.35960   0.00000  Uiso   1.00
N650   N     0.34960   0.90476   0.35962   0.00000  Uiso   1.00
N651   N     0.10524   0.55004   0.74648   0.00000  Uiso   1.00
N652   N     0.05016   0.89464   0.24244   0.00000  Uiso   1.00
N653   N     0.44994   0.60523   0.74680   0.00000  Uiso   1.00
N654   N     0.15264   0.59719   0.35920   0.00000  Uiso   1.00
N655   N     0.34518   0.90037   0.14039   0.00000  Uiso   1.00
N656   N     0.39472   0.94999   0.74654   0.00000  Uiso   1.00
N657   N     0.40078   0.65173   0.36163   0.00000  Uiso   1.00
N658   N     0.09521   0.84963   0.64038   0.00000  Uiso   1.00
N659   N     0.19994   0.64476   0.75352   0.00000  Uiso   1.00
N660   N     0.40266   0.65280   0.14080   0.00000  Uiso   1.00
N661   N     0.09958   0.84521   0.85962   0.00000  Uiso   1.00
N662   N     0.15074   0.59824   0.13837   0.00000  Uiso   1.00
N663   N     0.30009   0.85520   0.75354   0.00000  Uiso   1.00
N664   N     0.14476   0.69996   0.75351   0.00000  Uiso   1.00
O665   O     0.00000   0.75000   0.25000   0.00000  Uiso   1.00
O666   O     0.00000   0.78035   0.61781   0.00000  Uiso   1.00
O667   O     0.21965   0.50000   0.38219   0.00000  Uiso   1.00
O668   O     0.28036   0.50000   0.61781   0.00000  Uiso   1.00
O669   O     0.25000   0.53036   0.88219   0.00000  Uiso   1.00
O670   O     0.25000   0.96965   0.11781   0.00000  Uiso   1.00
O671   O     0.03036   0.75000   0.88219   0.00000  Uiso   1.00
O672   O     0.46965   0.75000   0.11781   0.00000  Uiso   1.00
O673   O     0.25000   0.96965   0.88219   0.00000  Uiso   1.00
O674   O     0.25000   0.53036   0.11781   0.00000  Uiso   1.00
O675   O     0.46965   0.75000   0.88219   0.00000  Uiso   1.00
O676   O     0.00000   0.75000   0.75000   0.00000  Uiso   1.00
O677   O     0.03036   0.75000   0.11781   0.00000  Uiso   1.00
O678   O     0.04268   0.67692   0.28474   0.00000  Uiso   1.00
O679   O     0.45733   0.82308   0.71526   0.00000  Uiso   1.00
O680   O     0.17693   0.95732   0.28474   0.00000  Uiso   1.00
O681   O     0.32308   0.54268   0.71526   0.00000  Uiso   1.00
O682   O     0.45733   0.82308   0.28474   0.00000  Uiso   1.00
O683   O     0.04268   0.67692   0.71526   0.00000  Uiso   1.00
O684   O     0.32308   0.54268   0.28474   0.00000  Uiso   1.00
O685   O     0.17693   0.95732   0.71526   0.00000  Uiso   1.00
O686   O     0.04268   0.82307   0.71526   0.00000  Uiso   1.00
O687   O     0.25000   0.50000   0.25000   0.00000  Uiso   1.00
O688   O     0.45733   0.67693   0.28474   0.00000  Uiso   1.00
O689   O     0.17693   0.54268   0.71526   0.00000  Uiso   1.00
O690   O     0.32308   0.95733   0.28474   0.00000  Uiso   1.00
O691   O     0.45733   0.67693   0.71526   0.00000  Uiso   1.00
O692   O     0.04268   0.82307   0.28474   0.00000  Uiso   1.00
O693   O     0.32308   0.95733   0.71526   0.00000  Uiso   1.00
O694   O     0.17693   0.54268   0.28474   0.00000  Uiso   1.00
O695   O     0.29268   0.92693   0.78474   0.00000  Uiso   1.00
O696   O     0.20733   0.57308   0.21526   0.00000  Uiso   1.00
O697   O     0.42693   0.70733   0.78474   0.00000  Uiso   1.00
O698   O     0.25000   0.50000   0.75000   0.00000  Uiso   1.00
O699   O     0.07308   0.79267   0.21526   0.00000  Uiso   1.00
O700   O     0.20733   0.57308   0.78474   0.00000  Uiso   1.00
O701   O     0.29268   0.92693   0.21526   0.00000  Uiso   1.00
O702   O     0.07308   0.79267   0.78474   0.00000  Uiso   1.00
O703   O     0.42693   0.70733   0.21526   0.00000  Uiso   1.00
O704   O     0.29268   0.57308   0.21526   0.00000  Uiso   1.00
O705   O     0.20733   0.92693   0.78474   0.00000  Uiso   1.00
O706   O     0.42693   0.79268   0.21526   0.00000  Uiso   1.00
O707   O     0.07308   0.70732   0.78474   0.00000  Uiso   1.00
O708   O     0.20733   0.92693   0.21526   0.00000  Uiso   1.00
O709   O     0.00000   0.78036   0.38219   0.00000  Uiso   1.00
O710   O     0.29268   0.57308   0.78474   0.00000  Uiso   1.00
O711   O     0.07308   0.70732   0.21526   0.00000  Uiso   1.00
O712   O     0.42693   0.79268   0.78474   0.00000  Uiso   1.00
O713   O     0.00000   0.71964   0.61781   0.00000  Uiso   1.00
O714   O     0.28036   0.50000   0.38219   0.00000  Uiso   1.00
O715   O     0.21965   0.50000   0.61781   0.00000  Uiso   1.00
O716   O     0.00000   0.71965   0.38219   0.00000  Uiso   1.00
Zn717  Zn    0.04333   0.75000   0.20067   0.00000  Uiso   1.00
Zn718  Zn    0.20667   0.50000   0.29933   0.00000  Uiso   1.00
Zn719  Zn    0.00000   0.70667   0.70067   0.00000  Uiso   1.00
Zn720  Zn    0.00000   0.79333   0.29933   0.00000  Uiso   1.00
Zn721  Zn    0.20667   0.50000   0.70067   0.00000  Uiso   1.00
Zn722  Zn    0.29333   0.50000   0.29933   0.00000  Uiso   1.00
Zn723  Zn    0.00000   0.79333   0.70067   0.00000  Uiso   1.00
Zn724  Zn    0.00000   0.70667   0.29933   0.00000  Uiso   1.00
Zn725  Zn    0.45667   0.75000   0.79933   0.00000  Uiso   1.00
Zn726  Zn    0.25000   0.95667   0.20067   0.00000  Uiso   1.00
Zn727  Zn    0.25000   0.54333   0.79933   0.00000  Uiso   1.00
Zn728  Zn    0.45667   0.75000   0.20067   0.00000  Uiso   1.00
Zn729  Zn    0.04333   0.75000   0.79933   0.00000  Uiso   1.00
Zn730  Zn    0.25000   0.54333   0.20067   0.00000  Uiso   1.00
Zn731  Zn    0.25000   0.95667   0.79933   0.00000  Uiso   1.00
Zn732  Zn    0.29333   0.50000   0.70067   0.00000  Uiso   1.00
C733   C     0.50000   0.75000   0.02667   0.00000  Uiso   1.00
C734   C     0.50000   0.75000   0.58993   0.00000  Uiso   1.00
C735   C     0.75000   0.50000   0.41006   0.00000  Uiso   1.00
C736   C     0.75000   0.50000   0.58994   0.00000  Uiso   1.00
C737   C     0.75000   0.50000   0.91007   0.00000  Uiso   1.00
C738   C     0.75000   0.50000   0.08993   0.00000  Uiso   1.00
C739   C     0.50000   0.75000   0.91006   0.00000  Uiso   1.00
C740   C     0.50000   0.75000   0.08994   0.00000  Uiso   1.00
C741   C     0.57001   0.67999   0.25004   0.00000  Uiso   1.00
C742   C     0.92998   0.82003   0.74999   0.00000  Uiso   1.00
C743   C     0.67996   0.92996   0.24999   0.00000  Uiso   1.00
C744   C     0.50000   0.75000   0.97333   0.00000  Uiso   1.00
C745   C     0.82003   0.57003   0.75001   0.00000  Uiso   1.00
C746   C     0.92998   0.82003   0.25000   0.00000  Uiso   1.00
C747   C     0.57003   0.67998   0.74999   0.00000  Uiso   1.00
C748   C     0.82001   0.57001   0.24996   0.00000  Uiso   1.00
C749   C     0.67998   0.92997   0.75000   0.00000  Uiso   1.00
C750   C     0.57002   0.82003   0.75000   0.00000  Uiso   1.00
C751   C     0.92988   0.68005   0.25032   0.00000  Uiso   1.00
C752   C     0.67997   0.57002   0.75001   0.00000  Uiso   1.00
C753   C     0.82002   0.92997   0.25001   0.00000  Uiso   1.00
C754   C     0.92998   0.67997   0.75000   0.00000  Uiso   1.00
C755   C     0.75000   0.50001   0.02667   0.00000  Uiso   1.00
C756   C     0.56999   0.82000   0.25000   0.00000  Uiso   1.00
C757   C     0.82002   0.92997   0.75001   0.00000  Uiso   1.00
C758   C     0.67988   0.56994   0.24968   0.00000  Uiso   1.00
C759   C     0.63484   0.83788   0.25303   0.00000  Uiso   1.00
C760   C     0.86498   0.66208   0.75246   0.00000  Uiso   1.00
C761   C     0.85999   0.88704   0.19552   0.00000  Uiso   1.00
C762   C     0.66206   0.63503   0.75263   0.00000  Uiso   1.00
C763   C     0.88812   0.63901   0.19584   0.00000  Uiso   1.00
C764   C     0.61294   0.86001   0.80448   0.00000  Uiso   1.00
C765   C     0.63840   0.61191   0.19487   0.00000  Uiso   1.00
C766   C     0.75000   0.50000   0.97333   0.00000  Uiso   1.00
C767   C     0.83796   0.86495   0.75263   0.00000  Uiso   1.00
C768   C     0.63502   0.66207   0.75262   0.00000  Uiso   1.00
C769   C     0.88704   0.86002   0.19552   0.00000  Uiso   1.00
C770   C     0.83794   0.63504   0.75247   0.00000  Uiso   1.00
C771   C     0.66187   0.86472   0.25309   0.00000  Uiso   1.00
C772   C     0.86499   0.83792   0.75260   0.00000  Uiso   1.00
C773   C     0.61148   0.63880   0.19534   0.00000  Uiso   1.00
C774   C     0.63999   0.88703   0.80449   0.00000  Uiso   1.00
C775   C     0.86103   0.61200   0.19561   0.00000  Uiso   1.00
C776   C     0.88502   0.58792   0.74754   0.00000  Uiso   1.00
C777   C     0.75000   0.50000   0.52667   0.00000  Uiso   1.00
C778   C     0.61474   0.91189   0.24689   0.00000  Uiso   1.00
C779   C     0.58794   0.61497   0.74737   0.00000  Uiso   1.00
C780   C     0.89000   0.86295   0.30449   0.00000  Uiso   1.00
C781   C     0.63706   0.88999   0.69551   0.00000  Uiso   1.00
C782   C     0.86148   0.61119   0.30466   0.00000  Uiso   1.00
C783   C     0.91204   0.88505   0.74737   0.00000  Uiso   1.00
C784   C     0.61103   0.63800   0.30439   0.00000  Uiso   1.00
C785   C     0.86295   0.88997   0.30449   0.00000  Uiso   1.00
C786   C     0.61498   0.58793   0.74738   0.00000  Uiso   1.00
C787   C     0.58790   0.88486   0.24697   0.00000  Uiso   1.00
C788   C     0.75000   0.50000   0.47333   0.00000  Uiso   1.00
C789   C     0.91206   0.61496   0.74753   0.00000  Uiso   1.00
C790   C     0.63811   0.61098   0.30416   0.00000  Uiso   1.00
C791   C     0.88501   0.91208   0.74740   0.00000  Uiso   1.00
C792   C     0.88842   0.63808   0.30513   0.00000  Uiso   1.00
C793   C     0.61001   0.86297   0.69551   0.00000  Uiso   1.00
C794   C     0.65186   0.90186   0.24999   0.00000  Uiso   1.00
C795   C     0.84811   0.59811   0.75001   0.00000  Uiso   1.00
C796   C     0.90190   0.84812   0.25000   0.00000  Uiso   1.00
C797   C     0.59811   0.65189   0.74999   0.00000  Uiso   1.00
C798   C     0.84796   0.59816   0.25005   0.00000  Uiso   1.00
C799   C     0.50000   0.75000   0.52667   0.00000  Uiso   1.00
C800   C     0.65190   0.90188   0.75000   0.00000  Uiso   1.00
C801   C     0.59797   0.65184   0.24995   0.00000  Uiso   1.00
C802   C     0.90189   0.84812   0.74997   0.00000  Uiso   1.00
C803   C     0.65189   0.59811   0.75001   0.00000  Uiso   1.00
C804   C     0.84810   0.90188   0.25001   0.00000  Uiso   1.00
C805   C     0.90189   0.65189   0.74999   0.00000  Uiso   1.00
C806   C     0.59802   0.84802   0.25001   0.00000  Uiso   1.00
C807   C     0.84811   0.90189   0.75003   0.00000  Uiso   1.00
C808   C     0.65179   0.59805   0.24945   0.00000  Uiso   1.00
C809   C     0.59810   0.84812   0.75000   0.00000  Uiso   1.00
C810   C     0.50000   0.74999   0.47333   0.00000  Uiso   1.00
C811   C     0.90180   0.65194   0.25055   0.00000  Uiso   1.00
C812   C     0.99999   0.75000   0.41007   0.00000  Uiso   1.00
H813   H     0.65923   0.79634   0.29710   0.00000  Uiso   1.00
H814   H     0.88148   0.66418   0.11587   0.00000  Uiso   1.00
H815   H     0.62127   0.83340   0.88275   0.00000  Uiso   1.00
H816   H     0.58872   0.86631   0.88534   0.00000  Uiso   1.00
H817   H     0.64832   0.56986   0.13808   0.00000  Uiso   1.00
H818   H     0.67801   0.60546   0.13244   0.00000  Uiso   1.00
H819   H     0.79484   0.83999   0.79200   0.00000  Uiso   1.00
H820   H     0.79432   0.83922   0.71615   0.00000  Uiso   1.00
H821   H     0.65993   0.70521   0.79199   0.00000  Uiso   1.00
H822   H     0.66075   0.70573   0.71614   0.00000  Uiso   1.00
H823   H     0.91124   0.86633   0.11465   0.00000  Uiso   1.00
H824   H     0.66160   0.79362   0.22172   0.00000  Uiso   1.00
H825   H     0.87868   0.83342   0.11727   0.00000  Uiso   1.00
H826   H     0.79433   0.66071   0.71575   0.00000  Uiso   1.00
H827   H     0.79474   0.66000   0.79160   0.00000  Uiso   1.00
H828   H     0.71293   0.86015   0.21897   0.00000  Uiso   1.00
H829   H     0.71120   0.86739   0.29407   0.00000  Uiso   1.00
H830   H     0.84012   0.79470   0.79193   0.00000  Uiso   1.00
H831   H     0.83931   0.79423   0.71607   0.00000  Uiso   1.00
H832   H     0.58598   0.63053   0.11634   0.00000  Uiso   1.00
H833   H     0.61838   0.66341   0.11526   0.00000  Uiso   1.00
H834   H     0.66656   0.87864   0.88275   0.00000  Uiso   1.00
H835   H     0.83934   0.70573   0.71573   0.00000  Uiso   1.00
H836   H     0.63372   0.91125   0.88534   0.00000  Uiso   1.00
H837   H     0.83606   0.61898   0.11559   0.00000  Uiso   1.00
H838   H     0.86889   0.58632   0.11636   0.00000  Uiso   1.00
H839   H     0.90995   0.54469   0.70842   0.00000  Uiso   1.00
H840   H     0.91066   0.54427   0.78427   0.00000  Uiso   1.00
H841   H     0.61744   0.96124   0.20589   0.00000  Uiso   1.00
H842   H     0.61019   0.96298   0.28098   0.00000  Uiso   1.00
H843   H     0.54427   0.58925   0.78388   0.00000  Uiso   1.00
H844   H     0.54477   0.59006   0.70803   0.00000  Uiso   1.00
H845   H     0.91659   0.87134   0.38273   0.00000  Uiso   1.00
H846   H     0.84005   0.70531   0.79158   0.00000  Uiso   1.00
H847   H     0.88374   0.83873   0.38536   0.00000  Uiso   1.00
H848   H     0.66128   0.88369   0.61466   0.00000  Uiso   1.00
H849   H     0.62873   0.91660   0.61725   0.00000  Uiso   1.00
H850   H     0.83599   0.61947   0.38367   0.00000  Uiso   1.00
H851   H     0.86837   0.58658   0.38474   0.00000  Uiso   1.00
H852   H     0.95568   0.91078   0.78385   0.00000  Uiso   1.00
H853   H     0.95516   0.91001   0.70799   0.00000  Uiso   1.00
H854   H     0.58607   0.63103   0.38442   0.00000  Uiso   1.00
H855   H     0.61891   0.66368   0.38362   0.00000  Uiso   1.00
H856   H     0.87130   0.91656   0.38275   0.00000  Uiso   1.00
H857   H     0.86625   0.91126   0.11464   0.00000  Uiso   1.00
H858   H     0.83874   0.88365   0.38534   0.00000  Uiso   1.00
H859   H     0.58925   0.54427   0.78385   0.00000  Uiso   1.00
H860   H     0.59007   0.54479   0.70800   0.00000  Uiso   1.00
H861   H     0.54367   0.91166   0.27829   0.00000  Uiso   1.00
H862   H     0.54639   0.90928   0.20291   0.00000  Uiso   1.00
H863   H     0.95526   0.59000   0.70840   0.00000  Uiso   1.00
H864   H     0.95567   0.58929   0.78425   0.00000  Uiso   1.00
H865   H     0.63145   0.58581   0.38411   0.00000  Uiso   1.00
H866   H     0.66400   0.61876   0.38324   0.00000  Uiso   1.00
H867   H     0.91069   0.95577   0.78393   0.00000  Uiso   1.00
H868   H     0.83339   0.87865   0.11729   0.00000  Uiso   1.00
H869   H     0.90988   0.95530   0.70808   0.00000  Uiso   1.00
H870   H     0.92804   0.64449   0.36755   0.00000  Uiso   1.00
H871   H     0.89838   0.68011   0.36194   0.00000  Uiso   1.00
H872   H     0.61629   0.83874   0.61466   0.00000  Uiso   1.00
H873   H     0.58344   0.87136   0.61725   0.00000  Uiso   1.00
H874   H     0.70523   0.65994   0.79198   0.00000  Uiso   1.00
H875   H     0.70573   0.66075   0.71612   0.00000  Uiso   1.00
H876   H     0.91402   0.63123   0.11676   0.00000  Uiso   1.00
N877   N     0.64460   0.80012   0.25758   0.00000  Uiso   1.00
N878   N     0.90038   0.84522   0.14039   0.00000  Uiso   1.00
N879   N     0.80006   0.64477   0.75321   0.00000  Uiso   1.00
N880   N     0.69921   0.85357   0.25833   0.00000  Uiso   1.00
N881   N     0.85528   0.80001   0.75346   0.00000  Uiso   1.00
N882   N     0.59698   0.65239   0.14017   0.00000  Uiso   1.00
N883   N     0.65479   0.90037   0.85962   0.00000  Uiso   1.00
N884   N     0.84731   0.59767   0.14039   0.00000  Uiso   1.00
N885   N     0.89473   0.55002   0.74682   0.00000  Uiso   1.00
N886   N     0.60362   0.94925   0.24163   0.00000  Uiso   1.00
N887   N     0.55006   0.60524   0.74649   0.00000  Uiso   1.00
N888   N     0.85527   0.69998   0.75318   0.00000  Uiso   1.00
N889   N     0.90481   0.84961   0.35962   0.00000  Uiso   1.00
N890   N     0.65042   0.90479   0.64038   0.00000  Uiso   1.00
N891   N     0.84698   0.59760   0.35983   0.00000  Uiso   1.00
N892   N     0.94991   0.89480   0.74646   0.00000  Uiso   1.00
N893   N     0.59733   0.65234   0.35960   0.00000  Uiso   1.00
N894   N     0.84960   0.90476   0.35962   0.00000  Uiso   1.00
N895   N     0.60524   0.55004   0.74648   0.00000  Uiso   1.00
N896   N     0.55016   0.89464   0.24244   0.00000  Uiso   1.00
N897   N     0.94994   0.60523   0.74680   0.00000  Uiso   1.00
N898   N     0.65264   0.59719   0.35920   0.00000  Uiso   1.00
N899   N     0.84518   0.90037   0.14039   0.00000  Uiso   1.00
N900   N     0.89472   0.94999   0.74654   0.00000  Uiso   1.00
N901   N     0.90078   0.65173   0.36163   0.00000  Uiso   1.00
N902   N     0.59521   0.84963   0.64038   0.00000  Uiso   1.00
N903   N     0.69994   0.64476   0.75352   0.00000  Uiso   1.00
N904   N     0.90266   0.65280   0.14080   0.00000  Uiso   1.00
N905   N     0.59958   0.84521   0.85962   0.00000  Uiso   1.00
N906   N     0.65074   0.59824   0.13837   0.00000  Uiso   1.00
N907   N     0.80009   0.85520   0.75354   0.00000  Uiso   1.00
N908   N     0.64476   0.69996   0.75351   0.00000  Uiso   1.00
O909   O     0.50000   0.75000   0.25000   0.00000  Uiso   1.00
O910   O     0.50000   0.78035   0.61781   0.00000  Uiso   1.00
O911   O     0.71965   0.50000   0.38219   0.00000  Uiso   1.00
O912   O     0.78036   0.50000   0.61781   0.00000  Uiso   1.00
O913   O     0.75000   0.53036   0.88219   0.00000  Uiso   1.00
O914   O     0.75000   0.96965   0.11781   0.00000  Uiso   1.00
O915   O     0.53036   0.75000   0.88219   0.00000  Uiso   1.00
O916   O     0.96965   0.75000   0.11781   0.00000  Uiso   1.00
O917   O     0.75000   0.96965   0.88219   0.00000  Uiso   1.00
O918   O     0.75000   0.53036   0.11781   0.00000  Uiso   1.00
O919   O     0.96965   0.75000   0.88219   0.00000  Uiso   1.00
O920   O     0.50000   0.75000   0.75000   0.00000  Uiso   1.00
O921   O     0.53036   0.75000   0.11781   0.00000  Uiso   1.00
O922   O     0.54268   0.67692   0.28474   0.00000  Uiso   1.00
O923   O     0.95733   0.82308   0.71526   0.00000  Uiso   1.00
O924   O     0.67693   0.95732   0.28474   0.00000  Uiso   1.00
O925   O     0.82308   0.54268   0.71526   0.00000  Uiso   1.00
O926   O     0.95733   0.82308   0.28474   0.00000  Uiso   1.00
O927   O     0.54268   0.67692   0.71526   0.00000  Uiso   1.00
O928   O     0.82308   0.54268   0.28474   0.00000  Uiso   1.00
O929   O     0.67693   0.95732   0.71526   0.00000  Uiso   1.00
O930   O     0.54268   0.82307   0.71526   0.00000  Uiso   1.00
O931   O     0.75000   0.50000   0.25000   0.00000  Uiso   1.00
O932   O     0.95733   0.67693   0.28474   0.00000  Uiso   1.00
O933   O     0.67693   0.54268   0.71526   0.00000  Uiso   1.00
O934   O     0.82308   0.95733   0.28474   0.00000  Uiso   1.00
O935   O     0.95733   0.67693   0.71526   0.00000  Uiso   1.00
O936   O     0.54268   0.82307   0.28474   0.00000  Uiso   1.00
O937   O     0.82308   0.95733   0.71526   0.00000  Uiso   1.00
O938   O     0.67693   0.54268   0.28474   0.00000  Uiso   1.00
O939   O     0.79268   0.92693   0.78474   0.00000  Uiso   1.00
O940   O     0.70733   0.57308   0.21526   0.00000  Uiso   1.00
O941   O     0.92693   0.70733   0.78474   0.00000  Uiso   1.00
O942   O     0.75000   0.50000   0.75000   0.00000  Uiso   1.00
O943   O     0.57308   0.79267   0.21526   0.00000  Uiso   1.00
O944   O     0.70733   0.57308   0.78474   0.00000  Uiso   1.00
O945   O     0.79268   0.92693   0.21526   0.00000  Uiso   1.00
O946   O     0.57308   0.79267   0.78474   0.00000  Uiso   1.00
O947   O     0.92693   0.70733   0.21526   0.00000  Uiso   1.00
O948   O     0.79268   0.57308   0.21526   0.00000  Uiso   1.00
O949   O     0.70733   0.92693   0.78474   0.00000  Uiso   1.00
O950   O     0.92693   0.79268   0.21526   0.00000  Uiso   1.00
O951   O     0.57308   0.70732   0.78474   0.00000  Uiso   1.00
O952   O     0.70733   0.92693   0.21526   0.00000  Uiso   1.00
O953   O     0.50000   0.78036   0.38219   0.00000  Uiso   1.00
O954   O     0.79268   0.57308   0.78474   0.00000  Uiso   1.00
O955   O     0.57308   0.70732   0.21526   0.00000  Uiso   1.00
O956   O     0.92693   0.79268   0.78474   0.00000  Uiso   1.00
O957   O     0.50000   0.71964   0.61781   0.00000  Uiso   1.00
O958   O     0.78036   0.50000   0.38219   0.00000  Uiso   1.00
O959   O     0.71965   0.50000   0.61781   0.00000  Uiso   1.00
O960   O     0.50000   0.71965   0.38219   0.00000  Uiso   1.00
Zn961  Zn    0.54333   0.75000   0.20067   0.00000  Uiso   1.00
Zn962  Zn    0.70667   0.50000   0.29933   0.00000  Uiso   1.00
Zn963  Zn    0.50000   0.70667   0.70067   0.00000  Uiso   1.00
Zn964  Zn    0.50000   0.79333   0.29933   0.00000  Uiso   1.00
Zn965  Zn    0.70667   0.50000   0.70067   0.00000  Uiso   1.00
Zn966  Zn    0.79333   0.50000   0.29933   0.00000  Uiso   1.00
Zn967  Zn    0.50000   0.79333   0.70067   0.00000  Uiso   1.00
Zn968  Zn    0.50000   0.70667   0.29933   0.00000  Uiso   1.00
Zn969  Zn    0.95667   0.75000   0.79933   0.00000  Uiso   1.00
Zn970  Zn    0.75000   0.95667   0.20067   0.00000  Uiso   1.00
Zn971  Zn    0.75000   0.54333   0.79933   0.00000  Uiso   1.00
Zn972  Zn    0.95667   0.75000   0.20067   0.00000  Uiso   1.00
Zn973  Zn    0.54333   0.75000   0.79933   0.00000  Uiso   1.00
Zn974  Zn    0.75000   0.54333   0.20067   0.00000  Uiso   1.00
Zn975  Zn    0.75000   0.95667   0.79933   0.00000  Uiso   1.00
Zn976  Zn    0.79333   0.50000   0.70067   0.00000  Uiso   1.00
loop_
_geom_bond_atom_site_label_1
_geom_bond_atom_site_label_2
_geom_bond_distance
_geom_bond_site_symmetry_2
_ccdc_geom_bond_type
C1     C8      1.418   .     S
C1     C12     1.196   1_554 S
C2     O225    1.278   .     A
C2     O178    1.278   .     A
C2     C67     1.418   .     S
C3     O179    1.278   .     A
C3     C56     1.418   .     S
C3     O226    1.278   .     A
C4     C45     1.418   .     S
C4     O180    1.278   .     S
C4     O227    1.278   .     S
C5     O673    1.278   1_545 A
C5     C34     1.418   .     S
C5     O181    1.278   .     S
C6     O186    1.278   .     A
C6     C23     1.418   .     S
C6     O670    1.278   1_545 S
C7     C12     1.418   .     S
C7     O183    1.278   .     A
C7     O431    1.278   1_455 S
C8     O428    1.278   1_455 A
C8     O189    1.278   .     S
C9     C69     1.457   .     S
C9     O190    1.275   .     A
C9     O223    1.276   .     A
C10    O224    1.276   .     A
C10    C70     1.459   .     S
C10    O191    1.276   .     A
C11    C62     1.459   .     S
C11    O192    1.276   .     A
C11    O220    1.276   .     A
C12    C1      1.196   1_556 S
C13    O222    1.276   .     A
C13    O193    1.276   .     A
C13    C63     1.458   .     S
C14    C64     1.459   .     S
C14    O194    1.276   .     A
C14    O218    1.276   .     A
C15    C65     1.459   .     S
C15    O195    1.276   .     A
C15    O219    1.276   .     A
C16    O216    1.275   .     A
C16    O196    1.276   .     A
C16    C66     1.457   .     S
C17    O197    1.276   .     A
C17    O217    1.276   .     A
C17    C68     1.458   .     S
C18    O214    1.276   .     A
C18    O198    1.276   .     A
C18    C77     1.458   .     S
C19    O200    1.275   .     A
C19    C79     1.459   .     S
C19    O215    1.277   .     A
C20    C71     1.459   .     S
C20    O201    1.276   .     A
C20    O212    1.276   .     A
C21    C72     1.459   .     S
C21    O213    1.276   .     A
C21    O202    1.276   .     A
C22    O203    1.276   .     A
C22    O209    1.276   .     A
C22    C73     1.458   .     S
C23    C34     1.196   1_554 S
C24    C74     1.455   .     S
C24    O211    1.275   .     A
C24    O204    1.275   .     A
C25    C75     1.459   .     S
C25    O207    1.276   .     A
C25    O205    1.276   .     A
C26    C76     1.459   .     S
C26    O206    1.277   .     A
C26    O208    1.275   .     A
C27    C39     1.399   .     A
C27    N145    1.436   .     S
C27    C74     1.404   .     A
C28    C73     1.407   .     A
C28    C38     1.404   .     A
C28    N156    1.437   .     S
C29    C72     1.407   .     A
C29    N167    1.436   .     S
C29    C37     1.404   .     A
C30    C71     1.407   .     A
C30    C36     1.404   .     A
C30    N171    1.437   .     S
C31    N172    1.436   .     S
C31    C43     1.405   .     A
C31    C79     1.408   .     A
C32    C77     1.407   .     A
C32    N173    1.436   .     S
C32    C42     1.404   .     A
C33    C76     1.413   .     A
C33    C41     1.398   .     A
C33    N174    1.436   .     S
C34    C23     1.196   1_556 S
C35    C75     1.407   .     A
C35    N175    1.436   .     S
C35    C40     1.404   .     A
C36    C65     1.408   .     A
C36    N176    1.436   .     S
C37    N146    1.436   .     S
C37    C64     1.407   .     A
C38    N147    1.437   .     S
C38    C63     1.407   .     A
C39    C62     1.414   .     A
C39    N148    1.436   .     S
C40    C70     1.407   .     A
C40    N149    1.437   .     S
C41    N150    1.436   .     S
C41    C69     1.405   .     A
C42    C68     1.407   .     A
C42    N151    1.436   .     S
C43    C66     1.406   .     A
C43    N152    1.436   .     S
C44    N153    1.437   .     S
C44    C63     1.407   .     A
C44    C57     1.404   .     A
C45    C56     1.196   .     S
C46    C62     1.414   .     A
C46    N154    1.436   .     S
C46    C55     1.399   .     A
C47    C65     1.407   .     A
C47    C54     1.404   .     A
C47    N155    1.437   .     S
C48    C64     1.407   .     A
C48    C53     1.404   .     A
C48    N157    1.436   .     S
C49    C68     1.407   .     A
C49    C61     1.404   .     A
C49    N158    1.436   .     S
C50    C66     1.405   .     A
C50    N159    1.436   .     S
C50    C60     1.398   .     A
C51    N160    1.436   .     S
C51    C70     1.407   .     A
C51    C59     1.404   .     A
C52    C69     1.406   .     A
C52    N161    1.436   .     S
C52    C58     1.405   .     A
C53    N162    1.436   .     S
C53    C72     1.407   .     A
C54    N163    1.436   .     S
C54    C71     1.408   .     A
C55    N164    1.436   .     S
C55    C74     1.404   .     A
C57    N165    1.437   .     S
C57    C73     1.407   .     A
C58    C76     1.408   .     A
C58    N166    1.436   .     S
C59    C75     1.407   .     A
C59    N168    1.437   .     S
C60    C79     1.413   .     A
C60    N169    1.436   .     S
C61    C77     1.407   .     A
C61    N170    1.436   .     S
C67    C78     1.196   .     T
C78    C324    1.418   1_455 S
C80    C322    1.418   .     S
C80    O465    1.278   .     A
C80    O472    1.278   .     A
H81    N145    1.046   .     S
H82    N172    1.045   .     S
H83    N173    1.045   .     S
H84    N173    1.045   .     S
H85    N174    1.046   .     S
H86    N174    1.044   .     S
H87    N175    1.045   .     S
H88    N175    1.045   .     S
H89    N176    1.045   .     S
H90    N176    1.045   .     S
H91    N146    1.045   .     S
H92    N145    1.046   .     S
H93    N146    1.045   .     S
H94    N147    1.045   .     S
H95    N147    1.045   .     S
H96    N148    1.044   .     S
H97    N148    1.046   .     S
H98    N149    1.045   .     S
H99    N149    1.045   .     S
H100   N150    1.046   .     S
H101   N150    1.046   .     S
H102   N151    1.045   .     S
H103   N156    1.045   .     S
H104   N151    1.045   .     S
H105   N152    1.045   .     S
H106   N152    1.045   .     S
H107   N153    1.045   .     S
H108   N153    1.045   .     S
H109   N154    1.046   .     S
H110   N154    1.044   .     S
H111   N155    1.045   .     S
H112   N155    1.045   .     S
H113   N157    1.045   .     S
H114   N156    1.045   .     S
H115   N157    1.045   .     S
H116   N158    1.045   .     S
H117   N158    1.045   .     S
H118   N159    1.046   .     S
H119   N159    1.046   .     S
H120   N160    1.045   .     S
H121   N160    1.045   .     S
H122   N161    1.045   .     S
H123   N161    1.045   .     S
H124   N162    1.045   .     S
H125   N167    1.045   .     S
H126   N162    1.045   .     S
H127   N163    1.045   .     S
H128   N163    1.045   .     S
H129   N164    1.046   .     S
H130   N164    1.046   .     S
H131   N165    1.045   .     S
H132   N165    1.045   .     S
H133   N166    1.045   .     S
H134   N166    1.045   .     S
H135   N168    1.045   .     S
H136   N167    1.045   .     S
H137   N168    1.045   .     S
H138   N169    1.044   .     S
H139   N169    1.046   .     S
H140   N170    1.045   .     S
H141   N170    1.045   .     S
H142   N171    1.045   .     S
H143   N171    1.045   .     S
H144   N172    1.045   .     S
O177   Zn229   1.938   .     S
O177   Zn236   1.937   .     S
O177   Zn232   1.938   .     S
O177   Zn484   1.938   1_455 S
O178   Zn235   1.918   .     S
O179   Zn230   1.918   .     S
O180   Zn244   1.918   .     S
O181   Zn239   1.918   .     S
O182   Zn238   1.918   .     S
O182   C494    1.278   .     S
O183   Zn241   1.918   .     S
O184   C252    1.278   .     A
O184   Zn240   1.918   .     S
O185   Zn243   1.918   .     S
O185   C493    1.278   .     A
O186   Zn242   1.918   .     S
O187   Zn237   1.918   .     S
O187   C251    1.278   .     S
O188   Zn241   1.938   .     S
O188   Zn231   1.938   .     S
O188   Zn235   1.937   .     S
O188   Zn481   1.938   1_455 S
O189   Zn229   1.918   .     S
O190   Zn236   1.938   .     S
O191   Zn479   1.938   .     S
O192   Zn718   1.938   .     S
O193   Zn244   1.938   .     S
O194   Zn476   1.938   .     S
O195   Zn231   1.938   .     S
O196   Zn234   1.938   .     S
O197   Zn721   1.938   .     S
O198   Zn235   1.938   .     S
O199   Zn242   1.937   .     S
O199   Zn230   1.938   .     S
O199   Zn234   1.938   .     S
O199   Zn726   1.938   1_545 S
O200   Zn480   1.938   .     S
O201   Zn233   1.938   .     S
O202   Zn722   1.938   .     S
O203   Zn475   1.938   .     S
O204   Zn232   1.938   .     S
O205   Zn732   1.938   .     S
O206   Zn230   1.938   .     S
O207   Zn243   1.938   .     S
O208   Zn242   1.938   .     S
O209   Zn237   1.938   .     S
O210   Zn233   1.938   .     S
O210   Zn731   1.937   1_545 S
O210   Zn244   1.938   .     S
O210   Zn239   1.938   .     S
O211   Zn229   1.938   .     S
O212   Zn239   1.938   .     S
O213   Zn238   1.938   .     S
O214   Zn241   1.938   .     S
O215   Zn240   1.938   .     S
O216   Zn242   1.938   .     S
O217   Zn243   1.938   .     S
O218   Zn240   1.938   .     S
O219   Zn241   1.938   .     S
O220   Zn238   1.938   .     S
O221   C324    1.278   1_455 A
O221   Zn232   1.918   .     S
O222   Zn239   1.938   .     S
O223   Zn229   1.938   .     S
O224   Zn237   1.938   .     S
O225   Zn231   1.918   .     S
O226   Zn234   1.918   .     S
O227   Zn233   1.918   .     S
O228   C324    1.278   1_455 A
O228   Zn236   1.918   .     S
Zn230  O680    1.938   1_545 S
Zn231  O447    1.938   1_455 S
Zn232  O438    1.938   1_455 S
Zn233  O685    1.938   1_545 S
Zn234  O690    1.938   1_545 S
Zn235  O435    1.938   1_455 S
Zn236  O444    1.938   1_455 S
Zn237  O432    1.938   .     S
Zn238  O687    1.938   .     S
Zn240  O421    1.938   .     S
Zn243  O698    1.937   .     S
Zn244  O693    1.938   1_545 S
C245   C252    1.418   .     S
C245   C256    1.196   1_554 S
C246   O469    1.278   .     A
C246   O422    1.278   .     A
C246   C311    1.418   .     S
C247   O423    1.278   .     A
C247   C300    1.418   .     S
C247   O470    1.278   .     A
C248   C289    1.418   .     S
C248   O424    1.278   .     S
C248   O471    1.278   .     S
C249   O917    1.278   1_545 A
C249   C278    1.418   .     S
C249   O425    1.278   .     S
C250   O430    1.278   .     A
C250   C267    1.418   .     S
C250   O914    1.278   1_545 S
C251   C256    1.418   .     S
C251   O427    1.278   .     A
C252   O433    1.278   .     S
C253   C313    1.457   .     S
C253   O434    1.275   .     A
C253   O467    1.276   .     A
C254   O468    1.276   .     A
C254   C314    1.459   .     S
C254   O435    1.276   .     A
C255   C306    1.459   .     S
C255   O436    1.276   .     A
C255   O464    1.276   .     A
C256   C245    1.196   1_556 S
C257   O466    1.276   .     A
C257   O437    1.276   .     A
C257   C307    1.458   .     S
C258   C308    1.459   .     S
C258   O438    1.276   .     A
C258   O462    1.276   .     A
C259   C309    1.459   .     S
C259   O439    1.276   .     A
C259   O463    1.276   .     A
C260   O460    1.275   .     A
C260   O440    1.276   .     A
C260   C310    1.457   .     S
C261   O441    1.276   .     A
C261   O461    1.276   .     A
C261   C312    1.458   .     S
C262   O458    1.276   .     A
C262   O442    1.276   .     A
C262   C321    1.458   .     S
C263   O444    1.275   .     A
C263   C323    1.459   .     S
C263   O459    1.277   .     A
C264   C315    1.459   .     S
C264   O445    1.276   .     A
C264   O456    1.276   .     A
C265   C316    1.459   .     S
C265   O457    1.276   .     A
C265   O446    1.276   .     A
C266   O447    1.276   .     A
C266   O453    1.276   .     A
C266   C317    1.458   .     S
C267   C278    1.196   1_554 S
C268   C318    1.455   .     S
C268   O455    1.275   .     A
C268   O448    1.275   .     A
C269   C319    1.459   .     S
C269   O451    1.276   .     A
C269   O449    1.276   .     A
C270   C320    1.459   .     S
C270   O450    1.277   .     A
C270   O452    1.275   .     A
C271   C283    1.399   .     A
C271   N389    1.436   .     S
C271   C318    1.404   .     A
C272   C317    1.407   .     A
C272   C282    1.404   .     A
C272   N400    1.437   .     S
C273   C316    1.407   .     A
C273   N411    1.436   .     S
C273   C281    1.404   .     A
C274   C315    1.407   .     A
C274   C280    1.404   .     A
C274   N415    1.437   .     S
C275   N416    1.436   .     S
C275   C287    1.405   .     A
C275   C323    1.408   .     A
C276   C321    1.407   .     A
C276   N417    1.436   .     S
C276   C286    1.404   .     A
C277   C320    1.413   .     A
C277   C285    1.398   .     A
C277   N418    1.436   .     S
C278   C267    1.196   1_556 S
C279   C319    1.407   .     A
C279   N419    1.436   .     S
C279   C284    1.404   .     A
C280   C309    1.408   .     A
C280   N420    1.436   .     S
C281   N390    1.436   .     S
C281   C308    1.407   .     A
C282   N391    1.437   .     S
C282   C307    1.407   .     A
C283   C306    1.414   .     A
C283   N392    1.436   .     S
C284   C314    1.407   .     A
C284   N393    1.437   .     S
C285   N394    1.436   .     S
C285   C313    1.405   .     A
C286   C312    1.407   .     A
C286   N395    1.436   .     S
C287   C310    1.406   .     A
C287   N396    1.436   .     S
C288   N397    1.437   .     S
C288   C307    1.407   .     A
C288   C301    1.404   .     A
C289   C300    1.196   .     S
C290   C306    1.414   .     A
C290   N398    1.436   .     S
C290   C299    1.399   .     A
C291   C309    1.407   .     A
C291   C298    1.404   .     A
C291   N399    1.437   .     S
C292   C308    1.407   .     A
C292   C297    1.404   .     A
C292   N401    1.436   .     S
C293   C312    1.407   .     A
C293   C305    1.404   .     A
C293   N402    1.436   .     S
C294   C310    1.405   .     A
C294   N403    1.436   .     S
C294   C304    1.398   .     A
C295   N404    1.436   .     S
C295   C314    1.407   .     A
C295   C303    1.404   .     A
C296   C313    1.406   .     A
C296   N405    1.436   .     S
C296   C302    1.405   .     A
C297   N406    1.436   .     S
C297   C316    1.407   .     A
C298   N407    1.436   .     S
C298   C315    1.408   .     A
C299   N408    1.436   .     S
C299   C318    1.404   .     A
C301   N409    1.437   .     S
C301   C317    1.407   .     A
C302   C320    1.408   .     A
C302   N410    1.436   .     S
C303   C319    1.407   .     A
C303   N412    1.437   .     S
C304   C323    1.413   .     A
C304   N413    1.436   .     S
C305   C321    1.407   .     A
C305   N414    1.436   .     S
C311   C322    1.196   .     T
C324   C78     1.418   1_655 S
C324   O221    1.278   1_655 A
C324   O228    1.278   1_655 A
H325   N389    1.046   .     S
H326   N416    1.045   .     S
H327   N417    1.045   .     S
H328   N417    1.045   .     S
H329   N418    1.046   .     S
H330   N418    1.044   .     S
H331   N419    1.045   .     S
H332   N419    1.045   .     S
H333   N420    1.045   .     S
H334   N420    1.045   .     S
H335   N390    1.045   .     S
H336   N389    1.046   .     S
H337   N390    1.045   .     S
H338   N391    1.045   .     S
H339   N391    1.045   .     S
H340   N392    1.044   .     S
H341   N392    1.046   .     S
H342   N393    1.045   .     S
H343   N393    1.045   .     S
H344   N394    1.046   .     S
H345   N394    1.046   .     S
H346   N395    1.045   .     S
H347   N400    1.045   .     S
H348   N395    1.045   .     S
H349   N396    1.045   .     S
H350   N396    1.045   .     S
H351   N397    1.045   .     S
H352   N397    1.045   .     S
H353   N398    1.046   .     S
H354   N398    1.044   .     S
H355   N399    1.045   .     S
H356   N399    1.045   .     S
H357   N401    1.045   .     S
H358   N400    1.045   .     S
H359   N401    1.045   .     S
H360   N402    1.045   .     S
H361   N402    1.045   .     S
H362   N403    1.046   .     S
H363   N403    1.046   .     S
H364   N404    1.045   .     S
H365   N404    1.045   .     S
H366   N405    1.045   .     S
H367   N405    1.045   .     S
H368   N406    1.045   .     S
H369   N411    1.045   .     S
H370   N406    1.045   .     S
H371   N407    1.045   .     S
H372   N407    1.045   .     S
H373   N408    1.046   .     S
H374   N408    1.046   .     S
H375   N409    1.045   .     S
H376   N409    1.045   .     S
H377   N410    1.045   .     S
H378   N410    1.045   .     S
H379   N412    1.045   .     S
H380   N411    1.045   .     S
H381   N412    1.045   .     S
H382   N413    1.044   .     S
H383   N413    1.046   .     S
H384   N414    1.045   .     S
H385   N414    1.045   .     S
H386   N415    1.045   .     S
H387   N415    1.045   .     S
H388   N416    1.045   .     S
O421   Zn473   1.938   .     S
O421   Zn480   1.937   .     S
O421   Zn476   1.938   .     S
O422   Zn479   1.918   .     S
O423   Zn474   1.918   .     S
O424   Zn488   1.918   .     S
O425   Zn483   1.918   .     S
O426   Zn482   1.918   .     S
O426   C738    1.278   .     S
O427   Zn485   1.918   .     S
O428   C8      1.278   1_655 A
O428   Zn484   1.918   .     S
O429   Zn487   1.918   .     S
O429   C737    1.278   .     A
O430   Zn486   1.918   .     S
O431   Zn481   1.918   .     S
O431   C7      1.278   1_655 S
O432   Zn485   1.938   .     S
O432   Zn475   1.938   .     S
O432   Zn479   1.937   .     S
O433   Zn473   1.918   .     S
O434   Zn480   1.938   .     S
O435   Zn235   1.938   1_655 S
O436   Zn962   1.938   .     S
O437   Zn488   1.938   .     S
O438   Zn232   1.938   1_655 S
O439   Zn475   1.938   .     S
O440   Zn478   1.938   .     S
O441   Zn965   1.938   .     S
O442   Zn479   1.938   .     S
O443   Zn486   1.937   .     S
O443   Zn474   1.938   .     S
O443   Zn478   1.938   .     S
O443   Zn970   1.938   1_545 S
O444   Zn236   1.938   1_655 S
O445   Zn477   1.938   .     S
O446   Zn966   1.938   .     S
O447   Zn231   1.938   1_655 S
O448   Zn476   1.938   .     S
O449   Zn976   1.938   .     S
O450   Zn474   1.938   .     S
O451   Zn487   1.938   .     S
O452   Zn486   1.938   .     S
O453   Zn481   1.938   .     S
O454   Zn477   1.938   .     S
O454   Zn975   1.937   1_545 S
O454   Zn488   1.938   .     S
O454   Zn483   1.938   .     S
O455   Zn473   1.938   .     S
O456   Zn483   1.938   .     S
O457   Zn482   1.938   .     S
O458   Zn485   1.938   .     S
O459   Zn484   1.938   .     S
O460   Zn486   1.938   .     S
O461   Zn487   1.938   .     S
O462   Zn484   1.938   .     S
O463   Zn485   1.938   .     S
O464   Zn482   1.938   .     S
O465   Zn476   1.918   .     S
O466   Zn483   1.938   .     S
O467   Zn473   1.938   .     S
O468   Zn481   1.938   .     S
O469   Zn475   1.918   .     S
O470   Zn478   1.918   .     S
O471   Zn477   1.918   .     S
O472   Zn480   1.918   .     S
Zn474  O924    1.938   1_545 S
Zn477  O929    1.938   1_545 S
Zn478  O934    1.938   1_545 S
Zn481  O188    1.938   1_655 S
Zn482  O931    1.938   .     S
Zn484  O177    1.938   1_655 S
Zn487  O942    1.937   .     S
Zn488  O937    1.938   1_545 S
C489   C496    1.418   .     S
C489   C500    1.196   1_554 S
C490   O713    1.278   .     A
C490   O666    1.278   .     A
C490   C555    1.418   .     S
C491   O667    1.278   .     A
C491   C544    1.418   .     S
C491   O714    1.278   .     A
C492   C533    1.418   .     S
C492   O668    1.278   .     S
C492   O715    1.278   .     S
C493   C522    1.418   .     S
C493   O669    1.278   .     S
C494   O674    1.278   .     A
C494   C511    1.418   .     S
C495   C500    1.418   .     S
C495   O671    1.278   .     A
C495   O919    1.278   1_455 S
C496   O916    1.278   1_455 A
C496   O677    1.278   .     S
C497   C557    1.457   .     S
C497   O678    1.275   .     A
C497   O711    1.276   .     A
C498   O712    1.276   .     A
C498   C558    1.459   .     S
C498   O679    1.276   .     A
C499   C550    1.459   .     S
C499   O680    1.276   .     A
C499   O708    1.276   .     A
C500   C489    1.196   1_556 S
C501   O710    1.276   .     A
C501   O681    1.276   .     A
C501   C551    1.458   .     S
C502   C552    1.459   .     S
C502   O682    1.276   .     A
C502   O706    1.276   .     A
C503   C553    1.459   .     S
C503   O683    1.276   .     A
C503   O707    1.276   .     A
C504   O704    1.275   .     A
C504   O684    1.276   .     A
C504   C554    1.457   .     S
C505   O685    1.276   .     A
C505   O705    1.276   .     A
C505   C556    1.458   .     S
C506   O702    1.276   .     A
C506   O686    1.276   .     A
C506   C565    1.458   .     S
C507   O688    1.275   .     A
C507   C567    1.459   .     S
C507   O703    1.277   .     A
C508   C559    1.459   .     S
C508   O689    1.276   .     A
C508   O700    1.276   .     A
C509   C560    1.459   .     S
C509   O701    1.276   .     A
C509   O690    1.276   .     A
C510   O691    1.276   .     A
C510   O697    1.276   .     A
C510   C561    1.458   .     S
C511   C522    1.196   1_554 S
C512   C562    1.455   .     S
C512   O699    1.275   .     A
C512   O692    1.275   .     A
C513   C563    1.459   .     S
C513   O695    1.276   .     A
C513   O693    1.276   .     A
C514   C564    1.459   .     S
C514   O694    1.277   .     A
C514   O696    1.275   .     A
C515   C527    1.399   .     A
C515   N633    1.436   .     S
C515   C562    1.404   .     A
C516   C561    1.407   .     A
C516   C526    1.404   .     A
C516   N644    1.437   .     S
C517   C560    1.407   .     A
C517   N655    1.436   .     S
C517   C525    1.404   .     A
C518   C559    1.407   .     A
C518   C524    1.404   .     A
C518   N659    1.437   .     S
C519   N660    1.436   .     S
C519   C531    1.405   .     A
C519   C567    1.408   .     A
C520   C565    1.407   .     A
C520   N661    1.436   .     S
C520   C530    1.404   .     A
C521   C564    1.413   .     A
C521   C529    1.398   .     A
C521   N662    1.436   .     S
C522   C511    1.196   1_556 S
C523   C563    1.407   .     A
C523   N663    1.436   .     S
C523   C528    1.404   .     A
C524   C553    1.408   .     A
C524   N664    1.436   .     S
C525   N634    1.436   .     S
C525   C552    1.407   .     A
C526   N635    1.437   .     S
C526   C551    1.407   .     A
C527   C550    1.414   .     A
C527   N636    1.436   .     S
C528   C558    1.407   .     A
C528   N637    1.437   .     S
C529   N638    1.436   .     S
C529   C557    1.405   .     A
C530   C556    1.407   .     A
C530   N639    1.436   .     S
C531   C554    1.406   .     A
C531   N640    1.436   .     S
C532   N641    1.437   .     S
C532   C551    1.407   .     A
C532   C545    1.404   .     A
C533   C544    1.196   .     S
C534   C550    1.414   .     A
C534   N642    1.436   .     S
C534   C543    1.399   .     A
C535   C553    1.407   .     A
C535   C542    1.404   .     A
C535   N643    1.437   .     S
C536   C552    1.407   .     A
C536   C541    1.404   .     A
C536   N645    1.436   .     S
C537   C556    1.407   .     A
C537   C549    1.404   .     A
C537   N646    1.436   .     S
C538   C554    1.405   .     A
C538   N647    1.436   .     S
C538   C548    1.398   .     A
C539   N648    1.436   .     S
C539   C558    1.407   .     A
C539   C547    1.404   .     A
C540   C557    1.406   .     A
C540   N649    1.436   .     S
C540   C546    1.405   .     A
C541   N650    1.436   .     S
C541   C560    1.407   .     A
C542   N651    1.436   .     S
C542   C559    1.408   .     A
C543   N652    1.436   .     S
C543   C562    1.404   .     A
C545   N653    1.437   .     S
C545   C561    1.407   .     A
C546   C564    1.408   .     A
C546   N654    1.436   .     S
C547   C563    1.407   .     A
C547   N656    1.437   .     S
C548   C567    1.413   .     A
C548   N657    1.436   .     S
C549   C565    1.407   .     A
C549   N658    1.436   .     S
C555   C566    1.196   .     T
C566   C812    1.418   1_455 S
C568   C810    1.418   .     S
C568   O953    1.278   .     A
C568   O960    1.278   .     A
H569   N633    1.046   .     S
H570   N660    1.045   .     S
H571   N661    1.045   .     S
H572   N661    1.045   .     S
H573   N662    1.046   .     S
H574   N662    1.044   .     S
H575   N663    1.045   .     S
H576   N663    1.045   .     S
H577   N664    1.045   .     S
H578   N664    1.045   .     S
H579   N634    1.045   .     S
H580   N633    1.046   .     S
H581   N634    1.045   .     S
H582   N635    1.045   .     S
H583   N635    1.045   .     S
H584   N636    1.044   .     S
H585   N636    1.046   .     S
H586   N637    1.045   .     S
H587   N637    1.045   .     S
H588   N638    1.046   .     S
H589   N638    1.046   .     S
H590   N639    1.045   .     S
H591   N644    1.045   .     S
H592   N639    1.045   .     S
H593   N640    1.045   .     S
H594   N640    1.045   .     S
H595   N641    1.045   .     S
H596   N641    1.045   .     S
H597   N642    1.046   .     S
H598   N642    1.044   .     S
H599   N643    1.045   .     S
H600   N643    1.045   .     S
H601   N645    1.045   .     S
H602   N644    1.045   .     S
H603   N645    1.045   .     S
H604   N646    1.045   .     S
H605   N646    1.045   .     S
H606   N647    1.046   .     S
H607   N647    1.046   .     S
H608   N648    1.045   .     S
H609   N648    1.045   .     S
H610   N649    1.045   .     S
H611   N649    1.045   .     S
H612   N650    1.045   .     S
H613   N655    1.045   .     S
H614   N650    1.045   .     S
H615   N651    1.045   .     S
H616   N651    1.045   .     S
H617   N652    1.046   .     S
H618   N652    1.046   .     S
H619   N653    1.045   .     S
H620   N653    1.045   .     S
H621   N654    1.045   .     S
H622   N654    1.045   .     S
H623   N656    1.045   .     S
H624   N655    1.045   .     S
H625   N656    1.045   .     S
H626   N657    1.044   .     S
H627   N657    1.046   .     S
H628   N658    1.045   .     S
H629   N658    1.045   .     S
H630   N659    1.045   .     S
H631   N659    1.045   .     S
H632   N660    1.045   .     S
O665   Zn717   1.938   .     S
O665   Zn724   1.937   .     S
O665   Zn720   1.938   .     S
O665   Zn972   1.938   1_455 S
O666   Zn723   1.918   .     S
O667   Zn718   1.918   .     S
O668   Zn732   1.918   .     S
O669   Zn727   1.918   .     S
O670   Zn726   1.918   .     S
O670   C6      1.278   1_565 S
O671   Zn729   1.918   .     S
O672   C740    1.278   .     A
O672   Zn728   1.918   .     S
O673   Zn731   1.918   .     S
O673   C5      1.278   1_565 A
O674   Zn730   1.918   .     S
O675   Zn725   1.918   .     S
O675   C739    1.278   .     S
O676   Zn729   1.938   .     S
O676   Zn719   1.938   .     S
O676   Zn723   1.937   .     S
O676   Zn969   1.938   1_455 S
O677   Zn717   1.918   .     S
O678   Zn724   1.938   .     S
O679   Zn967   1.938   .     S
O680   Zn230   1.938   1_565 S
O681   Zn732   1.938   .     S
O682   Zn964   1.938   .     S
O683   Zn719   1.938   .     S
O684   Zn722   1.938   .     S
O685   Zn233   1.938   1_565 S
O686   Zn723   1.938   .     S
O687   Zn730   1.937   .     S
O687   Zn718   1.938   .     S
O687   Zn722   1.938   .     S
O688   Zn968   1.938   .     S
O689   Zn721   1.938   .     S
O690   Zn234   1.938   1_565 S
O691   Zn963   1.938   .     S
O692   Zn720   1.938   .     S
O693   Zn244   1.938   1_565 S
O694   Zn718   1.938   .     S
O695   Zn731   1.938   .     S
O696   Zn730   1.938   .     S
O697   Zn725   1.938   .     S
O698   Zn721   1.938   .     S
O698   Zn732   1.938   .     S
O698   Zn727   1.938   .     S
O699   Zn717   1.938   .     S
O700   Zn727   1.938   .     S
O701   Zn726   1.938   .     S
O702   Zn729   1.938   .     S
O703   Zn728   1.938   .     S
O704   Zn730   1.938   .     S
O705   Zn731   1.938   .     S
O706   Zn728   1.938   .     S
O707   Zn729   1.938   .     S
O708   Zn726   1.938   .     S
O709   C812    1.278   1_455 A
O709   Zn720   1.918   .     S
O710   Zn727   1.938   .     S
O711   Zn717   1.938   .     S
O712   Zn725   1.938   .     S
O713   Zn719   1.918   .     S
O714   Zn722   1.918   .     S
O715   Zn721   1.918   .     S
O716   C812    1.278   1_455 A
O716   Zn724   1.918   .     S
Zn719  O935    1.938   1_455 S
Zn720  O926    1.938   1_455 S
Zn723  O923    1.938   1_455 S
Zn724  O932    1.938   1_455 S
Zn725  O920    1.938   .     S
Zn726  O199    1.938   1_565 S
Zn728  O909    1.938   .     S
Zn731  O210    1.937   1_565 S
C733   C740    1.418   .     S
C733   C744    1.196   1_554 S
C734   O957    1.278   .     A
C734   O910    1.278   .     A
C734   C799    1.418   .     S
C735   O911    1.278   .     A
C735   C788    1.418   .     S
C735   O958    1.278   .     A
C736   C777    1.418   .     S
C736   O912    1.278   .     S
C736   O959    1.278   .     S
C737   C766    1.418   .     S
C737   O913    1.278   .     S
C738   O918    1.278   .     A
C738   C755    1.418   .     S
C739   C744    1.418   .     S
C739   O915    1.278   .     A
C740   O921    1.278   .     S
C741   C801    1.457   .     S
C741   O922    1.275   .     A
C741   O955    1.276   .     A
C742   O956    1.276   .     A
C742   C802    1.459   .     S
C742   O923    1.276   .     A
C743   C794    1.459   .     S
C743   O924    1.276   .     A
C743   O952    1.276   .     A
C744   C733    1.196   1_556 S
C745   O954    1.276   .     A
C745   O925    1.276   .     A
C745   C795    1.458   .     S
C746   C796    1.459   .     S
C746   O926    1.276   .     A
C746   O950    1.276   .     A
C747   C797    1.459   .     S
C747   O927    1.276   .     A
C747   O951    1.276   .     A
C748   O948    1.275   .     A
C748   O928    1.276   .     A
C748   C798    1.457   .     S
C749   O929    1.276   .     A
C749   O949    1.276   .     A
C749   C800    1.458   .     S
C750   O946    1.276   .     A
C750   O930    1.276   .     A
C750   C809    1.458   .     S
C751   O932    1.275   .     A
C751   C811    1.459   .     S
C751   O947    1.277   .     A
C752   C803    1.459   .     S
C752   O933    1.276   .     A
C752   O944    1.276   .     A
C753   C804    1.459   .     S
C753   O945    1.276   .     A
C753   O934    1.276   .     A
C754   O935    1.276   .     A
C754   O941    1.276   .     A
C754   C805    1.458   .     S
C755   C766    1.196   1_554 S
C756   C806    1.455   .     S
C756   O943    1.275   .     A
C756   O936    1.275   .     A
C757   C807    1.459   .     S
C757   O939    1.276   .     A
C757   O937    1.276   .     A
C758   C808    1.459   .     S
C758   O938    1.277   .     A
C758   O940    1.275   .     A
C759   C771    1.399   .     A
C759   N877    1.436   .     S
C759   C806    1.404   .     A
C760   C805    1.407   .     A
C760   C770    1.404   .     A
C760   N888    1.437   .     S
C761   C804    1.407   .     A
C761   N899    1.436   .     S
C761   C769    1.404   .     A
C762   C803    1.407   .     A
C762   C768    1.404   .     A
C762   N903    1.437   .     S
C763   N904    1.436   .     S
C763   C775    1.405   .     A
C763   C811    1.408   .     A
C764   C809    1.407   .     A
C764   N905    1.436   .     S
C764   C774    1.404   .     A
C765   C808    1.413   .     A
C765   C773    1.398   .     A
C765   N906    1.436   .     S
C766   C755    1.196   1_556 S
C767   C807    1.407   .     A
C767   N907    1.436   .     S
C767   C772    1.404   .     A
C768   C797    1.408   .     A
C768   N908    1.436   .     S
C769   N878    1.436   .     S
C769   C796    1.407   .     A
C770   N879    1.437   .     S
C770   C795    1.407   .     A
C771   C794    1.414   .     A
C771   N880    1.436   .     S
C772   C802    1.407   .     A
C772   N881    1.437   .     S
C773   N882    1.436   .     S
C773   C801    1.405   .     A
C774   C800    1.407   .     A
C774   N883    1.436   .     S
C775   C798    1.406   .     A
C775   N884    1.436   .     S
C776   N885    1.437   .     S
C776   C795    1.407   .     A
C776   C789    1.404   .     A
C777   C788    1.196   .     S
C778   C794    1.414   .     A
C778   N886    1.436   .     S
C778   C787    1.399   .     A
C779   C797    1.407   .     A
C779   C786    1.404   .     A
C779   N887    1.437   .     S
C780   C796    1.407   .     A
C780   C785    1.404   .     A
C780   N889    1.436   .     S
C781   C800    1.407   .     A
C781   C793    1.404   .     A
C781   N890    1.436   .     S
C782   C798    1.405   .     A
C782   N891    1.436   .     S
C782   C792    1.398   .     A
C783   N892    1.436   .     S
C783   C802    1.407   .     A
C783   C791    1.404   .     A
C784   C801    1.406   .     A
C784   N893    1.436   .     S
C784   C790    1.405   .     A
C785   N894    1.436   .     S
C785   C804    1.407   .     A
C786   N895    1.436   .     S
C786   C803    1.408   .     A
C787   N896    1.436   .     S
C787   C806    1.404   .     A
C789   N897    1.437   .     S
C789   C805    1.407   .     A
C790   C808    1.408   .     A
C790   N898    1.436   .     S
C791   C807    1.407   .     A
C791   N900    1.437   .     S
C792   C811    1.413   .     A
C792   N901    1.436   .     S
C793   C809    1.407   .     A
C793   N902    1.436   .     S
C799   C810    1.196   .     T
C812   C566    1.418   1_655 S
C812   O709    1.278   1_655 A
C812   O716    1.278   1_655 A
H813   N877    1.046   .     S
H814   N904    1.045   .     S
H815   N905    1.045   .     S
H816   N905    1.045   .     S
H817   N906    1.046   .     S
H818   N906    1.044   .     S
H819   N907    1.045   .     S
H820   N907    1.045   .     S
H821   N908    1.045   .     S
H822   N908    1.045   .     S
H823   N878    1.045   .     S
H824   N877    1.046   .     S
H825   N878    1.045   .     S
H826   N879    1.045   .     S
H827   N879    1.045   .     S
H828   N880    1.044   .     S
H829   N880    1.046   .     S
H830   N881    1.045   .     S
H831   N881    1.045   .     S
H832   N882    1.046   .     S
H833   N882    1.046   .     S
H834   N883    1.045   .     S
H835   N888    1.045   .     S
H836   N883    1.045   .     S
H837   N884    1.045   .     S
H838   N884    1.045   .     S
H839   N885    1.045   .     S
H840   N885    1.045   .     S
H841   N886    1.046   .     S
H842   N886    1.044   .     S
H843   N887    1.045   .     S
H844   N887    1.045   .     S
H845   N889    1.045   .     S
H846   N888    1.045   .     S
H847   N889    1.045   .     S
H848   N890    1.045   .     S
H849   N890    1.045   .     S
H850   N891    1.046   .     S
H851   N891    1.046   .     S
H852   N892    1.045   .     S
H853   N892    1.045   .     S
H854   N893    1.045   .     S
H855   N893    1.045   .     S
H856   N894    1.045   .     S
H857   N899    1.045   .     S
H858   N894    1.045   .     S
H859   N895    1.045   .     S
H860   N895    1.045   .     S
H861   N896    1.046   .     S
H862   N896    1.046   .     S
H863   N897    1.045   .     S
H864   N897    1.045   .     S
H865   N898    1.045   .     S
H866   N898    1.045   .     S
H867   N900    1.045   .     S
H868   N899    1.045   .     S
H869   N900    1.045   .     S
H870   N901    1.044   .     S
H871   N901    1.046   .     S
H872   N902    1.045   .     S
H873   N902    1.045   .     S
H874   N903    1.045   .     S
H875   N903    1.045   .     S
H876   N904    1.045   .     S
O909   Zn961   1.938   .     S
O909   Zn968   1.937   .     S
O909   Zn964   1.938   .     S
O910   Zn967   1.918   .     S
O911   Zn962   1.918   .     S
O912   Zn976   1.918   .     S
O913   Zn971   1.918   .     S
O914   Zn970   1.918   .     S
O914   C250    1.278   1_565 S
O915   Zn973   1.918   .     S
O916   C496    1.278   1_655 A
O916   Zn972   1.918   .     S
O917   Zn975   1.918   .     S
O917   C249    1.278   1_565 A
O918   Zn974   1.918   .     S
O919   Zn969   1.918   .     S
O919   C495    1.278   1_655 S
O920   Zn973   1.938   .     S
O920   Zn963   1.938   .     S
O920   Zn967   1.937   .     S
O921   Zn961   1.918   .     S
O922   Zn968   1.938   .     S
O923   Zn723   1.938   1_655 S
O924   Zn474   1.938   1_565 S
O925   Zn976   1.938   .     S
O926   Zn720   1.938   1_655 S
O927   Zn963   1.938   .     S
O928   Zn966   1.938   .     S
O929   Zn477   1.938   1_565 S
O930   Zn967   1.938   .     S
O931   Zn974   1.937   .     S
O931   Zn962   1.938   .     S
O931   Zn966   1.938   .     S
O932   Zn724   1.938   1_655 S
O933   Zn965   1.938   .     S
O934   Zn478   1.938   1_565 S
O935   Zn719   1.938   1_655 S
O936   Zn964   1.938   .     S
O937   Zn488   1.938   1_565 S
O938   Zn962   1.938   .     S
O939   Zn975   1.938   .     S
O940   Zn974   1.938   .     S
O941   Zn969   1.938   .     S
O942   Zn965   1.938   .     S
O942   Zn976   1.938   .     S
O942   Zn971   1.938   .     S
O943   Zn961   1.938   .     S
O944   Zn971   1.938   .     S
O945   Zn970   1.938   .     S
O946   Zn973   1.938   .     S
O947   Zn972   1.938   .     S
O948   Zn974   1.938   .     S
O949   Zn975   1.938   .     S
O950   Zn972   1.938   .     S
O951   Zn973   1.938   .     S
O952   Zn970   1.938   .     S
O953   Zn964   1.918   .     S
O954   Zn971   1.938   .     S
O955   Zn961   1.938   .     S
O956   Zn969   1.938   .     S
O957   Zn963   1.918   .     S
O958   Zn966   1.918   .     S
O959   Zn965   1.918   .     S
O960   Zn968   1.918   .     S
Zn969  O676    1.938   1_655 S
Zn970  O443    1.938   1_565 S
Zn972  O665    1.938   1_655 S
Zn975  O454    1.937   1_565 S
