data_str_m1_o10_o16_pcu_sym.72
_audit_creation_date              2020-01-03
_audit_creation_method            'Materials Studio'
_symmetry_space_group_name_H-M    'P1'
_symmetry_Int_Tables_number       1
_symmetry_cell_setting            triclinic
loop_
_symmetry_equiv_pos_as_xyz
  x,y,z
_cell_length_a                    32.5439
_cell_length_b                    32.6945
_cell_length_c                    31.0121
_cell_angle_alpha                 96.5591
_cell_angle_beta                  74.5234
_cell_angle_gamma                 98.2807
loop_
_atom_site_label
_atom_site_type_symbol
_atom_site_fract_x
_atom_site_fract_y
_atom_site_fract_z
_atom_site_U_iso_or_equiv
_atom_site_adp_type
_atom_site_occupancy
Zn1    Zn    0.19338   0.13994   0.28734   0.00000  Uiso   1.00
Zn2    Zn    0.13379   0.12458   0.21875   0.00000  Uiso   1.00
Zn3    Zn    0.21056   0.19775   0.20657   0.00000  Uiso   1.00
Zn4    Zn    0.12893   0.20439   0.28733   0.00000  Uiso   1.00
O5     O     0.16667   0.16667   0.25000   0.00000  Uiso   1.00
O6     O     0.07071   0.18878   0.28213   0.00000  Uiso   1.00
O7     O     0.25491   0.15226   0.27013   0.00000  Uiso   1.00
O8     O     0.13760   0.06944   0.23413   0.00000  Uiso   1.00
O9     O     0.20345   0.25620   0.21360   0.00000  Uiso   1.00
O10    O     0.15451   0.12637   0.15458   0.00000  Uiso   1.00
O11    O     0.12940   0.20391   0.34968   0.00000  Uiso   1.00
O12    O     0.20824   0.17759   0.14606   0.00000  Uiso   1.00
O13    O     0.17451   0.15880   0.34968   0.00000  Uiso   1.00
O14    O     0.17930   0.08019   0.28214   0.00000  Uiso   1.00
O15    O     0.14632   0.26085   0.27013   0.00000  Uiso   1.00
O16    O     0.07412   0.13291   0.23413   0.00000  Uiso   1.00
O17    O     0.26693   0.19272   0.21360   0.00000  Uiso   1.00
C18    C     0.05264   0.15921   0.26084   0.00000  Uiso   1.00
C19    C     0.28091   0.17385   0.23980   0.00000  Uiso   1.00
C20    C     0.15673   0.05608   0.25983   0.00000  Uiso   1.00
C21    C     0.17644   0.27791   0.24054   0.00000  Uiso   1.00
C22    C     0.18519   0.14821   0.12940   0.00000  Uiso   1.00
C23    C     0.14761   0.18392   0.37118   0.00000  Uiso   1.00
C24    C     0.20274   0.08991   0.01700   0.00000  Uiso   1.00
H25    H     0.21941   0.08403   0.07832   0.00000  Uiso   1.00
H26    H     0.18086   0.06795   0.43928   0.00000  Uiso   1.00
C27    C     0.19150   0.14022   0.08123   0.00000  Uiso   1.00
C28    C     0.12340   0.22854   0.44067   0.00000  Uiso   1.00
C29    C     0.12034   0.23997   0.48596   0.00000  Uiso   1.00
C30    C     0.13520   0.21517   0.01091   0.00000  Uiso   1.00
C31    C     0.15066   0.17703   0.49193   0.00000  Uiso   1.00
C32    C     0.14714   0.16272   0.44785   0.00000  Uiso   1.00
C33    C     0.16908   0.15250   0.01541   0.00000  Uiso   1.00
C34    C     0.18263   0.11372   0.49487   0.00000  Uiso   1.00
C35    C     0.17385   0.09854   0.45387   0.00000  Uiso   1.00
C36    C     0.15277   0.12087   0.43252   0.00000  Uiso   1.00
C37    C     0.17442   0.16522   0.05878   0.00000  Uiso   1.00
C38    C     0.20661   0.10343   0.06017   0.00000  Uiso   1.00
C39    C     0.13814   0.19085   0.42072   0.00000  Uiso   1.00
H40    H     0.16375   0.19334   0.07722   0.00000  Uiso   1.00
H41    H     0.11497   0.24960   0.42071   0.00000  Uiso   1.00
H42    H     0.13356   0.22651   0.04523   0.00000  Uiso   1.00
C43    C     0.32721   0.17666   0.23490   0.00000  Uiso   1.00
C44    C     0.00758   0.15783   0.26382   0.00000  Uiso   1.00
H45    H     0.31873   0.14121   0.29068   0.00000  Uiso   1.00
C46    C     0.17886   0.32221   0.23712   0.00000  Uiso   1.00
H47    H     0.20302   0.00250   0.20935   0.00000  Uiso   1.00
C48    C     0.15154   0.01269   0.26595   0.00000  Uiso   1.00
N49    N     0.12119   0.33182   0.30587   0.00000  Uiso   1.00
O50    O     0.08264   0.00942   0.31646   0.00000  Uiso   1.00
O51    O     0.13479   0.31775   0.33653   0.00000  Uiso   1.00
N52    N     0.21805   0.05131   0.49712   0.00000  Uiso   1.00
O53    O     0.19123   0.02024   0.48771   0.00000  Uiso   1.00
O54    O     0.25627   0.04443   0.49777   0.00000  Uiso   1.00
C55    C     0.10253   0.27932   0.00783   0.00000  Uiso   1.00
H56    H     0.09420   0.29698   0.48342   0.00000  Uiso   1.00
H57    H     0.07306   0.27174   0.03483   0.00000  Uiso   1.00
H58    H     0.12648   0.29930   0.02288   0.00000  Uiso   1.00
N59    N     0.13226   0.09880   0.39951   0.00000  Uiso   1.00
O60    O     0.14800   0.06672   0.37547   0.00000  Uiso   1.00
O61    O     0.09444   0.10651   0.39837   0.00000  Uiso   1.00
C62    C     0.02521   0.20027   0.19794   0.00000  Uiso   1.00
H63    H     0.00872   0.21393   0.17700   0.00000  Uiso   1.00
H64    H     0.04466   0.22596   0.21283   0.00000  Uiso   1.00
H65    H     0.04696   0.17908   0.17549   0.00000  Uiso   1.00
Zn66   Zn    0.52672   0.13994   0.28734   0.00000  Uiso   1.00
Zn67   Zn    0.46713   0.12458   0.21875   0.00000  Uiso   1.00
Zn68   Zn    0.54389   0.19775   0.20657   0.00000  Uiso   1.00
Zn69   Zn    0.46226   0.20439   0.28733   0.00000  Uiso   1.00
O70    O     0.50000   0.16667   0.25000   0.00000  Uiso   1.00
O71    O     0.40405   0.18878   0.28213   0.00000  Uiso   1.00
O72    O     0.58824   0.15226   0.27013   0.00000  Uiso   1.00
O73    O     0.47093   0.06944   0.23413   0.00000  Uiso   1.00
O74    O     0.53678   0.25620   0.21360   0.00000  Uiso   1.00
O75    O     0.48784   0.12637   0.15458   0.00000  Uiso   1.00
O76    O     0.46274   0.20391   0.34968   0.00000  Uiso   1.00
O77    O     0.54157   0.17759   0.14606   0.00000  Uiso   1.00
O78    O     0.50785   0.15880   0.34968   0.00000  Uiso   1.00
O79    O     0.51264   0.08019   0.28214   0.00000  Uiso   1.00
O80    O     0.47965   0.26085   0.27013   0.00000  Uiso   1.00
O81    O     0.40745   0.13291   0.23413   0.00000  Uiso   1.00
O82    O     0.60026   0.19272   0.21360   0.00000  Uiso   1.00
C83    C     0.38597   0.15921   0.26084   0.00000  Uiso   1.00
C84    C     0.61424   0.17385   0.23980   0.00000  Uiso   1.00
C85    C     0.49006   0.05608   0.25983   0.00000  Uiso   1.00
C86    C     0.50977   0.27791   0.24054   0.00000  Uiso   1.00
C87    C     0.51852   0.14821   0.12940   0.00000  Uiso   1.00
C88    C     0.48094   0.18392   0.37118   0.00000  Uiso   1.00
C89    C     0.53607   0.08991   0.01700   0.00000  Uiso   1.00
H90    H     0.55275   0.08403   0.07832   0.00000  Uiso   1.00
H91    H     0.51420   0.06795   0.43928   0.00000  Uiso   1.00
C92    C     0.52484   0.14022   0.08123   0.00000  Uiso   1.00
C93    C     0.45673   0.22854   0.44067   0.00000  Uiso   1.00
C94    C     0.45367   0.23997   0.48596   0.00000  Uiso   1.00
C95    C     0.46853   0.21517   0.01091   0.00000  Uiso   1.00
C96    C     0.48399   0.17703   0.49193   0.00000  Uiso   1.00
C97    C     0.48047   0.16272   0.44785   0.00000  Uiso   1.00
C98    C     0.50241   0.15250   0.01541   0.00000  Uiso   1.00
C99    C     0.51596   0.11372   0.49487   0.00000  Uiso   1.00
C100   C     0.50718   0.09854   0.45387   0.00000  Uiso   1.00
C101   C     0.48610   0.12087   0.43252   0.00000  Uiso   1.00
C102   C     0.50776   0.16522   0.05878   0.00000  Uiso   1.00
C103   C     0.53995   0.10343   0.06017   0.00000  Uiso   1.00
C104   C     0.47148   0.19085   0.42072   0.00000  Uiso   1.00
H105   H     0.49709   0.19334   0.07722   0.00000  Uiso   1.00
H106   H     0.44830   0.24960   0.42071   0.00000  Uiso   1.00
H107   H     0.46690   0.22651   0.04523   0.00000  Uiso   1.00
C108   C     0.66055   0.17666   0.23490   0.00000  Uiso   1.00
C109   C     0.34091   0.15783   0.26382   0.00000  Uiso   1.00
H110   H     0.65206   0.14121   0.29068   0.00000  Uiso   1.00
C111   C     0.51219   0.32221   0.23712   0.00000  Uiso   1.00
H112   H     0.53636   0.00250   0.20935   0.00000  Uiso   1.00
C113   C     0.48488   0.01269   0.26595   0.00000  Uiso   1.00
N114   N     0.45452   0.33182   0.30587   0.00000  Uiso   1.00
O115   O     0.41597   0.00942   0.31646   0.00000  Uiso   1.00
O116   O     0.46812   0.31775   0.33653   0.00000  Uiso   1.00
N117   N     0.55138   0.05131   0.49712   0.00000  Uiso   1.00
O118   O     0.52456   0.02024   0.48771   0.00000  Uiso   1.00
O119   O     0.58960   0.04443   0.49777   0.00000  Uiso   1.00
C120   C     0.43586   0.27932   0.00783   0.00000  Uiso   1.00
H121   H     0.42754   0.29698   0.48342   0.00000  Uiso   1.00
H122   H     0.40640   0.27174   0.03483   0.00000  Uiso   1.00
H123   H     0.45982   0.29930   0.02288   0.00000  Uiso   1.00
N124   N     0.46560   0.09880   0.39951   0.00000  Uiso   1.00
O125   O     0.48134   0.06672   0.37547   0.00000  Uiso   1.00
O126   O     0.42778   0.10651   0.39837   0.00000  Uiso   1.00
C127   C     0.35854   0.20027   0.19794   0.00000  Uiso   1.00
H128   H     0.34205   0.21393   0.17700   0.00000  Uiso   1.00
H129   H     0.37799   0.22596   0.21283   0.00000  Uiso   1.00
H130   H     0.38029   0.17908   0.17549   0.00000  Uiso   1.00
Zn131  Zn    0.86005   0.13994   0.28734   0.00000  Uiso   1.00
Zn132  Zn    0.80046   0.12458   0.21875   0.00000  Uiso   1.00
Zn133  Zn    0.87723   0.19775   0.20657   0.00000  Uiso   1.00
Zn134  Zn    0.79560   0.20439   0.28733   0.00000  Uiso   1.00
O135   O     0.83333   0.16667   0.25000   0.00000  Uiso   1.00
O136   O     0.73738   0.18878   0.28213   0.00000  Uiso   1.00
O137   O     0.92158   0.15226   0.27013   0.00000  Uiso   1.00
O138   O     0.80426   0.06944   0.23413   0.00000  Uiso   1.00
O139   O     0.87012   0.25620   0.21360   0.00000  Uiso   1.00
O140   O     0.82118   0.12637   0.15458   0.00000  Uiso   1.00
O141   O     0.79607   0.20391   0.34968   0.00000  Uiso   1.00
O142   O     0.87491   0.17759   0.14606   0.00000  Uiso   1.00
O143   O     0.84118   0.15880   0.34968   0.00000  Uiso   1.00
O144   O     0.84597   0.08019   0.28214   0.00000  Uiso   1.00
O145   O     0.81298   0.26085   0.27013   0.00000  Uiso   1.00
O146   O     0.74078   0.13291   0.23413   0.00000  Uiso   1.00
O147   O     0.93360   0.19272   0.21360   0.00000  Uiso   1.00
C148   C     0.71931   0.15921   0.26084   0.00000  Uiso   1.00
C149   C     0.94757   0.17385   0.23980   0.00000  Uiso   1.00
C150   C     0.82339   0.05608   0.25983   0.00000  Uiso   1.00
C151   C     0.84311   0.27791   0.24054   0.00000  Uiso   1.00
C152   C     0.85186   0.14821   0.12940   0.00000  Uiso   1.00
C153   C     0.81428   0.18392   0.37118   0.00000  Uiso   1.00
C154   C     0.86941   0.08991   0.01700   0.00000  Uiso   1.00
H155   H     0.88608   0.08403   0.07832   0.00000  Uiso   1.00
H156   H     0.84753   0.06795   0.43928   0.00000  Uiso   1.00
C157   C     0.85817   0.14022   0.08123   0.00000  Uiso   1.00
C158   C     0.79007   0.22854   0.44067   0.00000  Uiso   1.00
C159   C     0.78701   0.23997   0.48596   0.00000  Uiso   1.00
C160   C     0.80186   0.21517   0.01091   0.00000  Uiso   1.00
C161   C     0.81733   0.17703   0.49193   0.00000  Uiso   1.00
C162   C     0.81381   0.16272   0.44785   0.00000  Uiso   1.00
C163   C     0.83575   0.15250   0.01541   0.00000  Uiso   1.00
C164   C     0.84929   0.11372   0.49487   0.00000  Uiso   1.00
C165   C     0.84052   0.09854   0.45387   0.00000  Uiso   1.00
C166   C     0.81944   0.12087   0.43252   0.00000  Uiso   1.00
C167   C     0.84109   0.16522   0.05878   0.00000  Uiso   1.00
C168   C     0.87328   0.10343   0.06017   0.00000  Uiso   1.00
C169   C     0.80481   0.19085   0.42072   0.00000  Uiso   1.00
H170   H     0.83042   0.19334   0.07722   0.00000  Uiso   1.00
H171   H     0.78164   0.24960   0.42071   0.00000  Uiso   1.00
H172   H     0.80023   0.22651   0.04523   0.00000  Uiso   1.00
C173   C     0.99388   0.17666   0.23490   0.00000  Uiso   1.00
C174   C     0.67425   0.15783   0.26382   0.00000  Uiso   1.00
H175   H     0.98540   0.14121   0.29068   0.00000  Uiso   1.00
C176   C     0.84552   0.32221   0.23712   0.00000  Uiso   1.00
H177   H     0.86969   0.00250   0.20935   0.00000  Uiso   1.00
C178   C     0.81821   0.01269   0.26595   0.00000  Uiso   1.00
N179   N     0.78786   0.33182   0.30587   0.00000  Uiso   1.00
O180   O     0.74930   0.00942   0.31646   0.00000  Uiso   1.00
O181   O     0.80146   0.31775   0.33653   0.00000  Uiso   1.00
N182   N     0.88471   0.05131   0.49712   0.00000  Uiso   1.00
O183   O     0.85789   0.02024   0.48771   0.00000  Uiso   1.00
O184   O     0.92293   0.04443   0.49777   0.00000  Uiso   1.00
C185   C     0.76920   0.27932   0.00783   0.00000  Uiso   1.00
H186   H     0.76087   0.29698   0.48342   0.00000  Uiso   1.00
H187   H     0.73973   0.27174   0.03483   0.00000  Uiso   1.00
H188   H     0.79315   0.29930   0.02288   0.00000  Uiso   1.00
N189   N     0.79893   0.09880   0.39951   0.00000  Uiso   1.00
O190   O     0.81467   0.06672   0.37547   0.00000  Uiso   1.00
O191   O     0.76111   0.10651   0.39837   0.00000  Uiso   1.00
C192   C     0.69188   0.20027   0.19794   0.00000  Uiso   1.00
H193   H     0.67538   0.21393   0.17700   0.00000  Uiso   1.00
H194   H     0.71133   0.22596   0.21283   0.00000  Uiso   1.00
H195   H     0.71363   0.17908   0.17549   0.00000  Uiso   1.00
Zn196  Zn    0.19338   0.47327   0.28734   0.00000  Uiso   1.00
Zn197  Zn    0.13379   0.45791   0.21875   0.00000  Uiso   1.00
Zn198  Zn    0.21056   0.53109   0.20657   0.00000  Uiso   1.00
Zn199  Zn    0.12893   0.53773   0.28733   0.00000  Uiso   1.00
O200   O     0.16667   0.50000   0.25000   0.00000  Uiso   1.00
O201   O     0.07071   0.52211   0.28213   0.00000  Uiso   1.00
O202   O     0.25491   0.48559   0.27013   0.00000  Uiso   1.00
O203   O     0.13760   0.40277   0.23413   0.00000  Uiso   1.00
O204   O     0.20345   0.58953   0.21360   0.00000  Uiso   1.00
O205   O     0.15451   0.45970   0.15458   0.00000  Uiso   1.00
O206   O     0.12940   0.53724   0.34968   0.00000  Uiso   1.00
O207   O     0.20824   0.51092   0.14606   0.00000  Uiso   1.00
O208   O     0.17451   0.49213   0.34968   0.00000  Uiso   1.00
O209   O     0.17930   0.41352   0.28214   0.00000  Uiso   1.00
O210   O     0.14632   0.59418   0.27013   0.00000  Uiso   1.00
O211   O     0.07412   0.46625   0.23413   0.00000  Uiso   1.00
O212   O     0.26693   0.52605   0.21360   0.00000  Uiso   1.00
C213   C     0.05264   0.49255   0.26084   0.00000  Uiso   1.00
C214   C     0.28091   0.50718   0.23980   0.00000  Uiso   1.00
C215   C     0.15673   0.38941   0.25983   0.00000  Uiso   1.00
C216   C     0.17644   0.61124   0.24054   0.00000  Uiso   1.00
C217   C     0.18519   0.48155   0.12940   0.00000  Uiso   1.00
C218   C     0.14761   0.51726   0.37118   0.00000  Uiso   1.00
C219   C     0.20274   0.42325   0.01700   0.00000  Uiso   1.00
H220   H     0.21941   0.41736   0.07832   0.00000  Uiso   1.00
H221   H     0.18086   0.40128   0.43928   0.00000  Uiso   1.00
C222   C     0.19150   0.47356   0.08123   0.00000  Uiso   1.00
C223   C     0.12340   0.56188   0.44067   0.00000  Uiso   1.00
C224   C     0.12034   0.57330   0.48596   0.00000  Uiso   1.00
C225   C     0.13520   0.54850   0.01091   0.00000  Uiso   1.00
C226   C     0.15066   0.51036   0.49193   0.00000  Uiso   1.00
C227   C     0.14714   0.49606   0.44785   0.00000  Uiso   1.00
C228   C     0.16908   0.48584   0.01541   0.00000  Uiso   1.00
C229   C     0.18263   0.44705   0.49487   0.00000  Uiso   1.00
C230   C     0.17385   0.43187   0.45387   0.00000  Uiso   1.00
C231   C     0.15277   0.45420   0.43252   0.00000  Uiso   1.00
C232   C     0.17442   0.49855   0.05878   0.00000  Uiso   1.00
C233   C     0.20661   0.43676   0.06017   0.00000  Uiso   1.00
C234   C     0.13814   0.52419   0.42072   0.00000  Uiso   1.00
H235   H     0.16375   0.52667   0.07722   0.00000  Uiso   1.00
H236   H     0.11497   0.58293   0.42071   0.00000  Uiso   1.00
H237   H     0.13356   0.55984   0.04523   0.00000  Uiso   1.00
C238   C     0.32721   0.51000   0.23490   0.00000  Uiso   1.00
C239   C     0.00758   0.49117   0.26382   0.00000  Uiso   1.00
H240   H     0.31873   0.47454   0.29068   0.00000  Uiso   1.00
C241   C     0.17886   0.65554   0.23712   0.00000  Uiso   1.00
H242   H     0.20302   0.33583   0.20935   0.00000  Uiso   1.00
C243   C     0.15154   0.34602   0.26595   0.00000  Uiso   1.00
N244   N     0.12119   0.66515   0.30587   0.00000  Uiso   1.00
O245   O     0.08264   0.34275   0.31646   0.00000  Uiso   1.00
O246   O     0.13479   0.65108   0.33653   0.00000  Uiso   1.00
N247   N     0.21805   0.38464   0.49712   0.00000  Uiso   1.00
O248   O     0.19123   0.35357   0.48771   0.00000  Uiso   1.00
O249   O     0.25627   0.37776   0.49777   0.00000  Uiso   1.00
C250   C     0.10253   0.61265   0.00783   0.00000  Uiso   1.00
H251   H     0.09420   0.63031   0.48342   0.00000  Uiso   1.00
H252   H     0.07306   0.60507   0.03483   0.00000  Uiso   1.00
H253   H     0.12648   0.63263   0.02288   0.00000  Uiso   1.00
N254   N     0.13226   0.43213   0.39951   0.00000  Uiso   1.00
O255   O     0.14800   0.40005   0.37547   0.00000  Uiso   1.00
O256   O     0.09444   0.43985   0.39837   0.00000  Uiso   1.00
C257   C     0.02521   0.53360   0.19794   0.00000  Uiso   1.00
H258   H     0.00872   0.54726   0.17700   0.00000  Uiso   1.00
H259   H     0.04466   0.55929   0.21283   0.00000  Uiso   1.00
H260   H     0.04696   0.51242   0.17549   0.00000  Uiso   1.00
Zn261  Zn    0.52672   0.47327   0.28734   0.00000  Uiso   1.00
Zn262  Zn    0.46713   0.45791   0.21875   0.00000  Uiso   1.00
Zn263  Zn    0.54389   0.53109   0.20657   0.00000  Uiso   1.00
Zn264  Zn    0.46226   0.53773   0.28733   0.00000  Uiso   1.00
O265   O     0.50000   0.50000   0.25000   0.00000  Uiso   1.00
O266   O     0.40405   0.52211   0.28213   0.00000  Uiso   1.00
O267   O     0.58824   0.48559   0.27013   0.00000  Uiso   1.00
O268   O     0.47093   0.40277   0.23413   0.00000  Uiso   1.00
O269   O     0.53678   0.58953   0.21360   0.00000  Uiso   1.00
O270   O     0.48784   0.45970   0.15458   0.00000  Uiso   1.00
O271   O     0.46274   0.53724   0.34968   0.00000  Uiso   1.00
O272   O     0.54157   0.51092   0.14606   0.00000  Uiso   1.00
O273   O     0.50785   0.49213   0.34968   0.00000  Uiso   1.00
O274   O     0.51264   0.41352   0.28214   0.00000  Uiso   1.00
O275   O     0.47965   0.59418   0.27013   0.00000  Uiso   1.00
O276   O     0.40745   0.46625   0.23413   0.00000  Uiso   1.00
O277   O     0.60026   0.52605   0.21360   0.00000  Uiso   1.00
C278   C     0.38597   0.49255   0.26084   0.00000  Uiso   1.00
C279   C     0.61424   0.50718   0.23980   0.00000  Uiso   1.00
C280   C     0.49006   0.38941   0.25983   0.00000  Uiso   1.00
C281   C     0.50977   0.61124   0.24054   0.00000  Uiso   1.00
C282   C     0.51852   0.48155   0.12940   0.00000  Uiso   1.00
C283   C     0.48094   0.51726   0.37118   0.00000  Uiso   1.00
C284   C     0.53607   0.42325   0.01700   0.00000  Uiso   1.00
H285   H     0.55275   0.41736   0.07832   0.00000  Uiso   1.00
H286   H     0.51420   0.40128   0.43928   0.00000  Uiso   1.00
C287   C     0.52484   0.47356   0.08123   0.00000  Uiso   1.00
C288   C     0.45673   0.56188   0.44067   0.00000  Uiso   1.00
C289   C     0.45367   0.57330   0.48596   0.00000  Uiso   1.00
C290   C     0.46853   0.54850   0.01091   0.00000  Uiso   1.00
C291   C     0.48399   0.51036   0.49193   0.00000  Uiso   1.00
C292   C     0.48047   0.49606   0.44785   0.00000  Uiso   1.00
C293   C     0.50241   0.48584   0.01541   0.00000  Uiso   1.00
C294   C     0.51596   0.44705   0.49487   0.00000  Uiso   1.00
C295   C     0.50718   0.43187   0.45387   0.00000  Uiso   1.00
C296   C     0.48610   0.45420   0.43252   0.00000  Uiso   1.00
C297   C     0.50776   0.49855   0.05878   0.00000  Uiso   1.00
C298   C     0.53995   0.43676   0.06017   0.00000  Uiso   1.00
C299   C     0.47148   0.52419   0.42072   0.00000  Uiso   1.00
H300   H     0.49709   0.52667   0.07722   0.00000  Uiso   1.00
H301   H     0.44830   0.58293   0.42071   0.00000  Uiso   1.00
H302   H     0.46690   0.55984   0.04523   0.00000  Uiso   1.00
C303   C     0.66055   0.51000   0.23490   0.00000  Uiso   1.00
C304   C     0.34091   0.49117   0.26382   0.00000  Uiso   1.00
H305   H     0.65206   0.47454   0.29068   0.00000  Uiso   1.00
C306   C     0.51219   0.65554   0.23712   0.00000  Uiso   1.00
H307   H     0.53636   0.33583   0.20935   0.00000  Uiso   1.00
C308   C     0.48488   0.34602   0.26595   0.00000  Uiso   1.00
N309   N     0.45452   0.66515   0.30587   0.00000  Uiso   1.00
O310   O     0.41597   0.34275   0.31646   0.00000  Uiso   1.00
O311   O     0.46812   0.65108   0.33653   0.00000  Uiso   1.00
N312   N     0.55138   0.38464   0.49712   0.00000  Uiso   1.00
O313   O     0.52456   0.35357   0.48771   0.00000  Uiso   1.00
O314   O     0.58960   0.37776   0.49777   0.00000  Uiso   1.00
C315   C     0.43586   0.61265   0.00783   0.00000  Uiso   1.00
H316   H     0.42754   0.63031   0.48342   0.00000  Uiso   1.00
H317   H     0.40640   0.60507   0.03483   0.00000  Uiso   1.00
H318   H     0.45982   0.63263   0.02288   0.00000  Uiso   1.00
N319   N     0.46560   0.43213   0.39951   0.00000  Uiso   1.00
O320   O     0.48134   0.40005   0.37547   0.00000  Uiso   1.00
O321   O     0.42778   0.43985   0.39837   0.00000  Uiso   1.00
C322   C     0.35854   0.53360   0.19794   0.00000  Uiso   1.00
H323   H     0.34205   0.54726   0.17700   0.00000  Uiso   1.00
H324   H     0.37799   0.55929   0.21283   0.00000  Uiso   1.00
H325   H     0.38029   0.51242   0.17549   0.00000  Uiso   1.00
Zn326  Zn    0.86005   0.47327   0.28734   0.00000  Uiso   1.00
Zn327  Zn    0.80046   0.45791   0.21875   0.00000  Uiso   1.00
Zn328  Zn    0.87723   0.53109   0.20657   0.00000  Uiso   1.00
Zn329  Zn    0.79560   0.53773   0.28733   0.00000  Uiso   1.00
O330   O     0.83333   0.50000   0.25000   0.00000  Uiso   1.00
O331   O     0.73738   0.52211   0.28213   0.00000  Uiso   1.00
O332   O     0.92158   0.48559   0.27013   0.00000  Uiso   1.00
O333   O     0.80426   0.40277   0.23413   0.00000  Uiso   1.00
O334   O     0.87012   0.58953   0.21360   0.00000  Uiso   1.00
O335   O     0.82118   0.45970   0.15458   0.00000  Uiso   1.00
O336   O     0.79607   0.53724   0.34968   0.00000  Uiso   1.00
O337   O     0.87491   0.51092   0.14606   0.00000  Uiso   1.00
O338   O     0.84118   0.49213   0.34968   0.00000  Uiso   1.00
O339   O     0.84597   0.41352   0.28214   0.00000  Uiso   1.00
O340   O     0.81298   0.59418   0.27013   0.00000  Uiso   1.00
O341   O     0.74078   0.46625   0.23413   0.00000  Uiso   1.00
O342   O     0.93360   0.52605   0.21360   0.00000  Uiso   1.00
C343   C     0.71931   0.49255   0.26084   0.00000  Uiso   1.00
C344   C     0.94757   0.50718   0.23980   0.00000  Uiso   1.00
C345   C     0.82339   0.38941   0.25983   0.00000  Uiso   1.00
C346   C     0.84311   0.61124   0.24054   0.00000  Uiso   1.00
C347   C     0.85186   0.48155   0.12940   0.00000  Uiso   1.00
C348   C     0.81428   0.51726   0.37118   0.00000  Uiso   1.00
C349   C     0.86941   0.42325   0.01700   0.00000  Uiso   1.00
H350   H     0.88608   0.41736   0.07832   0.00000  Uiso   1.00
H351   H     0.84753   0.40128   0.43928   0.00000  Uiso   1.00
C352   C     0.85817   0.47356   0.08123   0.00000  Uiso   1.00
C353   C     0.79007   0.56188   0.44067   0.00000  Uiso   1.00
C354   C     0.78701   0.57330   0.48596   0.00000  Uiso   1.00
C355   C     0.80186   0.54850   0.01091   0.00000  Uiso   1.00
C356   C     0.81733   0.51036   0.49193   0.00000  Uiso   1.00
C357   C     0.81381   0.49606   0.44785   0.00000  Uiso   1.00
C358   C     0.83575   0.48584   0.01541   0.00000  Uiso   1.00
C359   C     0.84929   0.44705   0.49487   0.00000  Uiso   1.00
C360   C     0.84052   0.43187   0.45387   0.00000  Uiso   1.00
C361   C     0.81944   0.45420   0.43252   0.00000  Uiso   1.00
C362   C     0.84109   0.49855   0.05878   0.00000  Uiso   1.00
C363   C     0.87328   0.43676   0.06017   0.00000  Uiso   1.00
C364   C     0.80481   0.52419   0.42072   0.00000  Uiso   1.00
H365   H     0.83042   0.52667   0.07722   0.00000  Uiso   1.00
H366   H     0.78164   0.58293   0.42071   0.00000  Uiso   1.00
H367   H     0.80023   0.55984   0.04523   0.00000  Uiso   1.00
C368   C     0.99388   0.51000   0.23490   0.00000  Uiso   1.00
C369   C     0.67425   0.49117   0.26382   0.00000  Uiso   1.00
H370   H     0.98540   0.47454   0.29068   0.00000  Uiso   1.00
C371   C     0.84552   0.65554   0.23712   0.00000  Uiso   1.00
H372   H     0.86969   0.33583   0.20935   0.00000  Uiso   1.00
C373   C     0.81821   0.34602   0.26595   0.00000  Uiso   1.00
N374   N     0.78786   0.66515   0.30587   0.00000  Uiso   1.00
O375   O     0.74930   0.34275   0.31646   0.00000  Uiso   1.00
O376   O     0.80146   0.65108   0.33653   0.00000  Uiso   1.00
N377   N     0.88471   0.38464   0.49712   0.00000  Uiso   1.00
O378   O     0.85789   0.35357   0.48771   0.00000  Uiso   1.00
O379   O     0.92293   0.37776   0.49777   0.00000  Uiso   1.00
C380   C     0.76920   0.61265   0.00783   0.00000  Uiso   1.00
H381   H     0.76087   0.63031   0.48342   0.00000  Uiso   1.00
H382   H     0.73973   0.60507   0.03483   0.00000  Uiso   1.00
H383   H     0.79315   0.63263   0.02288   0.00000  Uiso   1.00
N384   N     0.79893   0.43213   0.39951   0.00000  Uiso   1.00
O385   O     0.81467   0.40005   0.37547   0.00000  Uiso   1.00
O386   O     0.76111   0.43985   0.39837   0.00000  Uiso   1.00
C387   C     0.69188   0.53360   0.19794   0.00000  Uiso   1.00
H388   H     0.67538   0.54726   0.17700   0.00000  Uiso   1.00
H389   H     0.71133   0.55929   0.21283   0.00000  Uiso   1.00
H390   H     0.71363   0.51242   0.17549   0.00000  Uiso   1.00
Zn391  Zn    0.19338   0.80661   0.28734   0.00000  Uiso   1.00
Zn392  Zn    0.13379   0.79124   0.21875   0.00000  Uiso   1.00
Zn393  Zn    0.21056   0.86442   0.20657   0.00000  Uiso   1.00
Zn394  Zn    0.12893   0.87106   0.28733   0.00000  Uiso   1.00
O395   O     0.16667   0.83333   0.25000   0.00000  Uiso   1.00
O396   O     0.07071   0.85544   0.28213   0.00000  Uiso   1.00
O397   O     0.25491   0.81892   0.27013   0.00000  Uiso   1.00
O398   O     0.13760   0.73610   0.23413   0.00000  Uiso   1.00
O399   O     0.20345   0.92286   0.21360   0.00000  Uiso   1.00
O400   O     0.15451   0.79304   0.15458   0.00000  Uiso   1.00
O401   O     0.12940   0.87058   0.34968   0.00000  Uiso   1.00
O402   O     0.20824   0.84425   0.14606   0.00000  Uiso   1.00
O403   O     0.17451   0.82546   0.34968   0.00000  Uiso   1.00
O404   O     0.17930   0.74686   0.28214   0.00000  Uiso   1.00
O405   O     0.14632   0.92751   0.27013   0.00000  Uiso   1.00
O406   O     0.07412   0.79958   0.23413   0.00000  Uiso   1.00
O407   O     0.26693   0.85939   0.21360   0.00000  Uiso   1.00
C408   C     0.05264   0.82588   0.26084   0.00000  Uiso   1.00
C409   C     0.28091   0.84052   0.23980   0.00000  Uiso   1.00
C410   C     0.15673   0.72274   0.25983   0.00000  Uiso   1.00
C411   C     0.17644   0.94458   0.24054   0.00000  Uiso   1.00
C412   C     0.18519   0.81488   0.12940   0.00000  Uiso   1.00
C413   C     0.14761   0.85059   0.37118   0.00000  Uiso   1.00
C414   C     0.20274   0.75658   0.01700   0.00000  Uiso   1.00
H415   H     0.21941   0.75069   0.07832   0.00000  Uiso   1.00
H416   H     0.18086   0.73462   0.43928   0.00000  Uiso   1.00
C417   C     0.19150   0.80689   0.08123   0.00000  Uiso   1.00
C418   C     0.12340   0.89521   0.44067   0.00000  Uiso   1.00
C419   C     0.12034   0.90663   0.48596   0.00000  Uiso   1.00
C420   C     0.13520   0.88183   0.01091   0.00000  Uiso   1.00
C421   C     0.15066   0.84370   0.49193   0.00000  Uiso   1.00
C422   C     0.14714   0.82939   0.44785   0.00000  Uiso   1.00
C423   C     0.16908   0.81917   0.01541   0.00000  Uiso   1.00
C424   C     0.18263   0.78039   0.49487   0.00000  Uiso   1.00
C425   C     0.17385   0.76521   0.45387   0.00000  Uiso   1.00
C426   C     0.15277   0.78753   0.43252   0.00000  Uiso   1.00
C427   C     0.17442   0.83189   0.05878   0.00000  Uiso   1.00
C428   C     0.20661   0.77010   0.06017   0.00000  Uiso   1.00
C429   C     0.13814   0.85752   0.42072   0.00000  Uiso   1.00
H430   H     0.16375   0.86000   0.07722   0.00000  Uiso   1.00
H431   H     0.11497   0.91626   0.42071   0.00000  Uiso   1.00
H432   H     0.13356   0.89317   0.04523   0.00000  Uiso   1.00
C433   C     0.32721   0.84333   0.23490   0.00000  Uiso   1.00
C434   C     0.00758   0.82450   0.26382   0.00000  Uiso   1.00
H435   H     0.31873   0.80788   0.29068   0.00000  Uiso   1.00
C436   C     0.17886   0.98887   0.23712   0.00000  Uiso   1.00
H437   H     0.20302   0.66917   0.20935   0.00000  Uiso   1.00
C438   C     0.15154   0.67936   0.26595   0.00000  Uiso   1.00
N439   N     0.12119   0.99849   0.30587   0.00000  Uiso   1.00
O440   O     0.08264   0.67609   0.31646   0.00000  Uiso   1.00
O441   O     0.13479   0.98441   0.33653   0.00000  Uiso   1.00
N442   N     0.21805   0.71797   0.49712   0.00000  Uiso   1.00
O443   O     0.19123   0.68691   0.48771   0.00000  Uiso   1.00
O444   O     0.25627   0.71109   0.49777   0.00000  Uiso   1.00
C445   C     0.10253   0.94599   0.00783   0.00000  Uiso   1.00
H446   H     0.09420   0.96364   0.48342   0.00000  Uiso   1.00
H447   H     0.07306   0.93840   0.03483   0.00000  Uiso   1.00
H448   H     0.12648   0.96597   0.02288   0.00000  Uiso   1.00
N449   N     0.13226   0.76546   0.39951   0.00000  Uiso   1.00
O450   O     0.14800   0.73339   0.37547   0.00000  Uiso   1.00
O451   O     0.09444   0.77318   0.39837   0.00000  Uiso   1.00
C452   C     0.02521   0.86694   0.19794   0.00000  Uiso   1.00
H453   H     0.00872   0.88060   0.17700   0.00000  Uiso   1.00
H454   H     0.04466   0.89262   0.21283   0.00000  Uiso   1.00
H455   H     0.04696   0.84575   0.17549   0.00000  Uiso   1.00
Zn456  Zn    0.52672   0.80661   0.28734   0.00000  Uiso   1.00
Zn457  Zn    0.46713   0.79124   0.21875   0.00000  Uiso   1.00
Zn458  Zn    0.54389   0.86442   0.20657   0.00000  Uiso   1.00
Zn459  Zn    0.46226   0.87106   0.28733   0.00000  Uiso   1.00
O460   O     0.50000   0.83333   0.25000   0.00000  Uiso   1.00
O461   O     0.40405   0.85544   0.28213   0.00000  Uiso   1.00
O462   O     0.58824   0.81892   0.27013   0.00000  Uiso   1.00
O463   O     0.47093   0.73610   0.23413   0.00000  Uiso   1.00
O464   O     0.53678   0.92286   0.21360   0.00000  Uiso   1.00
O465   O     0.48784   0.79304   0.15458   0.00000  Uiso   1.00
O466   O     0.46274   0.87058   0.34968   0.00000  Uiso   1.00
O467   O     0.54157   0.84425   0.14606   0.00000  Uiso   1.00
O468   O     0.50785   0.82546   0.34968   0.00000  Uiso   1.00
O469   O     0.51264   0.74686   0.28214   0.00000  Uiso   1.00
O470   O     0.47965   0.92751   0.27013   0.00000  Uiso   1.00
O471   O     0.40745   0.79958   0.23413   0.00000  Uiso   1.00
O472   O     0.60026   0.85939   0.21360   0.00000  Uiso   1.00
C473   C     0.38597   0.82588   0.26084   0.00000  Uiso   1.00
C474   C     0.61424   0.84052   0.23980   0.00000  Uiso   1.00
C475   C     0.49006   0.72274   0.25983   0.00000  Uiso   1.00
C476   C     0.50977   0.94458   0.24054   0.00000  Uiso   1.00
C477   C     0.51852   0.81488   0.12940   0.00000  Uiso   1.00
C478   C     0.48094   0.85059   0.37118   0.00000  Uiso   1.00
C479   C     0.53607   0.75658   0.01700   0.00000  Uiso   1.00
H480   H     0.55275   0.75069   0.07832   0.00000  Uiso   1.00
H481   H     0.51420   0.73462   0.43928   0.00000  Uiso   1.00
C482   C     0.52484   0.80689   0.08123   0.00000  Uiso   1.00
C483   C     0.45673   0.89521   0.44067   0.00000  Uiso   1.00
C484   C     0.45367   0.90663   0.48596   0.00000  Uiso   1.00
C485   C     0.46853   0.88183   0.01091   0.00000  Uiso   1.00
C486   C     0.48399   0.84370   0.49193   0.00000  Uiso   1.00
C487   C     0.48047   0.82939   0.44785   0.00000  Uiso   1.00
C488   C     0.50241   0.81917   0.01541   0.00000  Uiso   1.00
C489   C     0.51596   0.78039   0.49487   0.00000  Uiso   1.00
C490   C     0.50718   0.76521   0.45387   0.00000  Uiso   1.00
C491   C     0.48610   0.78753   0.43252   0.00000  Uiso   1.00
C492   C     0.50776   0.83189   0.05878   0.00000  Uiso   1.00
C493   C     0.53995   0.77010   0.06017   0.00000  Uiso   1.00
C494   C     0.47148   0.85752   0.42072   0.00000  Uiso   1.00
H495   H     0.49709   0.86000   0.07722   0.00000  Uiso   1.00
H496   H     0.44830   0.91626   0.42071   0.00000  Uiso   1.00
H497   H     0.46690   0.89317   0.04523   0.00000  Uiso   1.00
C498   C     0.66055   0.84333   0.23490   0.00000  Uiso   1.00
C499   C     0.34091   0.82450   0.26382   0.00000  Uiso   1.00
H500   H     0.65206   0.80788   0.29068   0.00000  Uiso   1.00
C501   C     0.51219   0.98887   0.23712   0.00000  Uiso   1.00
H502   H     0.53636   0.66917   0.20935   0.00000  Uiso   1.00
C503   C     0.48488   0.67936   0.26595   0.00000  Uiso   1.00
N504   N     0.45452   0.99849   0.30587   0.00000  Uiso   1.00
O505   O     0.41597   0.67609   0.31646   0.00000  Uiso   1.00
O506   O     0.46812   0.98441   0.33653   0.00000  Uiso   1.00
N507   N     0.55138   0.71797   0.49712   0.00000  Uiso   1.00
O508   O     0.52456   0.68691   0.48771   0.00000  Uiso   1.00
O509   O     0.58960   0.71109   0.49777   0.00000  Uiso   1.00
C510   C     0.43586   0.94599   0.00783   0.00000  Uiso   1.00
H511   H     0.42754   0.96364   0.48342   0.00000  Uiso   1.00
H512   H     0.40640   0.93840   0.03483   0.00000  Uiso   1.00
H513   H     0.45982   0.96597   0.02288   0.00000  Uiso   1.00
N514   N     0.46560   0.76546   0.39951   0.00000  Uiso   1.00
O515   O     0.48134   0.73339   0.37547   0.00000  Uiso   1.00
O516   O     0.42778   0.77318   0.39837   0.00000  Uiso   1.00
C517   C     0.35854   0.86694   0.19794   0.00000  Uiso   1.00
H518   H     0.34205   0.88060   0.17700   0.00000  Uiso   1.00
H519   H     0.37799   0.89262   0.21283   0.00000  Uiso   1.00
H520   H     0.38029   0.84575   0.17549   0.00000  Uiso   1.00
Zn521  Zn    0.86005   0.80661   0.28734   0.00000  Uiso   1.00
Zn522  Zn    0.80046   0.79124   0.21875   0.00000  Uiso   1.00
Zn523  Zn    0.87723   0.86442   0.20657   0.00000  Uiso   1.00
Zn524  Zn    0.79560   0.87106   0.28733   0.00000  Uiso   1.00
O525   O     0.83333   0.83333   0.25000   0.00000  Uiso   1.00
O526   O     0.73738   0.85544   0.28213   0.00000  Uiso   1.00
O527   O     0.92158   0.81892   0.27013   0.00000  Uiso   1.00
O528   O     0.80426   0.73610   0.23413   0.00000  Uiso   1.00
O529   O     0.87012   0.92286   0.21360   0.00000  Uiso   1.00
O530   O     0.82118   0.79304   0.15458   0.00000  Uiso   1.00
O531   O     0.79607   0.87058   0.34968   0.00000  Uiso   1.00
O532   O     0.87491   0.84425   0.14606   0.00000  Uiso   1.00
O533   O     0.84118   0.82546   0.34968   0.00000  Uiso   1.00
O534   O     0.84597   0.74686   0.28214   0.00000  Uiso   1.00
O535   O     0.81298   0.92751   0.27013   0.00000  Uiso   1.00
O536   O     0.74078   0.79958   0.23413   0.00000  Uiso   1.00
O537   O     0.93360   0.85939   0.21360   0.00000  Uiso   1.00
C538   C     0.71931   0.82588   0.26084   0.00000  Uiso   1.00
C539   C     0.94757   0.84052   0.23980   0.00000  Uiso   1.00
C540   C     0.82339   0.72274   0.25983   0.00000  Uiso   1.00
C541   C     0.84311   0.94458   0.24054   0.00000  Uiso   1.00
C542   C     0.85186   0.81488   0.12940   0.00000  Uiso   1.00
C543   C     0.81428   0.85059   0.37118   0.00000  Uiso   1.00
C544   C     0.86941   0.75658   0.01700   0.00000  Uiso   1.00
H545   H     0.88608   0.75069   0.07832   0.00000  Uiso   1.00
H546   H     0.84753   0.73462   0.43928   0.00000  Uiso   1.00
C547   C     0.85817   0.80689   0.08123   0.00000  Uiso   1.00
C548   C     0.79007   0.89521   0.44067   0.00000  Uiso   1.00
C549   C     0.78701   0.90663   0.48596   0.00000  Uiso   1.00
C550   C     0.80186   0.88183   0.01091   0.00000  Uiso   1.00
C551   C     0.81733   0.84370   0.49193   0.00000  Uiso   1.00
C552   C     0.81381   0.82939   0.44785   0.00000  Uiso   1.00
C553   C     0.83575   0.81917   0.01541   0.00000  Uiso   1.00
C554   C     0.84929   0.78039   0.49487   0.00000  Uiso   1.00
C555   C     0.84052   0.76521   0.45387   0.00000  Uiso   1.00
C556   C     0.81944   0.78753   0.43252   0.00000  Uiso   1.00
C557   C     0.84109   0.83189   0.05878   0.00000  Uiso   1.00
C558   C     0.87328   0.77010   0.06017   0.00000  Uiso   1.00
C559   C     0.80481   0.85752   0.42072   0.00000  Uiso   1.00
H560   H     0.83042   0.86000   0.07722   0.00000  Uiso   1.00
H561   H     0.78164   0.91626   0.42071   0.00000  Uiso   1.00
H562   H     0.80023   0.89317   0.04523   0.00000  Uiso   1.00
C563   C     0.99388   0.84333   0.23490   0.00000  Uiso   1.00
C564   C     0.67425   0.82450   0.26382   0.00000  Uiso   1.00
H565   H     0.98540   0.80788   0.29068   0.00000  Uiso   1.00
C566   C     0.84552   0.98887   0.23712   0.00000  Uiso   1.00
H567   H     0.86969   0.66917   0.20935   0.00000  Uiso   1.00
C568   C     0.81821   0.67936   0.26595   0.00000  Uiso   1.00
N569   N     0.78786   0.99849   0.30587   0.00000  Uiso   1.00
O570   O     0.74930   0.67609   0.31646   0.00000  Uiso   1.00
O571   O     0.80146   0.98441   0.33653   0.00000  Uiso   1.00
N572   N     0.88471   0.71797   0.49712   0.00000  Uiso   1.00
O573   O     0.85789   0.68691   0.48771   0.00000  Uiso   1.00
O574   O     0.92293   0.71109   0.49777   0.00000  Uiso   1.00
C575   C     0.76920   0.94599   0.00783   0.00000  Uiso   1.00
H576   H     0.76087   0.96364   0.48342   0.00000  Uiso   1.00
H577   H     0.73973   0.93840   0.03483   0.00000  Uiso   1.00
H578   H     0.79315   0.96597   0.02288   0.00000  Uiso   1.00
N579   N     0.79893   0.76546   0.39951   0.00000  Uiso   1.00
O580   O     0.81467   0.73339   0.37547   0.00000  Uiso   1.00
O581   O     0.76111   0.77318   0.39837   0.00000  Uiso   1.00
C582   C     0.69188   0.86694   0.19794   0.00000  Uiso   1.00
H583   H     0.67538   0.88060   0.17700   0.00000  Uiso   1.00
H584   H     0.71133   0.89262   0.21283   0.00000  Uiso   1.00
H585   H     0.71363   0.84575   0.17549   0.00000  Uiso   1.00
Zn586  Zn    0.19338   0.13994   0.78734   0.00000  Uiso   1.00
Zn587  Zn    0.13379   0.12458   0.71875   0.00000  Uiso   1.00
Zn588  Zn    0.21056   0.19775   0.70657   0.00000  Uiso   1.00
Zn589  Zn    0.12893   0.20439   0.78733   0.00000  Uiso   1.00
O590   O     0.16667   0.16667   0.75000   0.00000  Uiso   1.00
O591   O     0.07071   0.18878   0.78213   0.00000  Uiso   1.00
O592   O     0.25491   0.15226   0.77013   0.00000  Uiso   1.00
O593   O     0.13760   0.06944   0.73413   0.00000  Uiso   1.00
O594   O     0.20345   0.25620   0.71360   0.00000  Uiso   1.00
O595   O     0.15451   0.12637   0.65458   0.00000  Uiso   1.00
O596   O     0.12940   0.20391   0.84968   0.00000  Uiso   1.00
O597   O     0.20824   0.17759   0.64606   0.00000  Uiso   1.00
O598   O     0.17451   0.15880   0.84968   0.00000  Uiso   1.00
O599   O     0.17930   0.08019   0.78214   0.00000  Uiso   1.00
O600   O     0.14632   0.26085   0.77013   0.00000  Uiso   1.00
O601   O     0.07412   0.13291   0.73413   0.00000  Uiso   1.00
O602   O     0.26693   0.19272   0.71360   0.00000  Uiso   1.00
C603   C     0.05264   0.15921   0.76084   0.00000  Uiso   1.00
C604   C     0.28091   0.17385   0.73980   0.00000  Uiso   1.00
C605   C     0.15673   0.05608   0.75983   0.00000  Uiso   1.00
C606   C     0.17644   0.27791   0.74054   0.00000  Uiso   1.00
C607   C     0.18519   0.14821   0.62940   0.00000  Uiso   1.00
C608   C     0.14761   0.18392   0.87118   0.00000  Uiso   1.00
C609   C     0.20274   0.08991   0.51700   0.00000  Uiso   1.00
H610   H     0.21941   0.08403   0.57832   0.00000  Uiso   1.00
H611   H     0.18086   0.06795   0.93928   0.00000  Uiso   1.00
C612   C     0.19150   0.14022   0.58123   0.00000  Uiso   1.00
C613   C     0.12340   0.22854   0.94067   0.00000  Uiso   1.00
C614   C     0.12034   0.23997   0.98596   0.00000  Uiso   1.00
C615   C     0.13520   0.21517   0.51091   0.00000  Uiso   1.00
C616   C     0.15066   0.17703   0.99193   0.00000  Uiso   1.00
C617   C     0.14714   0.16272   0.94785   0.00000  Uiso   1.00
C618   C     0.16908   0.15250   0.51541   0.00000  Uiso   1.00
C619   C     0.18263   0.11372   0.99487   0.00000  Uiso   1.00
C620   C     0.17385   0.09854   0.95387   0.00000  Uiso   1.00
C621   C     0.15277   0.12087   0.93252   0.00000  Uiso   1.00
C622   C     0.17442   0.16522   0.55878   0.00000  Uiso   1.00
C623   C     0.20661   0.10343   0.56017   0.00000  Uiso   1.00
C624   C     0.13814   0.19085   0.92072   0.00000  Uiso   1.00
H625   H     0.16375   0.19334   0.57722   0.00000  Uiso   1.00
H626   H     0.11497   0.24960   0.92071   0.00000  Uiso   1.00
H627   H     0.13356   0.22651   0.54523   0.00000  Uiso   1.00
C628   C     0.32721   0.17666   0.73490   0.00000  Uiso   1.00
C629   C     0.00758   0.15783   0.76382   0.00000  Uiso   1.00
H630   H     0.31873   0.14121   0.79068   0.00000  Uiso   1.00
C631   C     0.17886   0.32221   0.73712   0.00000  Uiso   1.00
H632   H     0.20302   0.00250   0.70935   0.00000  Uiso   1.00
C633   C     0.15154   0.01269   0.76595   0.00000  Uiso   1.00
N634   N     0.12119   0.33182   0.80587   0.00000  Uiso   1.00
O635   O     0.08264   0.00942   0.81646   0.00000  Uiso   1.00
O636   O     0.13479   0.31775   0.83653   0.00000  Uiso   1.00
N637   N     0.21805   0.05131   0.99712   0.00000  Uiso   1.00
O638   O     0.19123   0.02024   0.98771   0.00000  Uiso   1.00
O639   O     0.25627   0.04443   0.99777   0.00000  Uiso   1.00
C640   C     0.10253   0.27932   0.50783   0.00000  Uiso   1.00
H641   H     0.09420   0.29698   0.98342   0.00000  Uiso   1.00
H642   H     0.07306   0.27174   0.53483   0.00000  Uiso   1.00
H643   H     0.12648   0.29930   0.52288   0.00000  Uiso   1.00
N644   N     0.13226   0.09880   0.89951   0.00000  Uiso   1.00
O645   O     0.14800   0.06672   0.87547   0.00000  Uiso   1.00
O646   O     0.09444   0.10651   0.89837   0.00000  Uiso   1.00
C647   C     0.02521   0.20027   0.69794   0.00000  Uiso   1.00
H648   H     0.00872   0.21393   0.67700   0.00000  Uiso   1.00
H649   H     0.04466   0.22596   0.71283   0.00000  Uiso   1.00
H650   H     0.04696   0.17908   0.67549   0.00000  Uiso   1.00
Zn651  Zn    0.52672   0.13994   0.78734   0.00000  Uiso   1.00
Zn652  Zn    0.46713   0.12458   0.71875   0.00000  Uiso   1.00
Zn653  Zn    0.54389   0.19775   0.70657   0.00000  Uiso   1.00
Zn654  Zn    0.46226   0.20439   0.78733   0.00000  Uiso   1.00
O655   O     0.50000   0.16667   0.75000   0.00000  Uiso   1.00
O656   O     0.40405   0.18878   0.78213   0.00000  Uiso   1.00
O657   O     0.58824   0.15226   0.77013   0.00000  Uiso   1.00
O658   O     0.47093   0.06944   0.73413   0.00000  Uiso   1.00
O659   O     0.53678   0.25620   0.71360   0.00000  Uiso   1.00
O660   O     0.48784   0.12637   0.65458   0.00000  Uiso   1.00
O661   O     0.46274   0.20391   0.84968   0.00000  Uiso   1.00
O662   O     0.54157   0.17759   0.64606   0.00000  Uiso   1.00
O663   O     0.50785   0.15880   0.84968   0.00000  Uiso   1.00
O664   O     0.51264   0.08019   0.78214   0.00000  Uiso   1.00
O665   O     0.47965   0.26085   0.77013   0.00000  Uiso   1.00
O666   O     0.40745   0.13291   0.73413   0.00000  Uiso   1.00
O667   O     0.60026   0.19272   0.71360   0.00000  Uiso   1.00
C668   C     0.38597   0.15921   0.76084   0.00000  Uiso   1.00
C669   C     0.61424   0.17385   0.73980   0.00000  Uiso   1.00
C670   C     0.49006   0.05608   0.75983   0.00000  Uiso   1.00
C671   C     0.50977   0.27791   0.74054   0.00000  Uiso   1.00
C672   C     0.51852   0.14821   0.62940   0.00000  Uiso   1.00
C673   C     0.48094   0.18392   0.87118   0.00000  Uiso   1.00
C674   C     0.53607   0.08991   0.51700   0.00000  Uiso   1.00
H675   H     0.55275   0.08403   0.57832   0.00000  Uiso   1.00
H676   H     0.51420   0.06795   0.93928   0.00000  Uiso   1.00
C677   C     0.52484   0.14022   0.58123   0.00000  Uiso   1.00
C678   C     0.45673   0.22854   0.94067   0.00000  Uiso   1.00
C679   C     0.45367   0.23997   0.98596   0.00000  Uiso   1.00
C680   C     0.46853   0.21517   0.51091   0.00000  Uiso   1.00
C681   C     0.48399   0.17703   0.99193   0.00000  Uiso   1.00
C682   C     0.48047   0.16272   0.94785   0.00000  Uiso   1.00
C683   C     0.50241   0.15250   0.51541   0.00000  Uiso   1.00
C684   C     0.51596   0.11372   0.99487   0.00000  Uiso   1.00
C685   C     0.50718   0.09854   0.95387   0.00000  Uiso   1.00
C686   C     0.48610   0.12087   0.93252   0.00000  Uiso   1.00
C687   C     0.50776   0.16522   0.55878   0.00000  Uiso   1.00
C688   C     0.53995   0.10343   0.56017   0.00000  Uiso   1.00
C689   C     0.47148   0.19085   0.92072   0.00000  Uiso   1.00
H690   H     0.49709   0.19334   0.57722   0.00000  Uiso   1.00
H691   H     0.44830   0.24960   0.92071   0.00000  Uiso   1.00
H692   H     0.46690   0.22651   0.54523   0.00000  Uiso   1.00
C693   C     0.66055   0.17666   0.73490   0.00000  Uiso   1.00
C694   C     0.34091   0.15783   0.76382   0.00000  Uiso   1.00
H695   H     0.65206   0.14121   0.79068   0.00000  Uiso   1.00
C696   C     0.51219   0.32221   0.73712   0.00000  Uiso   1.00
H697   H     0.53636   0.00250   0.70935   0.00000  Uiso   1.00
C698   C     0.48488   0.01269   0.76595   0.00000  Uiso   1.00
N699   N     0.45452   0.33182   0.80587   0.00000  Uiso   1.00
O700   O     0.41597   0.00942   0.81646   0.00000  Uiso   1.00
O701   O     0.46812   0.31775   0.83653   0.00000  Uiso   1.00
N702   N     0.55138   0.05131   0.99712   0.00000  Uiso   1.00
O703   O     0.52456   0.02024   0.98771   0.00000  Uiso   1.00
O704   O     0.58960   0.04443   0.99777   0.00000  Uiso   1.00
C705   C     0.43586   0.27932   0.50783   0.00000  Uiso   1.00
H706   H     0.42754   0.29698   0.98342   0.00000  Uiso   1.00
H707   H     0.40640   0.27174   0.53483   0.00000  Uiso   1.00
H708   H     0.45982   0.29930   0.52288   0.00000  Uiso   1.00
N709   N     0.46560   0.09880   0.89951   0.00000  Uiso   1.00
O710   O     0.48134   0.06672   0.87547   0.00000  Uiso   1.00
O711   O     0.42778   0.10651   0.89837   0.00000  Uiso   1.00
C712   C     0.35854   0.20027   0.69794   0.00000  Uiso   1.00
H713   H     0.34205   0.21393   0.67700   0.00000  Uiso   1.00
H714   H     0.37799   0.22596   0.71283   0.00000  Uiso   1.00
H715   H     0.38029   0.17908   0.67549   0.00000  Uiso   1.00
Zn716  Zn    0.86005   0.13994   0.78734   0.00000  Uiso   1.00
Zn717  Zn    0.80046   0.12458   0.71875   0.00000  Uiso   1.00
Zn718  Zn    0.87723   0.19775   0.70657   0.00000  Uiso   1.00
Zn719  Zn    0.79560   0.20439   0.78733   0.00000  Uiso   1.00
O720   O     0.83333   0.16667   0.75000   0.00000  Uiso   1.00
O721   O     0.73738   0.18878   0.78213   0.00000  Uiso   1.00
O722   O     0.92158   0.15226   0.77013   0.00000  Uiso   1.00
O723   O     0.80426   0.06944   0.73413   0.00000  Uiso   1.00
O724   O     0.87012   0.25620   0.71360   0.00000  Uiso   1.00
O725   O     0.82118   0.12637   0.65458   0.00000  Uiso   1.00
O726   O     0.79607   0.20391   0.84968   0.00000  Uiso   1.00
O727   O     0.87491   0.17759   0.64606   0.00000  Uiso   1.00
O728   O     0.84118   0.15880   0.84968   0.00000  Uiso   1.00
O729   O     0.84597   0.08019   0.78214   0.00000  Uiso   1.00
O730   O     0.81298   0.26085   0.77013   0.00000  Uiso   1.00
O731   O     0.74078   0.13291   0.73413   0.00000  Uiso   1.00
O732   O     0.93360   0.19272   0.71360   0.00000  Uiso   1.00
C733   C     0.71931   0.15921   0.76084   0.00000  Uiso   1.00
C734   C     0.94757   0.17385   0.73980   0.00000  Uiso   1.00
C735   C     0.82339   0.05608   0.75983   0.00000  Uiso   1.00
C736   C     0.84311   0.27791   0.74054   0.00000  Uiso   1.00
C737   C     0.85186   0.14821   0.62940   0.00000  Uiso   1.00
C738   C     0.81428   0.18392   0.87118   0.00000  Uiso   1.00
C739   C     0.86941   0.08991   0.51700   0.00000  Uiso   1.00
H740   H     0.88608   0.08403   0.57832   0.00000  Uiso   1.00
H741   H     0.84753   0.06795   0.93928   0.00000  Uiso   1.00
C742   C     0.85817   0.14022   0.58123   0.00000  Uiso   1.00
C743   C     0.79007   0.22854   0.94067   0.00000  Uiso   1.00
C744   C     0.78701   0.23997   0.98596   0.00000  Uiso   1.00
C745   C     0.80186   0.21517   0.51091   0.00000  Uiso   1.00
C746   C     0.81733   0.17703   0.99193   0.00000  Uiso   1.00
C747   C     0.81381   0.16272   0.94785   0.00000  Uiso   1.00
C748   C     0.83575   0.15250   0.51541   0.00000  Uiso   1.00
C749   C     0.84929   0.11372   0.99487   0.00000  Uiso   1.00
C750   C     0.84052   0.09854   0.95387   0.00000  Uiso   1.00
C751   C     0.81944   0.12087   0.93252   0.00000  Uiso   1.00
C752   C     0.84109   0.16522   0.55878   0.00000  Uiso   1.00
C753   C     0.87328   0.10343   0.56017   0.00000  Uiso   1.00
C754   C     0.80481   0.19085   0.92072   0.00000  Uiso   1.00
H755   H     0.83042   0.19334   0.57722   0.00000  Uiso   1.00
H756   H     0.78164   0.24960   0.92071   0.00000  Uiso   1.00
H757   H     0.80023   0.22651   0.54523   0.00000  Uiso   1.00
C758   C     0.99388   0.17666   0.73490   0.00000  Uiso   1.00
C759   C     0.67425   0.15783   0.76382   0.00000  Uiso   1.00
H760   H     0.98540   0.14121   0.79068   0.00000  Uiso   1.00
C761   C     0.84552   0.32221   0.73712   0.00000  Uiso   1.00
H762   H     0.86969   0.00250   0.70935   0.00000  Uiso   1.00
C763   C     0.81821   0.01269   0.76595   0.00000  Uiso   1.00
N764   N     0.78786   0.33182   0.80587   0.00000  Uiso   1.00
O765   O     0.74930   0.00942   0.81646   0.00000  Uiso   1.00
O766   O     0.80146   0.31775   0.83653   0.00000  Uiso   1.00
N767   N     0.88471   0.05131   0.99712   0.00000  Uiso   1.00
O768   O     0.85789   0.02024   0.98771   0.00000  Uiso   1.00
O769   O     0.92293   0.04443   0.99777   0.00000  Uiso   1.00
C770   C     0.76920   0.27932   0.50783   0.00000  Uiso   1.00
H771   H     0.76087   0.29698   0.98342   0.00000  Uiso   1.00
H772   H     0.73973   0.27174   0.53483   0.00000  Uiso   1.00
H773   H     0.79315   0.29930   0.52288   0.00000  Uiso   1.00
N774   N     0.79893   0.09880   0.89951   0.00000  Uiso   1.00
O775   O     0.81467   0.06672   0.87547   0.00000  Uiso   1.00
O776   O     0.76111   0.10651   0.89837   0.00000  Uiso   1.00
C777   C     0.69188   0.20027   0.69794   0.00000  Uiso   1.00
H778   H     0.67538   0.21393   0.67700   0.00000  Uiso   1.00
H779   H     0.71133   0.22596   0.71283   0.00000  Uiso   1.00
H780   H     0.71363   0.17908   0.67549   0.00000  Uiso   1.00
Zn781  Zn    0.19338   0.47327   0.78734   0.00000  Uiso   1.00
Zn782  Zn    0.13379   0.45791   0.71875   0.00000  Uiso   1.00
Zn783  Zn    0.21056   0.53109   0.70657   0.00000  Uiso   1.00
Zn784  Zn    0.12893   0.53773   0.78733   0.00000  Uiso   1.00
O785   O     0.16667   0.50000   0.75000   0.00000  Uiso   1.00
O786   O     0.07071   0.52211   0.78213   0.00000  Uiso   1.00
O787   O     0.25491   0.48559   0.77013   0.00000  Uiso   1.00
O788   O     0.13760   0.40277   0.73413   0.00000  Uiso   1.00
O789   O     0.20345   0.58953   0.71360   0.00000  Uiso   1.00
O790   O     0.15451   0.45970   0.65458   0.00000  Uiso   1.00
O791   O     0.12940   0.53724   0.84968   0.00000  Uiso   1.00
O792   O     0.20824   0.51092   0.64606   0.00000  Uiso   1.00
O793   O     0.17451   0.49213   0.84968   0.00000  Uiso   1.00
O794   O     0.17930   0.41352   0.78214   0.00000  Uiso   1.00
O795   O     0.14632   0.59418   0.77013   0.00000  Uiso   1.00
O796   O     0.07412   0.46625   0.73413   0.00000  Uiso   1.00
O797   O     0.26693   0.52605   0.71360   0.00000  Uiso   1.00
C798   C     0.05264   0.49255   0.76084   0.00000  Uiso   1.00
C799   C     0.28091   0.50718   0.73980   0.00000  Uiso   1.00
C800   C     0.15673   0.38941   0.75983   0.00000  Uiso   1.00
C801   C     0.17644   0.61124   0.74054   0.00000  Uiso   1.00
C802   C     0.18519   0.48155   0.62940   0.00000  Uiso   1.00
C803   C     0.14761   0.51726   0.87118   0.00000  Uiso   1.00
C804   C     0.20274   0.42325   0.51700   0.00000  Uiso   1.00
H805   H     0.21941   0.41736   0.57832   0.00000  Uiso   1.00
H806   H     0.18086   0.40128   0.93928   0.00000  Uiso   1.00
C807   C     0.19150   0.47356   0.58123   0.00000  Uiso   1.00
C808   C     0.12340   0.56188   0.94067   0.00000  Uiso   1.00
C809   C     0.12034   0.57330   0.98596   0.00000  Uiso   1.00
C810   C     0.13520   0.54850   0.51091   0.00000  Uiso   1.00
C811   C     0.15066   0.51036   0.99193   0.00000  Uiso   1.00
C812   C     0.14714   0.49606   0.94785   0.00000  Uiso   1.00
C813   C     0.16908   0.48584   0.51541   0.00000  Uiso   1.00
C814   C     0.18263   0.44705   0.99487   0.00000  Uiso   1.00
C815   C     0.17385   0.43187   0.95387   0.00000  Uiso   1.00
C816   C     0.15277   0.45420   0.93252   0.00000  Uiso   1.00
C817   C     0.17442   0.49855   0.55878   0.00000  Uiso   1.00
C818   C     0.20661   0.43676   0.56017   0.00000  Uiso   1.00
C819   C     0.13814   0.52419   0.92072   0.00000  Uiso   1.00
H820   H     0.16375   0.52667   0.57722   0.00000  Uiso   1.00
H821   H     0.11497   0.58293   0.92071   0.00000  Uiso   1.00
H822   H     0.13356   0.55984   0.54523   0.00000  Uiso   1.00
C823   C     0.32721   0.51000   0.73490   0.00000  Uiso   1.00
C824   C     0.00758   0.49117   0.76382   0.00000  Uiso   1.00
H825   H     0.31873   0.47454   0.79068   0.00000  Uiso   1.00
C826   C     0.17886   0.65554   0.73712   0.00000  Uiso   1.00
H827   H     0.20302   0.33583   0.70935   0.00000  Uiso   1.00
C828   C     0.15154   0.34602   0.76595   0.00000  Uiso   1.00
N829   N     0.12119   0.66515   0.80587   0.00000  Uiso   1.00
O830   O     0.08264   0.34275   0.81646   0.00000  Uiso   1.00
O831   O     0.13479   0.65108   0.83653   0.00000  Uiso   1.00
N832   N     0.21805   0.38464   0.99712   0.00000  Uiso   1.00
O833   O     0.19123   0.35357   0.98771   0.00000  Uiso   1.00
O834   O     0.25627   0.37776   0.99777   0.00000  Uiso   1.00
C835   C     0.10253   0.61265   0.50783   0.00000  Uiso   1.00
H836   H     0.09420   0.63031   0.98342   0.00000  Uiso   1.00
H837   H     0.07306   0.60507   0.53483   0.00000  Uiso   1.00
H838   H     0.12648   0.63263   0.52288   0.00000  Uiso   1.00
N839   N     0.13226   0.43213   0.89951   0.00000  Uiso   1.00
O840   O     0.14800   0.40005   0.87547   0.00000  Uiso   1.00
O841   O     0.09444   0.43985   0.89837   0.00000  Uiso   1.00
C842   C     0.02521   0.53360   0.69794   0.00000  Uiso   1.00
H843   H     0.00872   0.54726   0.67700   0.00000  Uiso   1.00
H844   H     0.04466   0.55929   0.71283   0.00000  Uiso   1.00
H845   H     0.04696   0.51242   0.67549   0.00000  Uiso   1.00
Zn846  Zn    0.52672   0.47327   0.78734   0.00000  Uiso   1.00
Zn847  Zn    0.46713   0.45791   0.71875   0.00000  Uiso   1.00
Zn848  Zn    0.54389   0.53109   0.70657   0.00000  Uiso   1.00
Zn849  Zn    0.46226   0.53773   0.78733   0.00000  Uiso   1.00
O850   O     0.50000   0.50000   0.75000   0.00000  Uiso   1.00
O851   O     0.40405   0.52211   0.78213   0.00000  Uiso   1.00
O852   O     0.58824   0.48559   0.77013   0.00000  Uiso   1.00
O853   O     0.47093   0.40277   0.73413   0.00000  Uiso   1.00
O854   O     0.53678   0.58953   0.71360   0.00000  Uiso   1.00
O855   O     0.48784   0.45970   0.65458   0.00000  Uiso   1.00
O856   O     0.46274   0.53724   0.84968   0.00000  Uiso   1.00
O857   O     0.54157   0.51092   0.64606   0.00000  Uiso   1.00
O858   O     0.50785   0.49213   0.84968   0.00000  Uiso   1.00
O859   O     0.51264   0.41352   0.78214   0.00000  Uiso   1.00
O860   O     0.47965   0.59418   0.77013   0.00000  Uiso   1.00
O861   O     0.40745   0.46625   0.73413   0.00000  Uiso   1.00
O862   O     0.60026   0.52605   0.71360   0.00000  Uiso   1.00
C863   C     0.38597   0.49255   0.76084   0.00000  Uiso   1.00
C864   C     0.61424   0.50718   0.73980   0.00000  Uiso   1.00
C865   C     0.49006   0.38941   0.75983   0.00000  Uiso   1.00
C866   C     0.50977   0.61124   0.74054   0.00000  Uiso   1.00
C867   C     0.51852   0.48155   0.62940   0.00000  Uiso   1.00
C868   C     0.48094   0.51726   0.87118   0.00000  Uiso   1.00
C869   C     0.53607   0.42325   0.51700   0.00000  Uiso   1.00
H870   H     0.55275   0.41736   0.57832   0.00000  Uiso   1.00
H871   H     0.51420   0.40128   0.93928   0.00000  Uiso   1.00
C872   C     0.52484   0.47356   0.58123   0.00000  Uiso   1.00
C873   C     0.45673   0.56188   0.94067   0.00000  Uiso   1.00
C874   C     0.45367   0.57330   0.98596   0.00000  Uiso   1.00
C875   C     0.46853   0.54850   0.51091   0.00000  Uiso   1.00
C876   C     0.48399   0.51036   0.99193   0.00000  Uiso   1.00
C877   C     0.48047   0.49606   0.94785   0.00000  Uiso   1.00
C878   C     0.50241   0.48584   0.51541   0.00000  Uiso   1.00
C879   C     0.51596   0.44705   0.99487   0.00000  Uiso   1.00
C880   C     0.50718   0.43187   0.95387   0.00000  Uiso   1.00
C881   C     0.48610   0.45420   0.93252   0.00000  Uiso   1.00
C882   C     0.50776   0.49855   0.55878   0.00000  Uiso   1.00
C883   C     0.53995   0.43676   0.56017   0.00000  Uiso   1.00
C884   C     0.47148   0.52419   0.92072   0.00000  Uiso   1.00
H885   H     0.49709   0.52667   0.57722   0.00000  Uiso   1.00
H886   H     0.44830   0.58293   0.92071   0.00000  Uiso   1.00
H887   H     0.46690   0.55984   0.54523   0.00000  Uiso   1.00
C888   C     0.66055   0.51000   0.73490   0.00000  Uiso   1.00
C889   C     0.34091   0.49117   0.76382   0.00000  Uiso   1.00
H890   H     0.65206   0.47454   0.79068   0.00000  Uiso   1.00
C891   C     0.51219   0.65554   0.73712   0.00000  Uiso   1.00
H892   H     0.53636   0.33583   0.70935   0.00000  Uiso   1.00
C893   C     0.48488   0.34602   0.76595   0.00000  Uiso   1.00
N894   N     0.45452   0.66515   0.80587   0.00000  Uiso   1.00
O895   O     0.41597   0.34275   0.81646   0.00000  Uiso   1.00
O896   O     0.46812   0.65108   0.83653   0.00000  Uiso   1.00
N897   N     0.55138   0.38464   0.99712   0.00000  Uiso   1.00
O898   O     0.52456   0.35357   0.98771   0.00000  Uiso   1.00
O899   O     0.58960   0.37776   0.99777   0.00000  Uiso   1.00
C900   C     0.43586   0.61265   0.50783   0.00000  Uiso   1.00
H901   H     0.42754   0.63031   0.98342   0.00000  Uiso   1.00
H902   H     0.40640   0.60507   0.53483   0.00000  Uiso   1.00
H903   H     0.45982   0.63263   0.52288   0.00000  Uiso   1.00
N904   N     0.46560   0.43213   0.89951   0.00000  Uiso   1.00
O905   O     0.48134   0.40005   0.87547   0.00000  Uiso   1.00
O906   O     0.42778   0.43985   0.89837   0.00000  Uiso   1.00
C907   C     0.35854   0.53360   0.69794   0.00000  Uiso   1.00
H908   H     0.34205   0.54726   0.67700   0.00000  Uiso   1.00
H909   H     0.37799   0.55929   0.71283   0.00000  Uiso   1.00
H910   H     0.38029   0.51242   0.67549   0.00000  Uiso   1.00
Zn911  Zn    0.86005   0.47327   0.78734   0.00000  Uiso   1.00
Zn912  Zn    0.80046   0.45791   0.71875   0.00000  Uiso   1.00
Zn913  Zn    0.87723   0.53109   0.70657   0.00000  Uiso   1.00
Zn914  Zn    0.79560   0.53773   0.78733   0.00000  Uiso   1.00
O915   O     0.83333   0.50000   0.75000   0.00000  Uiso   1.00
O916   O     0.73738   0.52211   0.78213   0.00000  Uiso   1.00
O917   O     0.92158   0.48559   0.77013   0.00000  Uiso   1.00
O918   O     0.80426   0.40277   0.73413   0.00000  Uiso   1.00
O919   O     0.87012   0.58953   0.71360   0.00000  Uiso   1.00
O920   O     0.82118   0.45970   0.65458   0.00000  Uiso   1.00
O921   O     0.79607   0.53724   0.84968   0.00000  Uiso   1.00
O922   O     0.87491   0.51092   0.64606   0.00000  Uiso   1.00
O923   O     0.84118   0.49213   0.84968   0.00000  Uiso   1.00
O924   O     0.84597   0.41352   0.78214   0.00000  Uiso   1.00
O925   O     0.81298   0.59418   0.77013   0.00000  Uiso   1.00
O926   O     0.74078   0.46625   0.73413   0.00000  Uiso   1.00
O927   O     0.93360   0.52605   0.71360   0.00000  Uiso   1.00
C928   C     0.71931   0.49255   0.76084   0.00000  Uiso   1.00
C929   C     0.94757   0.50718   0.73980   0.00000  Uiso   1.00
C930   C     0.82339   0.38941   0.75983   0.00000  Uiso   1.00
C931   C     0.84311   0.61124   0.74054   0.00000  Uiso   1.00
C932   C     0.85186   0.48155   0.62940   0.00000  Uiso   1.00
C933   C     0.81428   0.51726   0.87118   0.00000  Uiso   1.00
C934   C     0.86941   0.42325   0.51700   0.00000  Uiso   1.00
H935   H     0.88608   0.41736   0.57832   0.00000  Uiso   1.00
H936   H     0.84753   0.40128   0.93928   0.00000  Uiso   1.00
C937   C     0.85817   0.47356   0.58123   0.00000  Uiso   1.00
C938   C     0.79007   0.56188   0.94067   0.00000  Uiso   1.00
C939   C     0.78701   0.57330   0.98596   0.00000  Uiso   1.00
C940   C     0.80186   0.54850   0.51091   0.00000  Uiso   1.00
C941   C     0.81733   0.51036   0.99193   0.00000  Uiso   1.00
C942   C     0.81381   0.49606   0.94785   0.00000  Uiso   1.00
C943   C     0.83575   0.48584   0.51541   0.00000  Uiso   1.00
C944   C     0.84929   0.44705   0.99487   0.00000  Uiso   1.00
C945   C     0.84052   0.43187   0.95387   0.00000  Uiso   1.00
C946   C     0.81944   0.45420   0.93252   0.00000  Uiso   1.00
C947   C     0.84109   0.49855   0.55878   0.00000  Uiso   1.00
C948   C     0.87328   0.43676   0.56017   0.00000  Uiso   1.00
C949   C     0.80481   0.52419   0.92072   0.00000  Uiso   1.00
H950   H     0.83042   0.52667   0.57722   0.00000  Uiso   1.00
H951   H     0.78164   0.58293   0.92071   0.00000  Uiso   1.00
H952   H     0.80023   0.55984   0.54523   0.00000  Uiso   1.00
C953   C     0.99388   0.51000   0.73490   0.00000  Uiso   1.00
C954   C     0.67425   0.49117   0.76382   0.00000  Uiso   1.00
H955   H     0.98540   0.47454   0.79068   0.00000  Uiso   1.00
C956   C     0.84552   0.65554   0.73712   0.00000  Uiso   1.00
H957   H     0.86969   0.33583   0.70935   0.00000  Uiso   1.00
C958   C     0.81821   0.34602   0.76595   0.00000  Uiso   1.00
N959   N     0.78786   0.66515   0.80587   0.00000  Uiso   1.00
O960   O     0.74930   0.34275   0.81646   0.00000  Uiso   1.00
O961   O     0.80146   0.65108   0.83653   0.00000  Uiso   1.00
N962   N     0.88471   0.38464   0.99712   0.00000  Uiso   1.00
O963   O     0.85789   0.35357   0.98771   0.00000  Uiso   1.00
O964   O     0.92293   0.37776   0.99777   0.00000  Uiso   1.00
C965   C     0.76920   0.61265   0.50783   0.00000  Uiso   1.00
H966   H     0.76087   0.63031   0.98342   0.00000  Uiso   1.00
H967   H     0.73973   0.60507   0.53483   0.00000  Uiso   1.00
H968   H     0.79315   0.63263   0.52288   0.00000  Uiso   1.00
N969   N     0.79893   0.43213   0.89951   0.00000  Uiso   1.00
O970   O     0.81467   0.40005   0.87547   0.00000  Uiso   1.00
O971   O     0.76111   0.43985   0.89837   0.00000  Uiso   1.00
C972   C     0.69188   0.53360   0.69794   0.00000  Uiso   1.00
H973   H     0.67538   0.54726   0.67700   0.00000  Uiso   1.00
H974   H     0.71133   0.55929   0.71283   0.00000  Uiso   1.00
H975   H     0.71363   0.51242   0.67549   0.00000  Uiso   1.00
Zn976  Zn    0.19338   0.80661   0.78734   0.00000  Uiso   1.00
Zn977  Zn    0.13379   0.79124   0.71875   0.00000  Uiso   1.00
Zn978  Zn    0.21056   0.86442   0.70657   0.00000  Uiso   1.00
Zn979  Zn    0.12893   0.87106   0.78733   0.00000  Uiso   1.00
O980   O     0.16667   0.83333   0.75000   0.00000  Uiso   1.00
O981   O     0.07071   0.85544   0.78213   0.00000  Uiso   1.00
O982   O     0.25491   0.81892   0.77013   0.00000  Uiso   1.00
O983   O     0.13760   0.73610   0.73413   0.00000  Uiso   1.00
O984   O     0.20345   0.92286   0.71360   0.00000  Uiso   1.00
O985   O     0.15451   0.79304   0.65458   0.00000  Uiso   1.00
O986   O     0.12940   0.87058   0.84968   0.00000  Uiso   1.00
O987   O     0.20824   0.84425   0.64606   0.00000  Uiso   1.00
O988   O     0.17451   0.82546   0.84968   0.00000  Uiso   1.00
O989   O     0.17930   0.74686   0.78214   0.00000  Uiso   1.00
O990   O     0.14632   0.92751   0.77013   0.00000  Uiso   1.00
O991   O     0.07412   0.79958   0.73413   0.00000  Uiso   1.00
O992   O     0.26693   0.85939   0.71360   0.00000  Uiso   1.00
C993   C     0.05264   0.82588   0.76084   0.00000  Uiso   1.00
C994   C     0.28091   0.84052   0.73980   0.00000  Uiso   1.00
C995   C     0.15673   0.72274   0.75983   0.00000  Uiso   1.00
C996   C     0.17644   0.94458   0.74054   0.00000  Uiso   1.00
C997   C     0.18519   0.81488   0.62940   0.00000  Uiso   1.00
C998   C     0.14761   0.85059   0.87118   0.00000  Uiso   1.00
C999   C     0.20274   0.75658   0.51700   0.00000  Uiso   1.00
H1000  H     0.21941   0.75069   0.57832   0.00000  Uiso   1.00
H1001  H     0.18086   0.73462   0.93928   0.00000  Uiso   1.00
C1002  C     0.19150   0.80689   0.58123   0.00000  Uiso   1.00
C1003  C     0.12340   0.89521   0.94067   0.00000  Uiso   1.00
C1004  C     0.12034   0.90663   0.98596   0.00000  Uiso   1.00
C1005  C     0.13520   0.88183   0.51091   0.00000  Uiso   1.00
C1006  C     0.15066   0.84370   0.99193   0.00000  Uiso   1.00
C1007  C     0.14714   0.82939   0.94785   0.00000  Uiso   1.00
C1008  C     0.16908   0.81917   0.51541   0.00000  Uiso   1.00
C1009  C     0.18263   0.78039   0.99487   0.00000  Uiso   1.00
C1010  C     0.17385   0.76521   0.95387   0.00000  Uiso   1.00
C1011  C     0.15277   0.78753   0.93252   0.00000  Uiso   1.00
C1012  C     0.17442   0.83189   0.55878   0.00000  Uiso   1.00
C1013  C     0.20661   0.77010   0.56017   0.00000  Uiso   1.00
C1014  C     0.13814   0.85752   0.92072   0.00000  Uiso   1.00
H1015  H     0.16375   0.86000   0.57722   0.00000  Uiso   1.00
H1016  H     0.11497   0.91626   0.92071   0.00000  Uiso   1.00
H1017  H     0.13356   0.89317   0.54523   0.00000  Uiso   1.00
C1018  C     0.32721   0.84333   0.73490   0.00000  Uiso   1.00
C1019  C     0.00758   0.82450   0.76382   0.00000  Uiso   1.00
H1020  H     0.31873   0.80788   0.79068   0.00000  Uiso   1.00
C1021  C     0.17886   0.98887   0.73712   0.00000  Uiso   1.00
H1022  H     0.20302   0.66917   0.70935   0.00000  Uiso   1.00
C1023  C     0.15154   0.67936   0.76595   0.00000  Uiso   1.00
N1024  N     0.12119   0.99849   0.80587   0.00000  Uiso   1.00
O1025  O     0.08264   0.67609   0.81646   0.00000  Uiso   1.00
O1026  O     0.13479   0.98441   0.83653   0.00000  Uiso   1.00
N1027  N     0.21805   0.71797   0.99712   0.00000  Uiso   1.00
O1028  O     0.19123   0.68691   0.98771   0.00000  Uiso   1.00
O1029  O     0.25627   0.71109   0.99777   0.00000  Uiso   1.00
C1030  C     0.10253   0.94599   0.50783   0.00000  Uiso   1.00
H1031  H     0.09420   0.96364   0.98342   0.00000  Uiso   1.00
H1032  H     0.07306   0.93840   0.53483   0.00000  Uiso   1.00
H1033  H     0.12648   0.96597   0.52288   0.00000  Uiso   1.00
N1034  N     0.13226   0.76546   0.89951   0.00000  Uiso   1.00
O1035  O     0.14800   0.73339   0.87547   0.00000  Uiso   1.00
O1036  O     0.09444   0.77318   0.89837   0.00000  Uiso   1.00
C1037  C     0.02521   0.86694   0.69794   0.00000  Uiso   1.00
H1038  H     0.00872   0.88060   0.67700   0.00000  Uiso   1.00
H1039  H     0.04466   0.89262   0.71283   0.00000  Uiso   1.00
H1040  H     0.04696   0.84575   0.67549   0.00000  Uiso   1.00
Zn1041 Zn    0.52672   0.80661   0.78734   0.00000  Uiso   1.00
Zn1042 Zn    0.46713   0.79124   0.71875   0.00000  Uiso   1.00
Zn1043 Zn    0.54389   0.86442   0.70657   0.00000  Uiso   1.00
Zn1044 Zn    0.46226   0.87106   0.78733   0.00000  Uiso   1.00
O1045  O     0.50000   0.83333   0.75000   0.00000  Uiso   1.00
O1046  O     0.40405   0.85544   0.78213   0.00000  Uiso   1.00
O1047  O     0.58824   0.81892   0.77013   0.00000  Uiso   1.00
O1048  O     0.47093   0.73610   0.73413   0.00000  Uiso   1.00
O1049  O     0.53678   0.92286   0.71360   0.00000  Uiso   1.00
O1050  O     0.48784   0.79304   0.65458   0.00000  Uiso   1.00
O1051  O     0.46274   0.87058   0.84968   0.00000  Uiso   1.00
O1052  O     0.54157   0.84425   0.64606   0.00000  Uiso   1.00
O1053  O     0.50785   0.82546   0.84968   0.00000  Uiso   1.00
O1054  O     0.51264   0.74686   0.78214   0.00000  Uiso   1.00
O1055  O     0.47965   0.92751   0.77013   0.00000  Uiso   1.00
O1056  O     0.40745   0.79958   0.73413   0.00000  Uiso   1.00
O1057  O     0.60026   0.85939   0.71360   0.00000  Uiso   1.00
C1058  C     0.38597   0.82588   0.76084   0.00000  Uiso   1.00
C1059  C     0.61424   0.84052   0.73980   0.00000  Uiso   1.00
C1060  C     0.49006   0.72274   0.75983   0.00000  Uiso   1.00
C1061  C     0.50977   0.94458   0.74054   0.00000  Uiso   1.00
C1062  C     0.51852   0.81488   0.62940   0.00000  Uiso   1.00
C1063  C     0.48094   0.85059   0.87118   0.00000  Uiso   1.00
C1064  C     0.53607   0.75658   0.51700   0.00000  Uiso   1.00
H1065  H     0.55275   0.75069   0.57832   0.00000  Uiso   1.00
H1066  H     0.51420   0.73462   0.93928   0.00000  Uiso   1.00
C1067  C     0.52484   0.80689   0.58123   0.00000  Uiso   1.00
C1068  C     0.45673   0.89521   0.94067   0.00000  Uiso   1.00
C1069  C     0.45367   0.90663   0.98596   0.00000  Uiso   1.00
C1070  C     0.46853   0.88183   0.51091   0.00000  Uiso   1.00
C1071  C     0.48399   0.84370   0.99193   0.00000  Uiso   1.00
C1072  C     0.48047   0.82939   0.94785   0.00000  Uiso   1.00
C1073  C     0.50241   0.81917   0.51541   0.00000  Uiso   1.00
C1074  C     0.51596   0.78039   0.99487   0.00000  Uiso   1.00
C1075  C     0.50718   0.76521   0.95387   0.00000  Uiso   1.00
C1076  C     0.48610   0.78753   0.93252   0.00000  Uiso   1.00
C1077  C     0.50776   0.83189   0.55878   0.00000  Uiso   1.00
C1078  C     0.53995   0.77010   0.56017   0.00000  Uiso   1.00
C1079  C     0.47148   0.85752   0.92072   0.00000  Uiso   1.00
H1080  H     0.49709   0.86000   0.57722   0.00000  Uiso   1.00
H1081  H     0.44830   0.91626   0.92071   0.00000  Uiso   1.00
H1082  H     0.46690   0.89317   0.54523   0.00000  Uiso   1.00
C1083  C     0.66055   0.84333   0.73490   0.00000  Uiso   1.00
C1084  C     0.34091   0.82450   0.76382   0.00000  Uiso   1.00
H1085  H     0.65206   0.80788   0.79068   0.00000  Uiso   1.00
C1086  C     0.51219   0.98887   0.73712   0.00000  Uiso   1.00
H1087  H     0.53636   0.66917   0.70935   0.00000  Uiso   1.00
C1088  C     0.48488   0.67936   0.76595   0.00000  Uiso   1.00
N1089  N     0.45452   0.99849   0.80587   0.00000  Uiso   1.00
O1090  O     0.41597   0.67609   0.81646   0.00000  Uiso   1.00
O1091  O     0.46812   0.98441   0.83653   0.00000  Uiso   1.00
N1092  N     0.55138   0.71797   0.99712   0.00000  Uiso   1.00
O1093  O     0.52456   0.68691   0.98771   0.00000  Uiso   1.00
O1094  O     0.58960   0.71109   0.99777   0.00000  Uiso   1.00
C1095  C     0.43586   0.94599   0.50783   0.00000  Uiso   1.00
H1096  H     0.42754   0.96364   0.98342   0.00000  Uiso   1.00
H1097  H     0.40640   0.93840   0.53483   0.00000  Uiso   1.00
H1098  H     0.45982   0.96597   0.52288   0.00000  Uiso   1.00
N1099  N     0.46560   0.76546   0.89951   0.00000  Uiso   1.00
O1100  O     0.48134   0.73339   0.87547   0.00000  Uiso   1.00
O1101  O     0.42778   0.77318   0.89837   0.00000  Uiso   1.00
C1102  C     0.35854   0.86694   0.69794   0.00000  Uiso   1.00
H1103  H     0.34205   0.88060   0.67700   0.00000  Uiso   1.00
H1104  H     0.37799   0.89262   0.71283   0.00000  Uiso   1.00
H1105  H     0.38029   0.84575   0.67549   0.00000  Uiso   1.00
Zn1106 Zn    0.86005   0.80661   0.78734   0.00000  Uiso   1.00
Zn1107 Zn    0.80046   0.79124   0.71875   0.00000  Uiso   1.00
Zn1108 Zn    0.87723   0.86442   0.70657   0.00000  Uiso   1.00
Zn1109 Zn    0.79560   0.87106   0.78733   0.00000  Uiso   1.00
O1110  O     0.83333   0.83333   0.75000   0.00000  Uiso   1.00
O1111  O     0.73738   0.85544   0.78213   0.00000  Uiso   1.00
O1112  O     0.92158   0.81892   0.77013   0.00000  Uiso   1.00
O1113  O     0.80426   0.73610   0.73413   0.00000  Uiso   1.00
O1114  O     0.87012   0.92286   0.71360   0.00000  Uiso   1.00
O1115  O     0.82118   0.79304   0.65458   0.00000  Uiso   1.00
O1116  O     0.79607   0.87058   0.84968   0.00000  Uiso   1.00
O1117  O     0.87491   0.84425   0.64606   0.00000  Uiso   1.00
O1118  O     0.84118   0.82546   0.84968   0.00000  Uiso   1.00
O1119  O     0.84597   0.74686   0.78214   0.00000  Uiso   1.00
O1120  O     0.81298   0.92751   0.77013   0.00000  Uiso   1.00
O1121  O     0.74078   0.79958   0.73413   0.00000  Uiso   1.00
O1122  O     0.93360   0.85939   0.71360   0.00000  Uiso   1.00
C1123  C     0.71931   0.82588   0.76084   0.00000  Uiso   1.00
C1124  C     0.94757   0.84052   0.73980   0.00000  Uiso   1.00
C1125  C     0.82339   0.72274   0.75983   0.00000  Uiso   1.00
C1126  C     0.84311   0.94458   0.74054   0.00000  Uiso   1.00
C1127  C     0.85186   0.81488   0.62940   0.00000  Uiso   1.00
C1128  C     0.81428   0.85059   0.87118   0.00000  Uiso   1.00
C1129  C     0.86941   0.75658   0.51700   0.00000  Uiso   1.00
H1130  H     0.88608   0.75069   0.57832   0.00000  Uiso   1.00
H1131  H     0.84753   0.73462   0.93928   0.00000  Uiso   1.00
C1132  C     0.85817   0.80689   0.58123   0.00000  Uiso   1.00
C1133  C     0.79007   0.89521   0.94067   0.00000  Uiso   1.00
C1134  C     0.78701   0.90663   0.98596   0.00000  Uiso   1.00
C1135  C     0.80186   0.88183   0.51091   0.00000  Uiso   1.00
C1136  C     0.81733   0.84370   0.99193   0.00000  Uiso   1.00
C1137  C     0.81381   0.82939   0.94785   0.00000  Uiso   1.00
C1138  C     0.83575   0.81917   0.51541   0.00000  Uiso   1.00
C1139  C     0.84929   0.78039   0.99487   0.00000  Uiso   1.00
C1140  C     0.84052   0.76521   0.95387   0.00000  Uiso   1.00
C1141  C     0.81944   0.78753   0.93252   0.00000  Uiso   1.00
C1142  C     0.84109   0.83189   0.55878   0.00000  Uiso   1.00
C1143  C     0.87328   0.77010   0.56017   0.00000  Uiso   1.00
C1144  C     0.80481   0.85752   0.92072   0.00000  Uiso   1.00
H1145  H     0.83042   0.86000   0.57722   0.00000  Uiso   1.00
H1146  H     0.78164   0.91626   0.92071   0.00000  Uiso   1.00
H1147  H     0.80023   0.89317   0.54523   0.00000  Uiso   1.00
C1148  C     0.99388   0.84333   0.73490   0.00000  Uiso   1.00
C1149  C     0.67425   0.82450   0.76382   0.00000  Uiso   1.00
H1150  H     0.98540   0.80788   0.79068   0.00000  Uiso   1.00
C1151  C     0.84552   0.98887   0.73712   0.00000  Uiso   1.00
H1152  H     0.86969   0.66917   0.70935   0.00000  Uiso   1.00
C1153  C     0.81821   0.67936   0.76595   0.00000  Uiso   1.00
N1154  N     0.78786   0.99849   0.80587   0.00000  Uiso   1.00
O1155  O     0.74930   0.67609   0.81646   0.00000  Uiso   1.00
O1156  O     0.80146   0.98441   0.83653   0.00000  Uiso   1.00
N1157  N     0.88471   0.71797   0.99712   0.00000  Uiso   1.00
O1158  O     0.85789   0.68691   0.98771   0.00000  Uiso   1.00
O1159  O     0.92293   0.71109   0.99777   0.00000  Uiso   1.00
C1160  C     0.76920   0.94599   0.50783   0.00000  Uiso   1.00
H1161  H     0.76087   0.96364   0.98342   0.00000  Uiso   1.00
H1162  H     0.73973   0.93840   0.53483   0.00000  Uiso   1.00
H1163  H     0.79315   0.96597   0.52288   0.00000  Uiso   1.00
N1164  N     0.79893   0.76546   0.89951   0.00000  Uiso   1.00
O1165  O     0.81467   0.73339   0.87547   0.00000  Uiso   1.00
O1166  O     0.76111   0.77318   0.89837   0.00000  Uiso   1.00
C1167  C     0.69188   0.86694   0.69794   0.00000  Uiso   1.00
H1168  H     0.67538   0.88060   0.67700   0.00000  Uiso   1.00
H1169  H     0.71133   0.89262   0.71283   0.00000  Uiso   1.00
H1170  H     0.71363   0.84575   0.67549   0.00000  Uiso   1.00
loop_
_geom_bond_atom_site_label_1
_geom_bond_atom_site_label_2
_geom_bond_distance
_geom_bond_site_symmetry_2
_ccdc_geom_bond_type
Zn1    O14     1.940   .     S
Zn1    O5      1.962   .     S
Zn1    O13     1.923   .     S
Zn1    O7      1.924   .     S
Zn2    O16     1.924   .     S
Zn2    O5      1.950   .     S
Zn2    O10     1.928   .     S
Zn2    O8      1.945   .     S
Zn3    O9      1.938   .     S
Zn3    O17     1.936   .     S
Zn3    O12     1.934   .     S
Zn3    O5      1.938   .     S
Zn4    O15     1.943   .     S
Zn4    O11     1.939   .     S
Zn4    O6      1.934   .     S
Zn4    O5      1.929   .     S
O6     C18     1.270   .     A
O7     C19     1.286   .     A
O8     C20     1.279   .     A
O9     C21     1.275   .     A
O10    C22     1.274   .     A
O11    C23     1.282   .     A
O12    C22     1.280   .     A
O13    C23     1.287   .     A
O14    C20     1.273   .     A
O15    C21     1.263   .     A
O16    C18     1.271   .     A
O17    C19     1.281   .     A
C18    C44     1.439   .     S
C19    C43     1.464   .     S
C20    C48     1.432   .     S
C21    C46     1.454   .     S
C22    C27     1.451   .     S
C23    C39     1.481   .     S
C24    C38     1.394   .     A
C24    C619    1.419   1_554 S
C24    N637    1.436   1_554 S
H25    C38     1.084   .     S
H26    C35     1.079   .     S
C27    C37     1.389   .     A
C27    C38     1.391   .     A
C28    C39     1.403   .     A
C28    H41     1.084   .     S
C28    C29     1.392   .     A
C29    C615    1.395   .     S
C29    C640    1.502   .     S
C30    H42     1.076   .     S
C30    C614    1.395   1_554 S
C30    C616    1.418   1_554 S
C31    C32     1.422   .     A
C31    C615    1.418   .     S
C31    C618    1.427   .     S
C32    C36     1.418   .     A
C32    C39     1.423   .     A
C33    C37     1.410   .     A
C33    C616    1.427   1_554 S
C33    C619    1.426   1_554 S
C34    C35     1.398   .     A
C34    C618    1.426   .     S
C34    C609    1.419   .     S
C35    C36     1.392   .     A
C36    N59     1.439   .     S
C37    H40     1.076   .     S
C43    C109    1.342   .     S
C43    C127    1.517   .     S
C44    C173    1.342   1_455 S
C44    H175    1.086   1_455 S
H45    C109    1.086   .     S
C46    H242    1.088   .     S
C46    C243    1.346   .     S
H47    C436    1.088   1_545 S
C48    C436    1.346   1_545 S
C48    N439    1.439   1_545 S
N49    O51     1.302   .     A
N49    C243    1.439   .     S
N49    O245    1.301   .     S
O50    N439    1.301   1_545 S
N52    O53     1.301   .     A
N52    O54     1.301   .     A
N52    C609    1.436   .     S
C55    H57     1.110   .     S
C55    H58     1.109   .     S
C55    C614    1.502   1_554 S
C55    H641    1.111   1_554 S
H56    C640    1.111   .     S
N59    O60     1.300   .     A
N59    O61     1.302   .     A
C62    H64     1.111   .     S
C62    H65     1.111   .     S
C62    H63     1.109   .     S
C62    C173    1.517   1_455 S
Zn66   O79     1.940   .     S
Zn66   O70     1.962   .     S
Zn66   O78     1.923   .     S
Zn66   O72     1.924   .     S
Zn67   O81     1.924   .     S
Zn67   O70     1.950   .     S
Zn67   O75     1.928   .     S
Zn67   O73     1.945   .     S
Zn68   O74     1.938   .     S
Zn68   O82     1.936   .     S
Zn68   O77     1.934   .     S
Zn68   O70     1.938   .     S
Zn69   O80     1.943   .     S
Zn69   O76     1.939   .     S
Zn69   O71     1.934   .     S
Zn69   O70     1.929   .     S
O71    C83     1.270   .     A
O72    C84     1.286   .     A
O73    C85     1.279   .     A
O74    C86     1.275   .     A
O75    C87     1.274   .     A
O76    C88     1.282   .     A
O77    C87     1.280   .     A
O78    C88     1.287   .     A
O79    C85     1.273   .     A
O80    C86     1.263   .     A
O81    C83     1.271   .     A
O82    C84     1.281   .     A
C83    C109    1.439   .     S
C84    C108    1.464   .     S
C85    C113    1.432   .     S
C86    C111    1.454   .     S
C87    C92     1.451   .     S
C88    C104    1.481   .     S
C89    C103    1.394   .     A
C89    C684    1.419   1_554 S
C89    N702    1.436   1_554 S
H90    C103    1.084   .     S
H91    C100    1.079   .     S
C92    C102    1.389   .     A
C92    C103    1.391   .     A
C93    C104    1.403   .     A
C93    H106    1.084   .     S
C93    C94     1.392   .     A
C94    C680    1.395   .     S
C94    C705    1.502   .     S
C95    H107    1.076   .     S
C95    C679    1.395   1_554 S
C95    C681    1.418   1_554 S
C96    C97     1.422   .     A
C96    C680    1.418   .     S
C96    C683    1.427   .     S
C97    C101    1.418   .     A
C97    C104    1.423   .     A
C98    C102    1.410   .     A
C98    C681    1.427   1_554 S
C98    C684    1.426   1_554 S
C99    C100    1.398   .     A
C99    C683    1.426   .     S
C99    C674    1.419   .     S
C100   C101    1.392   .     A
C101   N124    1.439   .     S
C102   H105    1.076   .     S
C108   C174    1.342   .     S
C108   C192    1.517   .     S
H110   C174    1.086   .     S
C111   H307    1.088   .     S
C111   C308    1.346   .     S
H112   C501    1.088   1_545 S
C113   C501    1.346   1_545 S
C113   N504    1.439   1_545 S
N114   O116    1.302   .     A
N114   C308    1.439   .     S
N114   O310    1.301   .     S
O115   N504    1.301   1_545 S
N117   O118    1.301   .     A
N117   O119    1.301   .     A
N117   C674    1.436   .     S
C120   H122    1.110   .     S
C120   H123    1.109   .     S
C120   C679    1.502   1_554 S
C120   H706    1.111   1_554 S
H121   C705    1.111   .     S
N124   O125    1.300   .     A
N124   O126    1.302   .     A
C127   H129    1.111   .     S
C127   H130    1.111   .     S
C127   H128    1.109   .     S
Zn131  O144    1.940   .     S
Zn131  O135    1.962   .     S
Zn131  O143    1.923   .     S
Zn131  O137    1.924   .     S
Zn132  O146    1.924   .     S
Zn132  O135    1.950   .     S
Zn132  O140    1.928   .     S
Zn132  O138    1.945   .     S
Zn133  O139    1.938   .     S
Zn133  O147    1.936   .     S
Zn133  O142    1.934   .     S
Zn133  O135    1.938   .     S
Zn134  O145    1.943   .     S
Zn134  O141    1.939   .     S
Zn134  O136    1.934   .     S
Zn134  O135    1.929   .     S
O136   C148    1.270   .     A
O137   C149    1.286   .     A
O138   C150    1.279   .     A
O139   C151    1.275   .     A
O140   C152    1.274   .     A
O141   C153    1.282   .     A
O142   C152    1.280   .     A
O143   C153    1.287   .     A
O144   C150    1.273   .     A
O145   C151    1.263   .     A
O146   C148    1.271   .     A
O147   C149    1.281   .     A
C148   C174    1.439   .     S
C149   C173    1.464   .     S
C150   C178    1.432   .     S
C151   C176    1.454   .     S
C152   C157    1.451   .     S
C153   C169    1.481   .     S
C154   C168    1.394   .     A
C154   C749    1.419   1_554 S
C154   N767    1.436   1_554 S
H155   C168    1.084   .     S
H156   C165    1.079   .     S
C157   C167    1.389   .     A
C157   C168    1.391   .     A
C158   C169    1.403   .     A
C158   H171    1.084   .     S
C158   C159    1.392   .     A
C159   C745    1.395   .     S
C159   C770    1.502   .     S
C160   H172    1.076   .     S
C160   C744    1.395   1_554 S
C160   C746    1.418   1_554 S
C161   C162    1.422   .     A
C161   C745    1.418   .     S
C161   C748    1.427   .     S
C162   C166    1.418   .     A
C162   C169    1.423   .     A
C163   C167    1.410   .     A
C163   C746    1.427   1_554 S
C163   C749    1.426   1_554 S
C164   C165    1.398   .     A
C164   C748    1.426   .     S
C164   C739    1.419   .     S
C165   C166    1.392   .     A
C166   N189    1.439   .     S
C167   H170    1.076   .     S
C173   C44     1.342   1_655 S
C173   C62     1.517   1_655 S
H175   C44     1.086   1_655 S
C176   H372    1.088   .     S
C176   C373    1.346   .     S
H177   C566    1.088   1_545 S
C178   C566    1.346   1_545 S
C178   N569    1.439   1_545 S
N179   O181    1.302   .     A
N179   C373    1.439   .     S
N179   O375    1.301   .     S
O180   N569    1.301   1_545 S
N182   O183    1.301   .     A
N182   O184    1.301   .     A
N182   C739    1.436   .     S
C185   H187    1.110   .     S
C185   H188    1.109   .     S
C185   C744    1.502   1_554 S
C185   H771    1.111   1_554 S
H186   C770    1.111   .     S
N189   O190    1.300   .     A
N189   O191    1.302   .     A
C192   H194    1.111   .     S
C192   H195    1.111   .     S
C192   H193    1.109   .     S
Zn196  O209    1.940   .     S
Zn196  O200    1.962   .     S
Zn196  O208    1.923   .     S
Zn196  O202    1.924   .     S
Zn197  O211    1.924   .     S
Zn197  O200    1.950   .     S
Zn197  O205    1.928   .     S
Zn197  O203    1.945   .     S
Zn198  O204    1.938   .     S
Zn198  O212    1.936   .     S
Zn198  O207    1.934   .     S
Zn198  O200    1.938   .     S
Zn199  O210    1.943   .     S
Zn199  O206    1.939   .     S
Zn199  O201    1.934   .     S
Zn199  O200    1.929   .     S
O201   C213    1.270   .     A
O202   C214    1.286   .     A
O203   C215    1.279   .     A
O204   C216    1.275   .     A
O205   C217    1.274   .     A
O206   C218    1.282   .     A
O207   C217    1.280   .     A
O208   C218    1.287   .     A
O209   C215    1.273   .     A
O210   C216    1.263   .     A
O211   C213    1.271   .     A
O212   C214    1.281   .     A
C213   C239    1.439   .     S
C214   C238    1.464   .     S
C215   C243    1.432   .     S
C216   C241    1.454   .     S
C217   C222    1.451   .     S
C218   C234    1.481   .     S
C219   C233    1.394   .     A
C219   C814    1.419   1_554 S
C219   N832    1.436   1_554 S
H220   C233    1.084   .     S
H221   C230    1.079   .     S
C222   C232    1.389   .     A
C222   C233    1.391   .     A
C223   C234    1.403   .     A
C223   H236    1.084   .     S
C223   C224    1.392   .     A
C224   C810    1.395   .     S
C224   C835    1.502   .     S
C225   H237    1.076   .     S
C225   C809    1.395   1_554 S
C225   C811    1.418   1_554 S
C226   C227    1.422   .     A
C226   C810    1.418   .     S
C226   C813    1.427   .     S
C227   C231    1.418   .     A
C227   C234    1.423   .     A
C228   C232    1.410   .     A
C228   C811    1.427   1_554 S
C228   C814    1.426   1_554 S
C229   C230    1.398   .     A
C229   C813    1.426   .     S
C229   C804    1.419   .     S
C230   C231    1.392   .     A
C231   N254    1.439   .     S
C232   H235    1.076   .     S
C238   C304    1.342   .     S
C238   C322    1.517   .     S
C239   C368    1.342   1_455 S
C239   H370    1.086   1_455 S
H240   C304    1.086   .     S
C241   H437    1.088   .     S
C241   C438    1.346   .     S
N244   O246    1.302   .     A
N244   C438    1.439   .     S
N244   O440    1.301   .     S
N247   O248    1.301   .     A
N247   O249    1.301   .     A
N247   C804    1.436   .     S
C250   H252    1.110   .     S
C250   H253    1.109   .     S
C250   C809    1.502   1_554 S
C250   H836    1.111   1_554 S
H251   C835    1.111   .     S
N254   O255    1.300   .     A
N254   O256    1.302   .     A
C257   H259    1.111   .     S
C257   H260    1.111   .     S
C257   H258    1.109   .     S
C257   C368    1.517   1_455 S
Zn261  O274    1.940   .     S
Zn261  O265    1.962   .     S
Zn261  O273    1.923   .     S
Zn261  O267    1.924   .     S
Zn262  O276    1.924   .     S
Zn262  O265    1.950   .     S
Zn262  O270    1.928   .     S
Zn262  O268    1.945   .     S
Zn263  O269    1.938   .     S
Zn263  O277    1.936   .     S
Zn263  O272    1.934   .     S
Zn263  O265    1.938   .     S
Zn264  O275    1.943   .     S
Zn264  O271    1.939   .     S
Zn264  O266    1.934   .     S
Zn264  O265    1.929   .     S
O266   C278    1.270   .     A
O267   C279    1.286   .     A
O268   C280    1.279   .     A
O269   C281    1.275   .     A
O270   C282    1.274   .     A
O271   C283    1.282   .     A
O272   C282    1.280   .     A
O273   C283    1.287   .     A
O274   C280    1.273   .     A
O275   C281    1.263   .     A
O276   C278    1.271   .     A
O277   C279    1.281   .     A
C278   C304    1.439   .     S
C279   C303    1.464   .     S
C280   C308    1.432   .     S
C281   C306    1.454   .     S
C282   C287    1.451   .     S
C283   C299    1.481   .     S
C284   C298    1.394   .     A
C284   C879    1.419   1_554 S
C284   N897    1.436   1_554 S
H285   C298    1.084   .     S
H286   C295    1.079   .     S
C287   C297    1.389   .     A
C287   C298    1.391   .     A
C288   C299    1.403   .     A
C288   H301    1.084   .     S
C288   C289    1.392   .     A
C289   C875    1.395   .     S
C289   C900    1.502   .     S
C290   H302    1.076   .     S
C290   C874    1.395   1_554 S
C290   C876    1.418   1_554 S
C291   C292    1.422   .     A
C291   C875    1.418   .     S
C291   C878    1.427   .     S
C292   C296    1.418   .     A
C292   C299    1.423   .     A
C293   C297    1.410   .     A
C293   C876    1.427   1_554 S
C293   C879    1.426   1_554 S
C294   C295    1.398   .     A
C294   C878    1.426   .     S
C294   C869    1.419   .     S
C295   C296    1.392   .     A
C296   N319    1.439   .     S
C297   H300    1.076   .     S
C303   C369    1.342   .     S
C303   C387    1.517   .     S
H305   C369    1.086   .     S
C306   H502    1.088   .     S
C306   C503    1.346   .     S
N309   O311    1.302   .     A
N309   C503    1.439   .     S
N309   O505    1.301   .     S
N312   O313    1.301   .     A
N312   O314    1.301   .     A
N312   C869    1.436   .     S
C315   H317    1.110   .     S
C315   H318    1.109   .     S
C315   C874    1.502   1_554 S
C315   H901    1.111   1_554 S
H316   C900    1.111   .     S
N319   O320    1.300   .     A
N319   O321    1.302   .     A
C322   H324    1.111   .     S
C322   H325    1.111   .     S
C322   H323    1.109   .     S
Zn326  O339    1.940   .     S
Zn326  O330    1.962   .     S
Zn326  O338    1.923   .     S
Zn326  O332    1.924   .     S
Zn327  O341    1.924   .     S
Zn327  O330    1.950   .     S
Zn327  O335    1.928   .     S
Zn327  O333    1.945   .     S
Zn328  O334    1.938   .     S
Zn328  O342    1.936   .     S
Zn328  O337    1.934   .     S
Zn328  O330    1.938   .     S
Zn329  O340    1.943   .     S
Zn329  O336    1.939   .     S
Zn329  O331    1.934   .     S
Zn329  O330    1.929   .     S
O331   C343    1.270   .     A
O332   C344    1.286   .     A
O333   C345    1.279   .     A
O334   C346    1.275   .     A
O335   C347    1.274   .     A
O336   C348    1.282   .     A
O337   C347    1.280   .     A
O338   C348    1.287   .     A
O339   C345    1.273   .     A
O340   C346    1.263   .     A
O341   C343    1.271   .     A
O342   C344    1.281   .     A
C343   C369    1.439   .     S
C344   C368    1.464   .     S
C345   C373    1.432   .     S
C346   C371    1.454   .     S
C347   C352    1.451   .     S
C348   C364    1.481   .     S
C349   C363    1.394   .     A
C349   C944    1.419   1_554 S
C349   N962    1.436   1_554 S
H350   C363    1.084   .     S
H351   C360    1.079   .     S
C352   C362    1.389   .     A
C352   C363    1.391   .     A
C353   C364    1.403   .     A
C353   H366    1.084   .     S
C353   C354    1.392   .     A
C354   C940    1.395   .     S
C354   C965    1.502   .     S
C355   H367    1.076   .     S
C355   C939    1.395   1_554 S
C355   C941    1.418   1_554 S
C356   C357    1.422   .     A
C356   C940    1.418   .     S
C356   C943    1.427   .     S
C357   C361    1.418   .     A
C357   C364    1.423   .     A
C358   C362    1.410   .     A
C358   C941    1.427   1_554 S
C358   C944    1.426   1_554 S
C359   C360    1.398   .     A
C359   C943    1.426   .     S
C359   C934    1.419   .     S
C360   C361    1.392   .     A
C361   N384    1.439   .     S
C362   H365    1.076   .     S
C368   C239    1.342   1_655 S
C368   C257    1.517   1_655 S
H370   C239    1.086   1_655 S
C371   H567    1.088   .     S
C371   C568    1.346   .     S
N374   O376    1.302   .     A
N374   C568    1.439   .     S
N374   O570    1.301   .     S
N377   O378    1.301   .     A
N377   O379    1.301   .     A
N377   C934    1.436   .     S
C380   H382    1.110   .     S
C380   H383    1.109   .     S
C380   C939    1.502   1_554 S
C380   H966    1.111   1_554 S
H381   C965    1.111   .     S
N384   O385    1.300   .     A
N384   O386    1.302   .     A
C387   H389    1.111   .     S
C387   H390    1.111   .     S
C387   H388    1.109   .     S
Zn391  O404    1.940   .     S
Zn391  O395    1.962   .     S
Zn391  O403    1.923   .     S
Zn391  O397    1.924   .     S
Zn392  O406    1.924   .     S
Zn392  O395    1.950   .     S
Zn392  O400    1.928   .     S
Zn392  O398    1.945   .     S
Zn393  O399    1.938   .     S
Zn393  O407    1.936   .     S
Zn393  O402    1.934   .     S
Zn393  O395    1.938   .     S
Zn394  O405    1.943   .     S
Zn394  O401    1.939   .     S
Zn394  O396    1.934   .     S
Zn394  O395    1.929   .     S
O396   C408    1.270   .     A
O397   C409    1.286   .     A
O398   C410    1.279   .     A
O399   C411    1.275   .     A
O400   C412    1.274   .     A
O401   C413    1.282   .     A
O402   C412    1.280   .     A
O403   C413    1.287   .     A
O404   C410    1.273   .     A
O405   C411    1.263   .     A
O406   C408    1.271   .     A
O407   C409    1.281   .     A
C408   C434    1.439   .     S
C409   C433    1.464   .     S
C410   C438    1.432   .     S
C411   C436    1.454   .     S
C412   C417    1.451   .     S
C413   C429    1.481   .     S
C414   C428    1.394   .     A
C414   C1009   1.419   1_554 S
C414   N1027   1.436   1_554 S
H415   C428    1.084   .     S
H416   C425    1.079   .     S
C417   C427    1.389   .     A
C417   C428    1.391   .     A
C418   C429    1.403   .     A
C418   H431    1.084   .     S
C418   C419    1.392   .     A
C419   C1005   1.395   .     S
C419   C1030   1.502   .     S
C420   H432    1.076   .     S
C420   C1004   1.395   1_554 S
C420   C1006   1.418   1_554 S
C421   C422    1.422   .     A
C421   C1005   1.418   .     S
C421   C1008   1.427   .     S
C422   C426    1.418   .     A
C422   C429    1.423   .     A
C423   C427    1.410   .     A
C423   C1006   1.427   1_554 S
C423   C1009   1.426   1_554 S
C424   C425    1.398   .     A
C424   C1008   1.426   .     S
C424   C999    1.419   .     S
C425   C426    1.392   .     A
C426   N449    1.439   .     S
C427   H430    1.076   .     S
C433   C499    1.342   .     S
C433   C517    1.517   .     S
C434   C563    1.342   1_455 S
C434   H565    1.086   1_455 S
H435   C499    1.086   .     S
C436   H47     1.088   1_565 S
C436   C48     1.346   1_565 S
N439   O441    1.302   .     A
N439   C48     1.439   1_565 S
N439   O50     1.301   1_565 S
N442   O443    1.301   .     A
N442   O444    1.301   .     A
N442   C999    1.436   .     S
C445   H447    1.110   .     S
C445   H448    1.109   .     S
C445   C1004   1.502   1_554 S
C445   H1031   1.111   1_554 S
H446   C1030   1.111   .     S
N449   O450    1.300   .     A
N449   O451    1.302   .     A
C452   H454    1.111   .     S
C452   H455    1.111   .     S
C452   H453    1.109   .     S
C452   C563    1.517   1_455 S
Zn456  O469    1.940   .     S
Zn456  O460    1.962   .     S
Zn456  O468    1.923   .     S
Zn456  O462    1.924   .     S
Zn457  O471    1.924   .     S
Zn457  O460    1.950   .     S
Zn457  O465    1.928   .     S
Zn457  O463    1.945   .     S
Zn458  O464    1.938   .     S
Zn458  O472    1.936   .     S
Zn458  O467    1.934   .     S
Zn458  O460    1.938   .     S
Zn459  O470    1.943   .     S
Zn459  O466    1.939   .     S
Zn459  O461    1.934   .     S
Zn459  O460    1.929   .     S
O461   C473    1.270   .     A
O462   C474    1.286   .     A
O463   C475    1.279   .     A
O464   C476    1.275   .     A
O465   C477    1.274   .     A
O466   C478    1.282   .     A
O467   C477    1.280   .     A
O468   C478    1.287   .     A
O469   C475    1.273   .     A
O470   C476    1.263   .     A
O471   C473    1.271   .     A
O472   C474    1.281   .     A
C473   C499    1.439   .     S
C474   C498    1.464   .     S
C475   C503    1.432   .     S
C476   C501    1.454   .     S
C477   C482    1.451   .     S
C478   C494    1.481   .     S
C479   C493    1.394   .     A
C479   C1074   1.419   1_554 S
C479   N1092   1.436   1_554 S
H480   C493    1.084   .     S
H481   C490    1.079   .     S
C482   C492    1.389   .     A
C482   C493    1.391   .     A
C483   C494    1.403   .     A
C483   H496    1.084   .     S
C483   C484    1.392   .     A
C484   C1070   1.395   .     S
C484   C1095   1.502   .     S
C485   H497    1.076   .     S
C485   C1069   1.395   1_554 S
C485   C1071   1.418   1_554 S
C486   C487    1.422   .     A
C486   C1070   1.418   .     S
C486   C1073   1.427   .     S
C487   C491    1.418   .     A
C487   C494    1.423   .     A
C488   C492    1.410   .     A
C488   C1071   1.427   1_554 S
C488   C1074   1.426   1_554 S
C489   C490    1.398   .     A
C489   C1073   1.426   .     S
C489   C1064   1.419   .     S
C490   C491    1.392   .     A
C491   N514    1.439   .     S
C492   H495    1.076   .     S
C498   C564    1.342   .     S
C498   C582    1.517   .     S
H500   C564    1.086   .     S
C501   H112    1.088   1_565 S
C501   C113    1.346   1_565 S
N504   O506    1.302   .     A
N504   C113    1.439   1_565 S
N504   O115    1.301   1_565 S
N507   O508    1.301   .     A
N507   O509    1.301   .     A
N507   C1064   1.436   .     S
C510   H512    1.110   .     S
C510   H513    1.109   .     S
C510   C1069   1.502   1_554 S
C510   H1096   1.111   1_554 S
H511   C1095   1.111   .     S
N514   O515    1.300   .     A
N514   O516    1.302   .     A
C517   H519    1.111   .     S
C517   H520    1.111   .     S
C517   H518    1.109   .     S
Zn521  O534    1.940   .     S
Zn521  O525    1.962   .     S
Zn521  O533    1.923   .     S
Zn521  O527    1.924   .     S
Zn522  O536    1.924   .     S
Zn522  O525    1.950   .     S
Zn522  O530    1.928   .     S
Zn522  O528    1.945   .     S
Zn523  O529    1.938   .     S
Zn523  O537    1.936   .     S
Zn523  O532    1.934   .     S
Zn523  O525    1.938   .     S
Zn524  O535    1.943   .     S
Zn524  O531    1.939   .     S
Zn524  O526    1.934   .     S
Zn524  O525    1.929   .     S
O526   C538    1.270   .     A
O527   C539    1.286   .     A
O528   C540    1.279   .     A
O529   C541    1.275   .     A
O530   C542    1.274   .     A
O531   C543    1.282   .     A
O532   C542    1.280   .     A
O533   C543    1.287   .     A
O534   C540    1.273   .     A
O535   C541    1.263   .     A
O536   C538    1.271   .     A
O537   C539    1.281   .     A
C538   C564    1.439   .     S
C539   C563    1.464   .     S
C540   C568    1.432   .     S
C541   C566    1.454   .     S
C542   C547    1.451   .     S
C543   C559    1.481   .     S
C544   C558    1.394   .     A
C544   C1139   1.419   1_554 S
C544   N1157   1.436   1_554 S
H545   C558    1.084   .     S
H546   C555    1.079   .     S
C547   C557    1.389   .     A
C547   C558    1.391   .     A
C548   C559    1.403   .     A
C548   H561    1.084   .     S
C548   C549    1.392   .     A
C549   C1135   1.395   .     S
C549   C1160   1.502   .     S
C550   H562    1.076   .     S
C550   C1134   1.395   1_554 S
C550   C1136   1.418   1_554 S
C551   C552    1.422   .     A
C551   C1135   1.418   .     S
C551   C1138   1.427   .     S
C552   C556    1.418   .     A
C552   C559    1.423   .     A
C553   C557    1.410   .     A
C553   C1136   1.427   1_554 S
C553   C1139   1.426   1_554 S
C554   C555    1.398   .     A
C554   C1138   1.426   .     S
C554   C1129   1.419   .     S
C555   C556    1.392   .     A
C556   N579    1.439   .     S
C557   H560    1.076   .     S
C563   C434    1.342   1_655 S
C563   C452    1.517   1_655 S
H565   C434    1.086   1_655 S
C566   H177    1.088   1_565 S
C566   C178    1.346   1_565 S
N569   O571    1.302   .     A
N569   C178    1.439   1_565 S
N569   O180    1.301   1_565 S
N572   O573    1.301   .     A
N572   O574    1.301   .     A
N572   C1129   1.436   .     S
C575   H577    1.110   .     S
C575   H578    1.109   .     S
C575   C1134   1.502   1_554 S
C575   H1161   1.111   1_554 S
H576   C1160   1.111   .     S
N579   O580    1.300   .     A
N579   O581    1.302   .     A
C582   H584    1.111   .     S
C582   H585    1.111   .     S
C582   H583    1.109   .     S
Zn586  O599    1.940   .     S
Zn586  O590    1.962   .     S
Zn586  O598    1.923   .     S
Zn586  O592    1.924   .     S
Zn587  O601    1.924   .     S
Zn587  O590    1.950   .     S
Zn587  O595    1.928   .     S
Zn587  O593    1.945   .     S
Zn588  O594    1.938   .     S
Zn588  O602    1.936   .     S
Zn588  O597    1.934   .     S
Zn588  O590    1.938   .     S
Zn589  O600    1.943   .     S
Zn589  O596    1.939   .     S
Zn589  O591    1.934   .     S
Zn589  O590    1.929   .     S
O591   C603    1.270   .     A
O592   C604    1.286   .     A
O593   C605    1.279   .     A
O594   C606    1.275   .     A
O595   C607    1.274   .     A
O596   C608    1.282   .     A
O597   C607    1.280   .     A
O598   C608    1.287   .     A
O599   C605    1.273   .     A
O600   C606    1.263   .     A
O601   C603    1.271   .     A
O602   C604    1.281   .     A
C603   C629    1.439   .     S
C604   C628    1.464   .     S
C605   C633    1.432   .     S
C606   C631    1.454   .     S
C607   C612    1.451   .     S
C608   C624    1.481   .     S
C609   C623    1.394   .     A
H610   C623    1.084   .     S
H611   C620    1.079   .     S
C612   C622    1.389   .     A
C612   C623    1.391   .     A
C613   C624    1.403   .     A
C613   H626    1.084   .     S
C613   C614    1.392   .     A
C614   C30     1.395   1_556 S
C614   C55     1.502   1_556 S
C615   H627    1.076   .     S
C616   C617    1.422   .     A
C616   C30     1.418   1_556 S
C616   C33     1.427   1_556 S
C617   C621    1.418   .     A
C617   C624    1.423   .     A
C618   C622    1.410   .     A
C619   C620    1.398   .     A
C619   C33     1.426   1_556 S
C619   C24     1.419   1_556 S
C620   C621    1.392   .     A
C621   N644    1.439   .     S
C622   H625    1.076   .     S
C628   C694    1.342   .     S
C628   C712    1.517   .     S
C629   C758    1.342   1_455 S
C629   H760    1.086   1_455 S
H630   C694    1.086   .     S
C631   H827    1.088   .     S
C631   C828    1.346   .     S
H632   C1021   1.088   1_545 S
C633   C1021   1.346   1_545 S
C633   N1024   1.439   1_545 S
N634   O636    1.302   .     A
N634   C828    1.439   .     S
N634   O830    1.301   .     S
O635   N1024   1.301   1_545 S
N637   O638    1.301   .     A
N637   O639    1.301   .     A
N637   C24     1.436   1_556 S
C640   H642    1.110   .     S
C640   H643    1.109   .     S
H641   C55     1.111   1_556 S
N644   O645    1.300   .     A
N644   O646    1.302   .     A
C647   H649    1.111   .     S
C647   H650    1.111   .     S
C647   H648    1.109   .     S
C647   C758    1.517   1_455 S
Zn651  O664    1.940   .     S
Zn651  O655    1.962   .     S
Zn651  O663    1.923   .     S
Zn651  O657    1.924   .     S
Zn652  O666    1.924   .     S
Zn652  O655    1.950   .     S
Zn652  O660    1.928   .     S
Zn652  O658    1.945   .     S
Zn653  O659    1.938   .     S
Zn653  O667    1.936   .     S
Zn653  O662    1.934   .     S
Zn653  O655    1.938   .     S
Zn654  O665    1.943   .     S
Zn654  O661    1.939   .     S
Zn654  O656    1.934   .     S
Zn654  O655    1.929   .     S
O656   C668    1.270   .     A
O657   C669    1.286   .     A
O658   C670    1.279   .     A
O659   C671    1.275   .     A
O660   C672    1.274   .     A
O661   C673    1.282   .     A
O662   C672    1.280   .     A
O663   C673    1.287   .     A
O664   C670    1.273   .     A
O665   C671    1.263   .     A
O666   C668    1.271   .     A
O667   C669    1.281   .     A
C668   C694    1.439   .     S
C669   C693    1.464   .     S
C670   C698    1.432   .     S
C671   C696    1.454   .     S
C672   C677    1.451   .     S
C673   C689    1.481   .     S
C674   C688    1.394   .     A
H675   C688    1.084   .     S
H676   C685    1.079   .     S
C677   C687    1.389   .     A
C677   C688    1.391   .     A
C678   C689    1.403   .     A
C678   H691    1.084   .     S
C678   C679    1.392   .     A
C679   C95     1.395   1_556 S
C679   C120    1.502   1_556 S
C680   H692    1.076   .     S
C681   C682    1.422   .     A
C681   C95     1.418   1_556 S
C681   C98     1.427   1_556 S
C682   C686    1.418   .     A
C682   C689    1.423   .     A
C683   C687    1.410   .     A
C684   C685    1.398   .     A
C684   C98     1.426   1_556 S
C684   C89     1.419   1_556 S
C685   C686    1.392   .     A
C686   N709    1.439   .     S
C687   H690    1.076   .     S
C693   C759    1.342   .     S
C693   C777    1.517   .     S
H695   C759    1.086   .     S
C696   H892    1.088   .     S
C696   C893    1.346   .     S
H697   C1086   1.088   1_545 S
C698   C1086   1.346   1_545 S
C698   N1089   1.439   1_545 S
N699   O701    1.302   .     A
N699   C893    1.439   .     S
N699   O895    1.301   .     S
O700   N1089   1.301   1_545 S
N702   O703    1.301   .     A
N702   O704    1.301   .     A
N702   C89     1.436   1_556 S
C705   H707    1.110   .     S
C705   H708    1.109   .     S
H706   C120    1.111   1_556 S
N709   O710    1.300   .     A
N709   O711    1.302   .     A
C712   H714    1.111   .     S
C712   H715    1.111   .     S
C712   H713    1.109   .     S
Zn716  O729    1.940   .     S
Zn716  O720    1.962   .     S
Zn716  O728    1.923   .     S
Zn716  O722    1.924   .     S
Zn717  O731    1.924   .     S
Zn717  O720    1.950   .     S
Zn717  O725    1.928   .     S
Zn717  O723    1.945   .     S
Zn718  O724    1.938   .     S
Zn718  O732    1.936   .     S
Zn718  O727    1.934   .     S
Zn718  O720    1.938   .     S
Zn719  O730    1.943   .     S
Zn719  O726    1.939   .     S
Zn719  O721    1.934   .     S
Zn719  O720    1.929   .     S
O721   C733    1.270   .     A
O722   C734    1.286   .     A
O723   C735    1.279   .     A
O724   C736    1.275   .     A
O725   C737    1.274   .     A
O726   C738    1.282   .     A
O727   C737    1.280   .     A
O728   C738    1.287   .     A
O729   C735    1.273   .     A
O730   C736    1.263   .     A
O731   C733    1.271   .     A
O732   C734    1.281   .     A
C733   C759    1.439   .     S
C734   C758    1.464   .     S
C735   C763    1.432   .     S
C736   C761    1.454   .     S
C737   C742    1.451   .     S
C738   C754    1.481   .     S
C739   C753    1.394   .     A
H740   C753    1.084   .     S
H741   C750    1.079   .     S
C742   C752    1.389   .     A
C742   C753    1.391   .     A
C743   C754    1.403   .     A
C743   H756    1.084   .     S
C743   C744    1.392   .     A
C744   C160    1.395   1_556 S
C744   C185    1.502   1_556 S
C745   H757    1.076   .     S
C746   C747    1.422   .     A
C746   C160    1.418   1_556 S
C746   C163    1.427   1_556 S
C747   C751    1.418   .     A
C747   C754    1.423   .     A
C748   C752    1.410   .     A
C749   C750    1.398   .     A
C749   C163    1.426   1_556 S
C749   C154    1.419   1_556 S
C750   C751    1.392   .     A
C751   N774    1.439   .     S
C752   H755    1.076   .     S
C758   C629    1.342   1_655 S
C758   C647    1.517   1_655 S
H760   C629    1.086   1_655 S
C761   H957    1.088   .     S
C761   C958    1.346   .     S
H762   C1151   1.088   1_545 S
C763   C1151   1.346   1_545 S
C763   N1154   1.439   1_545 S
N764   O766    1.302   .     A
N764   C958    1.439   .     S
N764   O960    1.301   .     S
O765   N1154   1.301   1_545 S
N767   O768    1.301   .     A
N767   O769    1.301   .     A
N767   C154    1.436   1_556 S
C770   H772    1.110   .     S
C770   H773    1.109   .     S
H771   C185    1.111   1_556 S
N774   O775    1.300   .     A
N774   O776    1.302   .     A
C777   H779    1.111   .     S
C777   H780    1.111   .     S
C777   H778    1.109   .     S
Zn781  O794    1.940   .     S
Zn781  O785    1.962   .     S
Zn781  O793    1.923   .     S
Zn781  O787    1.924   .     S
Zn782  O796    1.924   .     S
Zn782  O785    1.950   .     S
Zn782  O790    1.928   .     S
Zn782  O788    1.945   .     S
Zn783  O789    1.938   .     S
Zn783  O797    1.936   .     S
Zn783  O792    1.934   .     S
Zn783  O785    1.938   .     S
Zn784  O795    1.943   .     S
Zn784  O791    1.939   .     S
Zn784  O786    1.934   .     S
Zn784  O785    1.929   .     S
O786   C798    1.270   .     A
O787   C799    1.286   .     A
O788   C800    1.279   .     A
O789   C801    1.275   .     A
O790   C802    1.274   .     A
O791   C803    1.282   .     A
O792   C802    1.280   .     A
O793   C803    1.287   .     A
O794   C800    1.273   .     A
O795   C801    1.263   .     A
O796   C798    1.271   .     A
O797   C799    1.281   .     A
C798   C824    1.439   .     S
C799   C823    1.464   .     S
C800   C828    1.432   .     S
C801   C826    1.454   .     S
C802   C807    1.451   .     S
C803   C819    1.481   .     S
C804   C818    1.394   .     A
H805   C818    1.084   .     S
H806   C815    1.079   .     S
C807   C817    1.389   .     A
C807   C818    1.391   .     A
C808   C819    1.403   .     A
C808   H821    1.084   .     S
C808   C809    1.392   .     A
C809   C225    1.395   1_556 S
C809   C250    1.502   1_556 S
C810   H822    1.076   .     S
C811   C812    1.422   .     A
C811   C225    1.418   1_556 S
C811   C228    1.427   1_556 S
C812   C816    1.418   .     A
C812   C819    1.423   .     A
C813   C817    1.410   .     A
C814   C815    1.398   .     A
C814   C228    1.426   1_556 S
C814   C219    1.419   1_556 S
C815   C816    1.392   .     A
C816   N839    1.439   .     S
C817   H820    1.076   .     S
C823   C889    1.342   .     S
C823   C907    1.517   .     S
C824   C953    1.342   1_455 S
C824   H955    1.086   1_455 S
H825   C889    1.086   .     S
C826   H1022   1.088   .     S
C826   C1023   1.346   .     S
N829   O831    1.302   .     A
N829   C1023   1.439   .     S
N829   O1025   1.301   .     S
N832   O833    1.301   .     A
N832   O834    1.301   .     A
N832   C219    1.436   1_556 S
C835   H837    1.110   .     S
C835   H838    1.109   .     S
H836   C250    1.111   1_556 S
N839   O840    1.300   .     A
N839   O841    1.302   .     A
C842   H844    1.111   .     S
C842   H845    1.111   .     S
C842   H843    1.109   .     S
C842   C953    1.517   1_455 S
Zn846  O859    1.940   .     S
Zn846  O850    1.962   .     S
Zn846  O858    1.923   .     S
Zn846  O852    1.924   .     S
Zn847  O861    1.924   .     S
Zn847  O850    1.950   .     S
Zn847  O855    1.928   .     S
Zn847  O853    1.945   .     S
Zn848  O854    1.938   .     S
Zn848  O862    1.936   .     S
Zn848  O857    1.934   .     S
Zn848  O850    1.938   .     S
Zn849  O860    1.943   .     S
Zn849  O856    1.939   .     S
Zn849  O851    1.934   .     S
Zn849  O850    1.929   .     S
O851   C863    1.270   .     A
O852   C864    1.286   .     A
O853   C865    1.279   .     A
O854   C866    1.275   .     A
O855   C867    1.274   .     A
O856   C868    1.282   .     A
O857   C867    1.280   .     A
O858   C868    1.287   .     A
O859   C865    1.273   .     A
O860   C866    1.263   .     A
O861   C863    1.271   .     A
O862   C864    1.281   .     A
C863   C889    1.439   .     S
C864   C888    1.464   .     S
C865   C893    1.432   .     S
C866   C891    1.454   .     S
C867   C872    1.451   .     S
C868   C884    1.481   .     S
C869   C883    1.394   .     A
H870   C883    1.084   .     S
H871   C880    1.079   .     S
C872   C882    1.389   .     A
C872   C883    1.391   .     A
C873   C884    1.403   .     A
C873   H886    1.084   .     S
C873   C874    1.392   .     A
C874   C290    1.395   1_556 S
C874   C315    1.502   1_556 S
C875   H887    1.076   .     S
C876   C877    1.422   .     A
C876   C290    1.418   1_556 S
C876   C293    1.427   1_556 S
C877   C881    1.418   .     A
C877   C884    1.423   .     A
C878   C882    1.410   .     A
C879   C880    1.398   .     A
C879   C293    1.426   1_556 S
C879   C284    1.419   1_556 S
C880   C881    1.392   .     A
C881   N904    1.439   .     S
C882   H885    1.076   .     S
C888   C954    1.342   .     S
C888   C972    1.517   .     S
H890   C954    1.086   .     S
C891   H1087   1.088   .     S
C891   C1088   1.346   .     S
N894   O896    1.302   .     A
N894   C1088   1.439   .     S
N894   O1090   1.301   .     S
N897   O898    1.301   .     A
N897   O899    1.301   .     A
N897   C284    1.436   1_556 S
C900   H902    1.110   .     S
C900   H903    1.109   .     S
H901   C315    1.111   1_556 S
N904   O905    1.300   .     A
N904   O906    1.302   .     A
C907   H909    1.111   .     S
C907   H910    1.111   .     S
C907   H908    1.109   .     S
Zn911  O924    1.940   .     S
Zn911  O915    1.962   .     S
Zn911  O923    1.923   .     S
Zn911  O917    1.924   .     S
Zn912  O926    1.924   .     S
Zn912  O915    1.950   .     S
Zn912  O920    1.928   .     S
Zn912  O918    1.945   .     S
Zn913  O919    1.938   .     S
Zn913  O927    1.936   .     S
Zn913  O922    1.934   .     S
Zn913  O915    1.938   .     S
Zn914  O925    1.943   .     S
Zn914  O921    1.939   .     S
Zn914  O916    1.934   .     S
Zn914  O915    1.929   .     S
O916   C928    1.270   .     A
O917   C929    1.286   .     A
O918   C930    1.279   .     A
O919   C931    1.275   .     A
O920   C932    1.274   .     A
O921   C933    1.282   .     A
O922   C932    1.280   .     A
O923   C933    1.287   .     A
O924   C930    1.273   .     A
O925   C931    1.263   .     A
O926   C928    1.271   .     A
O927   C929    1.281   .     A
C928   C954    1.439   .     S
C929   C953    1.464   .     S
C930   C958    1.432   .     S
C931   C956    1.454   .     S
C932   C937    1.451   .     S
C933   C949    1.481   .     S
C934   C948    1.394   .     A
H935   C948    1.084   .     S
H936   C945    1.079   .     S
C937   C947    1.389   .     A
C937   C948    1.391   .     A
C938   C949    1.403   .     A
C938   H951    1.084   .     S
C938   C939    1.392   .     A
C939   C355    1.395   1_556 S
C939   C380    1.502   1_556 S
C940   H952    1.076   .     S
C941   C942    1.422   .     A
C941   C355    1.418   1_556 S
C941   C358    1.427   1_556 S
C942   C946    1.418   .     A
C942   C949    1.423   .     A
C943   C947    1.410   .     A
C944   C945    1.398   .     A
C944   C358    1.426   1_556 S
C944   C349    1.419   1_556 S
C945   C946    1.392   .     A
C946   N969    1.439   .     S
C947   H950    1.076   .     S
C953   C824    1.342   1_655 S
C953   C842    1.517   1_655 S
H955   C824    1.086   1_655 S
C956   H1152   1.088   .     S
C956   C1153   1.346   .     S
N959   O961    1.302   .     A
N959   C1153   1.439   .     S
N959   O1155   1.301   .     S
N962   O963    1.301   .     A
N962   O964    1.301   .     A
N962   C349    1.436   1_556 S
C965   H967    1.110   .     S
C965   H968    1.109   .     S
H966   C380    1.111   1_556 S
N969   O970    1.300   .     A
N969   O971    1.302   .     A
C972   H974    1.111   .     S
C972   H975    1.111   .     S
C972   H973    1.109   .     S
Zn976  O989    1.940   .     S
Zn976  O980    1.962   .     S
Zn976  O988    1.923   .     S
Zn976  O982    1.924   .     S
Zn977  O991    1.924   .     S
Zn977  O980    1.950   .     S
Zn977  O985    1.928   .     S
Zn977  O983    1.945   .     S
Zn978  O984    1.938   .     S
Zn978  O992    1.936   .     S
Zn978  O987    1.934   .     S
Zn978  O980    1.938   .     S
Zn979  O990    1.943   .     S
Zn979  O986    1.939   .     S
Zn979  O981    1.934   .     S
Zn979  O980    1.929   .     S
O981   C993    1.270   .     A
O982   C994    1.286   .     A
O983   C995    1.279   .     A
O984   C996    1.275   .     A
O985   C997    1.274   .     A
O986   C998    1.282   .     A
O987   C997    1.280   .     A
O988   C998    1.287   .     A
O989   C995    1.273   .     A
O990   C996    1.263   .     A
O991   C993    1.271   .     A
O992   C994    1.281   .     A
C993   C1019   1.439   .     S
C994   C1018   1.464   .     S
C995   C1023   1.432   .     S
C996   C1021   1.454   .     S
C997   C1002   1.451   .     S
C998   C1014   1.481   .     S
C999   C1013   1.394   .     A
H1000  C1013   1.084   .     S
H1001  C1010   1.079   .     S
C1002  C1012   1.389   .     A
C1002  C1013   1.391   .     A
C1003  C1014   1.403   .     A
C1003  H1016   1.084   .     S
C1003  C1004   1.392   .     A
C1004  C420    1.395   1_556 S
C1004  C445    1.502   1_556 S
C1005  H1017   1.076   .     S
C1006  C1007   1.422   .     A
C1006  C420    1.418   1_556 S
C1006  C423    1.427   1_556 S
C1007  C1011   1.418   .     A
C1007  C1014   1.423   .     A
C1008  C1012   1.410   .     A
C1009  C1010   1.398   .     A
C1009  C423    1.426   1_556 S
C1009  C414    1.419   1_556 S
C1010  C1011   1.392   .     A
C1011  N1034   1.439   .     S
C1012  H1015   1.076   .     S
C1018  C1084   1.342   .     S
C1018  C1102   1.517   .     S
C1019  C1148   1.342   1_455 S
C1019  H1150   1.086   1_455 S
H1020  C1084   1.086   .     S
C1021  H632    1.088   1_565 S
C1021  C633    1.346   1_565 S
N1024  O1026   1.302   .     A
N1024  C633    1.439   1_565 S
N1024  O635    1.301   1_565 S
N1027  O1028   1.301   .     A
N1027  O1029   1.301   .     A
N1027  C414    1.436   1_556 S
C1030  H1032   1.110   .     S
C1030  H1033   1.109   .     S
H1031  C445    1.111   1_556 S
N1034  O1035   1.300   .     A
N1034  O1036   1.302   .     A
C1037  H1039   1.111   .     S
C1037  H1040   1.111   .     S
C1037  H1038   1.109   .     S
C1037  C1148   1.517   1_455 S
Zn1041 O1054   1.940   .     S
Zn1041 O1045   1.962   .     S
Zn1041 O1053   1.923   .     S
Zn1041 O1047   1.924   .     S
Zn1042 O1056   1.924   .     S
Zn1042 O1045   1.950   .     S
Zn1042 O1050   1.928   .     S
Zn1042 O1048   1.945   .     S
Zn1043 O1049   1.938   .     S
Zn1043 O1057   1.936   .     S
Zn1043 O1052   1.934   .     S
Zn1043 O1045   1.938   .     S
Zn1044 O1055   1.943   .     S
Zn1044 O1051   1.939   .     S
Zn1044 O1046   1.934   .     S
Zn1044 O1045   1.929   .     S
O1046  C1058   1.270   .     A
O1047  C1059   1.286   .     A
O1048  C1060   1.279   .     A
O1049  C1061   1.275   .     A
O1050  C1062   1.274   .     A
O1051  C1063   1.282   .     A
O1052  C1062   1.280   .     A
O1053  C1063   1.287   .     A
O1054  C1060   1.273   .     A
O1055  C1061   1.263   .     A
O1056  C1058   1.271   .     A
O1057  C1059   1.281   .     A
C1058  C1084   1.439   .     S
C1059  C1083   1.464   .     S
C1060  C1088   1.432   .     S
C1061  C1086   1.454   .     S
C1062  C1067   1.451   .     S
C1063  C1079   1.481   .     S
C1064  C1078   1.394   .     A
H1065  C1078   1.084   .     S
H1066  C1075   1.079   .     S
C1067  C1077   1.389   .     A
C1067  C1078   1.391   .     A
C1068  C1079   1.403   .     A
C1068  H1081   1.084   .     S
C1068  C1069   1.392   .     A
C1069  C485    1.395   1_556 S
C1069  C510    1.502   1_556 S
C1070  H1082   1.076   .     S
C1071  C1072   1.422   .     A
C1071  C485    1.418   1_556 S
C1071  C488    1.427   1_556 S
C1072  C1076   1.418   .     A
C1072  C1079   1.423   .     A
C1073  C1077   1.410   .     A
C1074  C1075   1.398   .     A
C1074  C488    1.426   1_556 S
C1074  C479    1.419   1_556 S
C1075  C1076   1.392   .     A
C1076  N1099   1.439   .     S
C1077  H1080   1.076   .     S
C1083  C1149   1.342   .     S
C1083  C1167   1.517   .     S
H1085  C1149   1.086   .     S
C1086  H697    1.088   1_565 S
C1086  C698    1.346   1_565 S
N1089  O1091   1.302   .     A
N1089  C698    1.439   1_565 S
N1089  O700    1.301   1_565 S
N1092  O1093   1.301   .     A
N1092  O1094   1.301   .     A
N1092  C479    1.436   1_556 S
C1095  H1097   1.110   .     S
C1095  H1098   1.109   .     S
H1096  C510    1.111   1_556 S
N1099  O1100   1.300   .     A
N1099  O1101   1.302   .     A
C1102  H1104   1.111   .     S
C1102  H1105   1.111   .     S
C1102  H1103   1.109   .     S
Zn1106 O1119   1.940   .     S
Zn1106 O1110   1.962   .     S
Zn1106 O1118   1.923   .     S
Zn1106 O1112   1.924   .     S
Zn1107 O1121   1.924   .     S
Zn1107 O1110   1.950   .     S
Zn1107 O1115   1.928   .     S
Zn1107 O1113   1.945   .     S
Zn1108 O1114   1.938   .     S
Zn1108 O1122   1.936   .     S
Zn1108 O1117   1.934   .     S
Zn1108 O1110   1.938   .     S
Zn1109 O1120   1.943   .     S
Zn1109 O1116   1.939   .     S
Zn1109 O1111   1.934   .     S
Zn1109 O1110   1.929   .     S
O1111  C1123   1.270   .     A
O1112  C1124   1.286   .     A
O1113  C1125   1.279   .     A
O1114  C1126   1.275   .     A
O1115  C1127   1.274   .     A
O1116  C1128   1.282   .     A
O1117  C1127   1.280   .     A
O1118  C1128   1.287   .     A
O1119  C1125   1.273   .     A
O1120  C1126   1.263   .     A
O1121  C1123   1.271   .     A
O1122  C1124   1.281   .     A
C1123  C1149   1.439   .     S
C1124  C1148   1.464   .     S
C1125  C1153   1.432   .     S
C1126  C1151   1.454   .     S
C1127  C1132   1.451   .     S
C1128  C1144   1.481   .     S
C1129  C1143   1.394   .     A
H1130  C1143   1.084   .     S
H1131  C1140   1.079   .     S
C1132  C1142   1.389   .     A
C1132  C1143   1.391   .     A
C1133  C1144   1.403   .     A
C1133  H1146   1.084   .     S
C1133  C1134   1.392   .     A
C1134  C550    1.395   1_556 S
C1134  C575    1.502   1_556 S
C1135  H1147   1.076   .     S
C1136  C1137   1.422   .     A
C1136  C550    1.418   1_556 S
C1136  C553    1.427   1_556 S
C1137  C1141   1.418   .     A
C1137  C1144   1.423   .     A
C1138  C1142   1.410   .     A
C1139  C1140   1.398   .     A
C1139  C553    1.426   1_556 S
C1139  C544    1.419   1_556 S
C1140  C1141   1.392   .     A
C1141  N1164   1.439   .     S
C1142  H1145   1.076   .     S
C1148  C1019   1.342   1_655 S
C1148  C1037   1.517   1_655 S
H1150  C1019   1.086   1_655 S
C1151  H762    1.088   1_565 S
C1151  C763    1.346   1_565 S
N1154  O1156   1.302   .     A
N1154  C763    1.439   1_565 S
N1154  O765    1.301   1_565 S
N1157  O1158   1.301   .     A
N1157  O1159   1.301   .     A
N1157  C544    1.436   1_556 S
C1160  H1162   1.110   .     S
C1160  H1163   1.109   .     S
H1161  C575    1.111   1_556 S
N1164  O1165   1.300   .     A
N1164  O1166   1.302   .     A
C1167  H1169   1.111   .     S
C1167  H1170   1.111   .     S
C1167  H1168   1.109   .     S
