data_str_m1_o1_o2_pcu_sym.104
_audit_creation_date              2020-01-03
_audit_creation_method            'Materials Studio'
_symmetry_space_group_name_H-M    'P1'
_symmetry_Int_Tables_number       1
_symmetry_cell_setting            triclinic
loop_
_symmetry_equiv_pos_as_xyz
  x,y,z
_cell_length_a                    36.7681
_cell_length_b                    36.7978
_cell_length_c                    34.4022
_cell_angle_alpha                 90.0165
_cell_angle_beta                  89.9850
_cell_angle_gamma                 90.0087
loop_
_atom_site_label
_atom_site_type_symbol
_atom_site_fract_x
_atom_site_fract_y
_atom_site_fract_z
_atom_site_U_iso_or_equiv
_atom_site_adp_type
_atom_site_occupancy
C1     C     0.22688   0.02392   0.04236   0.00000  Uiso   1.00
C2     C     0.03243   0.25997   0.45808   0.00000  Uiso   1.00
C3     C     0.34730   0.40105   0.75076   0.00000  Uiso   1.00
C4     C     0.40175   0.15198   0.25006   0.00000  Uiso   1.00
C5     C     0.09911   0.34712   0.75096   0.00000  Uiso   1.00
C6     C     0.34794   0.40169   0.24991   0.00000  Uiso   1.00
C7     C     0.15279   0.09902   0.75085   0.00000  Uiso   1.00
C8     C     0.09798   0.15172   0.74995   0.00000  Uiso   1.00
C9     C     0.40268   0.34891   0.25069   0.00000  Uiso   1.00
C10    C     0.15174   0.40199   0.75004   0.00000  Uiso   1.00
C11    C     0.34902   0.09720   0.25080   0.00000  Uiso   1.00
C12    C     0.40223   0.34847   0.74974   0.00000  Uiso   1.00
C13    C     0.22577   0.47539   0.54253   0.00000  Uiso   1.00
C14    C     0.09720   0.15097   0.25087   0.00000  Uiso   1.00
C15    C     0.34831   0.09795   0.75000   0.00000  Uiso   1.00
C16    C     0.15100   0.40277   0.25083   0.00000  Uiso   1.00
C17    C     0.25003   0.49995   0.10286   0.00000  Uiso   1.00
C18    C     0.24999   0.49994   0.89763   0.00000  Uiso   1.00
C19    C     0.00033   0.24991   0.10278   0.00000  Uiso   1.00
C20    C     0.00015   0.24987   0.89766   0.00000  Uiso   1.00
C21    C     0.00001   0.25077   0.60279   0.00000  Uiso   1.00
C22    C     0.49999   0.25101   0.39757   0.00000  Uiso   1.00
C23    C     0.24927   0.49999   0.60277   0.00000  Uiso   1.00
C24    C     0.24092   0.03224   0.45823   0.00000  Uiso   1.00
C25    C     0.24959   0.49997   0.39759   0.00000  Uiso   1.00
C26    C     0.21893   0.07749   0.00818   0.00000  Uiso   1.00
C27    C     0.23196   0.10408   0.03968   0.00000  Uiso   1.00
C28    C     0.24536   0.13956   0.02177   0.00000  Uiso   1.00
C29    C     0.32351   0.04358   0.98869   0.00000  Uiso   1.00
C30    C     0.33922   0.06595   0.95498   0.00000  Uiso   1.00
C31    C     0.35413   0.10230   0.96915   0.00000  Uiso   1.00
C32    C     0.42300   0.21743   0.01289   0.00000  Uiso   1.00
C33    C     0.39654   0.18863   0.99797   0.00000  Uiso   1.00
C34    C     0.36112   0.20588   0.98401   0.00000  Uiso   1.00
C35    C     0.02460   0.22934   0.54179   0.00000  Uiso   1.00
C36    C     0.44916   0.31689   0.98700   0.00000  Uiso   1.00
C37    C     0.44151   0.35468   0.00351   0.00000  Uiso   1.00
C38    C     0.40158   0.35899   0.01479   0.00000  Uiso   1.00
C39    C     0.28096   0.42195   0.00854   0.00000  Uiso   1.00
C40    C     0.26762   0.39569   0.04022   0.00000  Uiso   1.00
C41    C     0.25405   0.36015   0.02255   0.00000  Uiso   1.00
C42    C     0.17647   0.45575   0.98837   0.00000  Uiso   1.00
C43    C     0.16101   0.43351   0.95442   0.00000  Uiso   1.00
C44    C     0.14603   0.39710   0.96827   0.00000  Uiso   1.00
C45    C     0.07839   0.28157   0.01162   0.00000  Uiso   1.00
C46    C     0.46736   0.24528   0.45840   0.00000  Uiso   1.00
C47    C     0.10578   0.31050   0.99915   0.00000  Uiso   1.00
C48    C     0.14065   0.29315   0.98376   0.00000  Uiso   1.00
C49    C     0.05078   0.18140   0.98990   0.00000  Uiso   1.00
C50    C     0.07720   0.17249   0.95664   0.00000  Uiso   1.00
C51    C     0.11541   0.16501   0.97199   0.00000  Uiso   1.00
C52    C     0.46417   0.32818   0.50935   0.00000  Uiso   1.00
C53    C     0.47737   0.35466   0.54089   0.00000  Uiso   1.00
C54    C     0.48839   0.39109   0.52329   0.00000  Uiso   1.00
C55    C     0.07049   0.30190   0.48663   0.00000  Uiso   1.00
C56    C     0.08613   0.32344   0.45227   0.00000  Uiso   1.00
C57    C     0.27112   0.02436   0.54192   0.00000  Uiso   1.00
C58    C     0.09801   0.36148   0.46465   0.00000  Uiso   1.00
C59    C     0.17324   0.46293   0.50788   0.00000  Uiso   1.00
C60    C     0.14568   0.47538   0.53872   0.00000  Uiso   1.00
C61    C     0.10951   0.48585   0.52011   0.00000  Uiso   1.00
C62    C     0.19872   0.06985   0.48699   0.00000  Uiso   1.00
C63    C     0.17711   0.08579   0.45283   0.00000  Uiso   1.00
C64    C     0.13899   0.09734   0.46535   0.00000  Uiso   1.00
C65    C     0.03552   0.17690   0.50644   0.00000  Uiso   1.00
C66    C     0.02345   0.14919   0.53726   0.00000  Uiso   1.00
C67    C     0.01199   0.11341   0.51847   0.00000  Uiso   1.00
C68    C     0.25675   0.46748   0.45836   0.00000  Uiso   1.00
C69    C     0.42887   0.20478   0.48858   0.00000  Uiso   1.00
C70    C     0.41256   0.18240   0.45522   0.00000  Uiso   1.00
C71    C     0.39988   0.14518   0.46926   0.00000  Uiso   1.00
C72    C     0.32576   0.03170   0.51146   0.00000  Uiso   1.00
C73    C     0.35328   0.06032   0.49849   0.00000  Uiso   1.00
C74    C     0.38802   0.04254   0.48334   0.00000  Uiso   1.00
C75    C     0.29836   0.43230   0.49150   0.00000  Uiso   1.00
C76    C     0.32614   0.42511   0.45903   0.00000  Uiso   1.00
C77    C     0.36405   0.41849   0.47566   0.00000  Uiso   1.00
C78    C     0.10145   0.45131   0.19270   0.00000  Uiso   1.00
C79    C     0.22624   0.02258   0.08275   0.00000  Uiso   1.00
C80    C     0.10822   0.48123   0.16307   0.00000  Uiso   1.00
C81    C     0.39668   0.05095   0.81160   0.00000  Uiso   1.00
C82    C     0.38890   0.02198   0.84204   0.00000  Uiso   1.00
C83    C     0.04803   0.10119   0.19363   0.00000  Uiso   1.00
C84    C     0.01809   0.10754   0.16387   0.00000  Uiso   1.00
C85    C     0.45127   0.39863   0.80740   0.00000  Uiso   1.00
C86    C     0.48128   0.39206   0.83704   0.00000  Uiso   1.00
C87    C     0.39785   0.04920   0.19136   0.00000  Uiso   1.00
C88    C     0.39070   0.01968   0.16135   0.00000  Uiso   1.00
C89    C     0.10272   0.44979   0.81038   0.00000  Uiso   1.00
C90    C     0.28261   0.00437   0.91796   0.00000  Uiso   1.00
C91    C     0.11008   0.47900   0.84070   0.00000  Uiso   1.00
C92    C     0.45128   0.39817   0.19217   0.00000  Uiso   1.00
C93    C     0.48095   0.39136   0.16221   0.00000  Uiso   1.00
C94    C     0.04987   0.10264   0.80994   0.00000  Uiso   1.00
C95    C     0.02048   0.11004   0.84009   0.00000  Uiso   1.00
C96    C     0.15291   0.09688   0.84282   0.00000  Uiso   1.00
C97    C     0.15578   0.07267   0.87849   0.00000  Uiso   1.00
C98    C     0.35152   0.40526   0.15603   0.00000  Uiso   1.00
C99    C     0.36218   0.42368   0.11811   0.00000  Uiso   1.00
C100   C     0.09694   0.34623   0.84271   0.00000  Uiso   1.00
C101   C     0.47860   0.22523   0.08257   0.00000  Uiso   1.00
C102   C     0.07296   0.34335   0.87860   0.00000  Uiso   1.00
C103   C     0.40467   0.15010   0.15657   0.00000  Uiso   1.00
C104   C     0.42216   0.13989   0.11802   0.00000  Uiso   1.00
C105   C     0.34834   0.40411   0.84270   0.00000  Uiso   1.00
C106   C     0.34529   0.42890   0.87789   0.00000  Uiso   1.00
C107   C     0.14799   0.09399   0.15639   0.00000  Uiso   1.00
C108   C     0.13809   0.07471   0.11874   0.00000  Uiso   1.00
C109   C     0.40212   0.15507   0.84246   0.00000  Uiso   1.00
C110   C     0.42575   0.15856   0.87854   0.00000  Uiso   1.00
C111   C     0.09484   0.35067   0.15657   0.00000  Uiso   1.00
C112   C     0.28289   0.00527   0.95835   0.00000  Uiso   1.00
C113   C     0.49331   0.28193   0.91826   0.00000  Uiso   1.00
C114   C     0.07685   0.36084   0.11829   0.00000  Uiso   1.00
C115   C     0.35124   0.20140   0.69307   0.00000  Uiso   1.00
C116   C     0.35789   0.23147   0.66360   0.00000  Uiso   1.00
C117   C     0.14640   0.30098   0.31192   0.00000  Uiso   1.00
C118   C     0.13840   0.27211   0.34242   0.00000  Uiso   1.00
C119   C     0.29719   0.34991   0.69604   0.00000  Uiso   1.00
C120   C     0.26656   0.35543   0.66694   0.00000  Uiso   1.00
C121   C     0.19937   0.14654   0.31149   0.00000  Uiso   1.00
C122   C     0.22829   0.13870   0.34201   0.00000  Uiso   1.00
C123   C     0.14980   0.29742   0.69547   0.00000  Uiso   1.00
C124   C     0.27384   0.47725   0.08282   0.00000  Uiso   1.00
C125   C     0.14400   0.26696   0.66623   0.00000  Uiso   1.00
C126   C     0.35418   0.19828   0.31313   0.00000  Uiso   1.00
C127   C     0.36246   0.22687   0.34387   0.00000  Uiso   1.00
C128   C     0.20262   0.14942   0.69505   0.00000  Uiso   1.00
C129   C     0.23287   0.14355   0.66553   0.00000  Uiso   1.00
C130   C     0.30078   0.35360   0.31173   0.00000  Uiso   1.00
C131   C     0.27179   0.36167   0.34212   0.00000  Uiso   1.00
C132   C     0.40434   0.34763   0.34260   0.00000  Uiso   1.00
C133   C     0.40763   0.32372   0.37847   0.00000  Uiso   1.00
C134   C     0.10347   0.15689   0.65623   0.00000  Uiso   1.00
C135   C     0.21738   0.49540   0.91794   0.00000  Uiso   1.00
C136   C     0.11416   0.17657   0.61907   0.00000  Uiso   1.00
C137   C     0.34871   0.09396   0.34244   0.00000  Uiso   1.00
C138   C     0.32545   0.09027   0.37879   0.00000  Uiso   1.00
C139   C     0.15689   0.39627   0.65617   0.00000  Uiso   1.00
C140   C     0.17643   0.38515   0.61904   0.00000  Uiso   1.00
C141   C     0.09609   0.15280   0.34287   0.00000  Uiso   1.00
C142   C     0.09327   0.17678   0.37876   0.00000  Uiso   1.00
C143   C     0.39630   0.34299   0.65615   0.00000  Uiso   1.00
C144   C     0.38514   0.32359   0.61896   0.00000  Uiso   1.00
C145   C     0.15234   0.40436   0.34283   0.00000  Uiso   1.00
C146   C     0.02248   0.27432   0.08272   0.00000  Uiso   1.00
C147   C     0.17613   0.40731   0.37886   0.00000  Uiso   1.00
C148   C     0.34471   0.10069   0.65662   0.00000  Uiso   1.00
C149   C     0.32652   0.11067   0.61839   0.00000  Uiso   1.00
C150   C     0.00718   0.21756   0.91775   0.00000  Uiso   1.00
C151   C     0.47498   0.27246   0.58315   0.00000  Uiso   1.00
C152   C     0.03231   0.25768   0.41773   0.00000  Uiso   1.00
C153   C     0.22762   0.47498   0.58294   0.00000  Uiso   1.00
C154   C     0.24283   0.03219   0.41787   0.00000  Uiso   1.00
C155   C     0.02513   0.22998   0.58221   0.00000  Uiso   1.00
C156   C     0.47797   0.22540   0.04213   0.00000  Uiso   1.00
C157   C     0.46758   0.24558   0.41799   0.00000  Uiso   1.00
C158   C     0.27049   0.02488   0.58232   0.00000  Uiso   1.00
C159   C     0.25591   0.46769   0.41795   0.00000  Uiso   1.00
C160   C     0.24998   0.49975   0.02167   0.00000  Uiso   1.00
C161   C     0.25000   0.49971   0.97894   0.00000  Uiso   1.00
C162   C     0.00113   0.24938   0.02165   0.00000  Uiso   1.00
C163   C     0.00109   0.24945   0.97897   0.00000  Uiso   1.00
C164   C     0.00014   0.25251   0.52156   0.00000  Uiso   1.00
C165   C     0.49991   0.25290   0.47883   0.00000  Uiso   1.00
C166   C     0.24809   0.00001   0.52158   0.00000  Uiso   1.00
C167   C     0.49280   0.28182   0.95871   0.00000  Uiso   1.00
C168   C     0.24846   0.49981   0.47888   0.00000  Uiso   1.00
C169   C     0.24997  -0.00000   0.35518   0.00000  Uiso   1.00
C170   C     0.24988   0.49999   0.64494   0.00000  Uiso   1.00
C171   C    -0.00000   0.25013   0.35518   0.00000  Uiso   1.00
C172   C     0.00000   0.25006   0.64494   0.00000  Uiso   1.00
C173   C     0.49996   0.24999   0.85520   0.00000  Uiso   1.00
C174   C     0.00004   0.24999   0.14495   0.00000  Uiso   1.00
C175   C     0.25000   0.00000   0.85520   0.00000  Uiso   1.00
C176   C     0.25001   0.00000   0.14497   0.00000  Uiso   1.00
C177   C     0.18000   0.07011   0.24996   0.00000  Uiso   1.00
C178   C     0.27314   0.47570   0.04244   0.00000  Uiso   1.00
C179   C     0.31980   0.42969   0.75029   0.00000  Uiso   1.00
C180   C     0.42988   0.18000   0.24997   0.00000  Uiso   1.00
C181   C     0.07034   0.31977   0.75033   0.00000  Uiso   1.00
C182   C     0.31998   0.42987   0.24992   0.00000  Uiso   1.00
C183   C     0.18020   0.07031   0.75030   0.00000  Uiso   1.00
C184   C     0.07013   0.31998   0.24996   0.00000  Uiso   1.00
C185   C     0.42970   0.18021   0.75028   0.00000  Uiso   1.00
C186   C     0.17987   0.43001   0.74995   0.00000  Uiso   1.00
C187   C     0.32029   0.06981   0.25026   0.00000  Uiso   1.00
C188   C     0.43008   0.32019   0.74984   0.00000  Uiso   1.00
C189   C     0.21710   0.49424   0.95833   0.00000  Uiso   1.00
C190   C     0.06980   0.17970   0.25029   0.00000  Uiso   1.00
C191   C     0.32013   0.06998   0.74995   0.00000  Uiso   1.00
C192   C     0.17970   0.43020   0.25028   0.00000  Uiso   1.00
C193   C     0.06999   0.17987   0.74992   0.00000  Uiso   1.00
C194   C     0.43016   0.32026   0.25024   0.00000  Uiso   1.00
C195   C     0.12623   0.40048   0.21961   0.00000  Uiso   1.00
C196   C     0.37259   0.10070   0.78167   0.00000  Uiso   1.00
C197   C     0.09925   0.12599   0.21982   0.00000  Uiso   1.00
C198   C     0.40036   0.37363   0.78068   0.00000  Uiso   1.00
C199   C     0.37348   0.09978   0.21933   0.00000  Uiso   1.00
C200   C     0.02393   0.27366   0.04230   0.00000  Uiso   1.00
C201   C     0.12707   0.39964   0.78142   0.00000  Uiso   1.00
C202   C     0.40040   0.37362   0.21943   0.00000  Uiso   1.00
C203   C     0.10020   0.12699   0.78124   0.00000  Uiso   1.00
C204   C     0.12849   0.10174   0.78241   0.00000  Uiso   1.00
C205   C     0.37219   0.39893   0.21830   0.00000  Uiso   1.00
C206   C     0.10185   0.37132   0.78259   0.00000  Uiso   1.00
C207   C     0.39877   0.12799   0.21827   0.00000  Uiso   1.00
C208   C     0.37200   0.39875   0.78199   0.00000  Uiso   1.00
C209   C     0.12749   0.10075   0.21864   0.00000  Uiso   1.00
C210   C     0.39783   0.12901   0.78277   0.00000  Uiso   1.00
C211   C     0.00886   0.21720   0.95814   0.00000  Uiso   1.00
C212   C     0.10100   0.37223   0.21846   0.00000  Uiso   1.00
C213   C     0.37619   0.15051   0.71964   0.00000  Uiso   1.00
C214   C     0.12253   0.35073   0.28171   0.00000  Uiso   1.00
C215   C     0.34884   0.37554   0.72018   0.00000  Uiso   1.00
C216   C     0.14940   0.12265   0.28161   0.00000  Uiso   1.00
C217   C     0.12439   0.34891   0.72018   0.00000  Uiso   1.00
C218   C     0.37781   0.14891   0.28199   0.00000  Uiso   1.00
C219   C     0.15106   0.12429   0.72007   0.00000  Uiso   1.00
C220   C     0.35063   0.37742   0.28157   0.00000  Uiso   1.00
C221   C     0.37887   0.35211   0.28262   0.00000  Uiso   1.00
C222   C     0.47558   0.27477   0.54280   0.00000  Uiso   1.00
C223   C     0.12281   0.14953   0.71882   0.00000  Uiso   1.00
C224   C     0.35253   0.12062   0.28302   0.00000  Uiso   1.00
C225   C     0.14957   0.37720   0.71889   0.00000  Uiso   1.00
C226   C     0.12116   0.14797   0.28269   0.00000  Uiso   1.00
C227   C     0.37715   0.35039   0.71882   0.00000  Uiso   1.00
C228   C     0.14783   0.37900   0.28278   0.00000  Uiso   1.00
C229   C     0.35098   0.12225   0.71848   0.00000  Uiso   1.00
C230   C     0.09829   0.34797   0.25002   0.00000  Uiso   1.00
C231   C     0.40098   0.15279   0.75083   0.00000  Uiso   1.00
C232   C     0.15198   0.09824   0.25004   0.00000  Uiso   1.00
H233   H     0.20794   0.04028   0.09851   0.00000  Uiso   1.00
H234   H     0.05764   0.26169   0.40222   0.00000  Uiso   1.00
H235   H     0.14054   0.11881   0.48801   0.00000  Uiso   1.00
H236   H     0.05705   0.16415   0.48833   0.00000  Uiso   1.00
H237   H     0.01299   0.18323   0.48618   0.00000  Uiso   1.00
H238   H     0.04620   0.14394   0.55772   0.00000  Uiso   1.00
H239   H     0.00002   0.16012   0.55398   0.00000  Uiso   1.00
H240   H     0.48928   0.11803   0.49777   0.00000  Uiso   1.00
H241   H     0.00272   0.09418   0.54129   0.00000  Uiso   1.00
H242   H     0.03528   0.10103   0.50273   0.00000  Uiso   1.00
H243   H     0.40920   0.20501   0.51310   0.00000  Uiso   1.00
H244   H     0.45390   0.19170   0.50002   0.00000  Uiso   1.00
H245   H     0.21130   0.45561   0.59895   0.00000  Uiso   1.00
H246   H     0.38900   0.19718   0.44259   0.00000  Uiso   1.00
H247   H     0.43328   0.17844   0.43211   0.00000  Uiso   1.00
H248   H     0.42296   0.13001   0.48225   0.00000  Uiso   1.00
H249   H     0.38904   0.12938   0.44430   0.00000  Uiso   1.00
H250   H     0.37797   0.14817   0.49127   0.00000  Uiso   1.00
H251   H     0.32043   0.01350   0.48633   0.00000  Uiso   1.00
H252   H     0.33792   0.01577   0.53582   0.00000  Uiso   1.00
H253   H     0.34119   0.07724   0.47506   0.00000  Uiso   1.00
H254   H     0.36008   0.07830   0.52341   0.00000  Uiso   1.00
H255   H     0.40081   0.02579   0.50646   0.00000  Uiso   1.00
H256   H     0.23840   0.05746   0.40242   0.00000  Uiso   1.00
H257   H     0.40764   0.06378   0.47419   0.00000  Uiso   1.00
H258   H     0.38186   0.02503   0.45786   0.00000  Uiso   1.00
H259   H     0.29913   0.40905   0.51207   0.00000  Uiso   1.00
H260   H     0.30609   0.45653   0.50880   0.00000  Uiso   1.00
H261   H     0.31758   0.40094   0.44194   0.00000  Uiso   1.00
H262   H     0.32751   0.44889   0.43921   0.00000  Uiso   1.00
H263   H     0.37333   0.44265   0.49231   0.00000  Uiso   1.00
H264   H     0.38351   0.41346   0.45155   0.00000  Uiso   1.00
H265   H     0.36391   0.39436   0.49506   0.00000  Uiso   1.00
H266   H     0.10223   0.46384   0.22223   0.00000  Uiso   1.00
H267   H     0.04445   0.21310   0.59759   0.00000  Uiso   1.00
H268   H     0.07388   0.43987   0.18747   0.00000  Uiso   1.00
H269   H     0.10695   0.46992   0.13316   0.00000  Uiso   1.00
H270   H     0.08727   0.00278   0.16612   0.00000  Uiso   1.00
H271   H     0.13547   0.49344   0.16789   0.00000  Uiso   1.00
H272   H     0.42389   0.06285   0.81772   0.00000  Uiso   1.00
H273   H     0.39725   0.03746   0.78256   0.00000  Uiso   1.00
H274   H     0.36197   0.00936   0.83645   0.00000  Uiso   1.00
H275   H     0.41011   0.00053   0.84082   0.00000  Uiso   1.00
H276   H     0.38884   0.03430   0.87151   0.00000  Uiso   1.00
H277   H     0.03553   0.10257   0.22315   0.00000  Uiso   1.00
H278   H     0.44227   0.24091   0.40266   0.00000  Uiso   1.00
H279   H     0.05936   0.07350   0.18894   0.00000  Uiso   1.00
H280   H     0.02940   0.10567   0.13400   0.00000  Uiso   1.00
H281   H     0.49645   0.08674   0.16735   0.00000  Uiso   1.00
H282   H     0.00595   0.13489   0.16811   0.00000  Uiso   1.00
H283   H     0.43965   0.42612   0.81261   0.00000  Uiso   1.00
H284   H     0.46377   0.39786   0.77786   0.00000  Uiso   1.00
H285   H     0.49373   0.36493   0.83224   0.00000  Uiso   1.00
H286   H     0.00269   0.41316   0.83401   0.00000  Uiso   1.00
H287   H     0.46996   0.39324   0.86695   0.00000  Uiso   1.00
H288   H     0.39735   0.03630   0.22070   0.00000  Uiso   1.00
H289   H     0.28769   0.04385   0.59777   0.00000  Uiso   1.00
H290   H     0.42539   0.06065   0.18595   0.00000  Uiso   1.00
H291   H     0.39169   0.03139   0.13161   0.00000  Uiso   1.00
H292   H     0.41165   0.49806   0.16380   0.00000  Uiso   1.00
H293   H     0.36349   0.00743   0.16629   0.00000  Uiso   1.00
H294   H     0.07538   0.43800   0.81611   0.00000  Uiso   1.00
H295   H     0.10265   0.46304   0.78121   0.00000  Uiso   1.00
H296   H     0.13709   0.49159   0.83546   0.00000  Uiso   1.00
H297   H     0.08888   0.00045   0.83897   0.00000  Uiso   1.00
H298   H     0.10970   0.46691   0.87028   0.00000  Uiso   1.00
H299   H     0.46406   0.39733   0.22157   0.00000  Uiso   1.00
H300   H     0.26117   0.44254   0.40255   0.00000  Uiso   1.00
H301   H     0.43986   0.42575   0.18708   0.00000  Uiso   1.00
H302   H     0.00258   0.41227   0.16503   0.00000  Uiso   1.00
H303   H     0.49319   0.36411   0.16686   0.00000  Uiso   1.00
H304   H     0.46936   0.39267   0.13243   0.00000  Uiso   1.00
H305   H     0.06158   0.07530   0.81572   0.00000  Uiso   1.00
H306   H     0.03676   0.10259   0.78069   0.00000  Uiso   1.00
H307   H     0.00785   0.13699   0.83470   0.00000  Uiso   1.00
H308   H     0.49906   0.08882   0.83829   0.00000  Uiso   1.00
H309   H     0.03244   0.10977   0.86973   0.00000  Uiso   1.00
H310   H     0.14031   0.12309   0.85191   0.00000  Uiso   1.00
H311   H     0.19829   0.09157   0.99003   0.00000  Uiso   1.00
H312   H     0.18090   0.10212   0.83171   0.00000  Uiso   1.00
H313   H     0.16852   0.04644   0.87039   0.00000  Uiso   1.00
H314   H     0.17275   0.08610   0.90100   0.00000  Uiso   1.00
H315   H     0.12829   0.06741   0.89064   0.00000  Uiso   1.00
H316   H     0.32167   0.40813   0.16029   0.00000  Uiso   1.00
H317   H     0.35822   0.37580   0.15318   0.00000  Uiso   1.00
H318   H     0.39185   0.42045   0.11305   0.00000  Uiso   1.00
H319   H     0.34722   0.41114   0.09350   0.00000  Uiso   1.00
H320   H     0.35559   0.45308   0.11938   0.00000  Uiso   1.00
H321   H     0.12343   0.35833   0.85168   0.00000  Uiso   1.00
H322   H     0.24136   0.07032   0.98808   0.00000  Uiso   1.00
H323   H     0.10166   0.31831   0.83122   0.00000  Uiso   1.00
H324   H     0.04629   0.33133   0.87069   0.00000  Uiso   1.00
H325   H     0.08625   0.32573   0.90061   0.00000  Uiso   1.00
H326   H     0.06850   0.37073   0.89134   0.00000  Uiso   1.00
H327   H     0.40838   0.17973   0.16156   0.00000  Uiso   1.00
H328   H     0.37497   0.14419   0.15417   0.00000  Uiso   1.00
H329   H     0.41721   0.11070   0.11173   0.00000  Uiso   1.00
H330   H     0.41031   0.15652   0.09426   0.00000  Uiso   1.00
H331   H     0.45195   0.14469   0.11926   0.00000  Uiso   1.00
H332   H     0.36143   0.37828   0.85217   0.00000  Uiso   1.00
H333   H     0.20923   0.11007   0.05998   0.00000  Uiso   1.00
H334   H     0.32036   0.39823   0.83193   0.00000  Uiso   1.00
H335   H     0.33193   0.45470   0.86939   0.00000  Uiso   1.00
H336   H     0.32878   0.41556   0.90086   0.00000  Uiso   1.00
H337   H     0.37277   0.43496   0.88964   0.00000  Uiso   1.00
H338   H     0.17785   0.09177   0.16104   0.00000  Uiso   1.00
H339   H     0.14072   0.12325   0.15291   0.00000  Uiso   1.00
H340   H     0.10841   0.07718   0.11335   0.00000  Uiso   1.00
H341   H     0.15301   0.08715   0.09405   0.00000  Uiso   1.00
H342   H     0.14531   0.04548   0.12064   0.00000  Uiso   1.00
H343   H     0.37551   0.14319   0.85137   0.00000  Uiso   1.00
H344   H     0.30809   0.00767   0.90257   0.00000  Uiso   1.00
H345   H     0.25462   0.09174   0.05646   0.00000  Uiso   1.00
H346   H     0.39759   0.18279   0.83036   0.00000  Uiso   1.00
H347   H     0.45262   0.17010   0.87063   0.00000  Uiso   1.00
H348   H     0.41240   0.17684   0.89989   0.00000  Uiso   1.00
H349   H     0.42978   0.13145   0.89206   0.00000  Uiso   1.00
H350   H     0.09155   0.32097   0.16141   0.00000  Uiso   1.00
H351   H     0.12444   0.35696   0.15386   0.00000  Uiso   1.00
H352   H     0.08115   0.39019   0.11226   0.00000  Uiso   1.00
H353   H     0.08887   0.34468   0.09425   0.00000  Uiso   1.00
H354   H     0.04719   0.35539   0.11972   0.00000  Uiso   1.00
H355   H     0.35209   0.21379   0.72267   0.00000  Uiso   1.00
H356   H     0.26803   0.13419   0.00122   0.00000  Uiso   1.00
H357   H     0.32367   0.18995   0.68786   0.00000  Uiso   1.00
H358   H     0.35655   0.22031   0.63363   0.00000  Uiso   1.00
H359   H     0.33693   0.25298   0.66684   0.00000  Uiso   1.00
H360   H     0.38515   0.24367   0.66842   0.00000  Uiso   1.00
H361   H     0.17362   0.31281   0.31813   0.00000  Uiso   1.00
H362   H     0.14705   0.28742   0.28292   0.00000  Uiso   1.00
H363   H     0.11151   0.25944   0.33668   0.00000  Uiso   1.00
H364   H     0.15963   0.25067   0.34145   0.00000  Uiso   1.00
H365   H     0.13813   0.28454   0.37184   0.00000  Uiso   1.00
H366   H     0.28537   0.35190   0.72583   0.00000  Uiso   1.00
H367   H     0.25532   0.15792   0.04507   0.00000  Uiso   1.00
H368   H     0.30858   0.32219   0.69176   0.00000  Uiso   1.00
H369   H     0.24512   0.33460   0.67151   0.00000  Uiso   1.00
H370   H     0.25440   0.38281   0.67087   0.00000  Uiso   1.00
H371   H     0.27717   0.35299   0.63683   0.00000  Uiso   1.00
H372   H     0.18761   0.17381   0.31751   0.00000  Uiso   1.00
H373   H     0.21290   0.14695   0.28246   0.00000  Uiso   1.00
H374   H     0.24095   0.11179   0.33645   0.00000  Uiso   1.00
H375   H     0.24977   0.15989   0.34089   0.00000  Uiso   1.00
H376   H     0.21588   0.13863   0.37145   0.00000  Uiso   1.00
H377   H     0.14799   0.28545   0.72521   0.00000  Uiso   1.00
H378   H     0.22288   0.15334   0.00603   0.00000  Uiso   1.00
H379   H     0.17754   0.30875   0.69105   0.00000  Uiso   1.00
H380   H     0.14628   0.27771   0.63616   0.00000  Uiso   1.00
H381   H     0.16483   0.24547   0.67051   0.00000  Uiso   1.00
H382   H     0.11660   0.25486   0.67030   0.00000  Uiso   1.00
H383   H     0.32706   0.18631   0.31959   0.00000  Uiso   1.00
H384   H     0.35314   0.21213   0.28431   0.00000  Uiso   1.00
H385   H     0.38925   0.23966   0.33793   0.00000  Uiso   1.00
H386   H     0.34117   0.24827   0.34344   0.00000  Uiso   1.00
H387   H     0.36307   0.21415   0.37313   0.00000  Uiso   1.00
H388   H     0.21480   0.14755   0.72468   0.00000  Uiso   1.00
H389   H     0.34417   0.04221   0.01219   0.00000  Uiso   1.00
H390   H     0.19135   0.17718   0.69077   0.00000  Uiso   1.00
H391   H     0.25447   0.16429   0.66966   0.00000  Uiso   1.00
H392   H     0.24496   0.11613   0.66940   0.00000  Uiso   1.00
H393   H     0.22189   0.14591   0.63556   0.00000  Uiso   1.00
H394   H     0.31256   0.32639   0.31802   0.00000  Uiso   1.00
H395   H     0.28729   0.35291   0.28269   0.00000  Uiso   1.00
H396   H     0.25909   0.38849   0.33624   0.00000  Uiso   1.00
H397   H     0.25035   0.34042   0.34120   0.00000  Uiso   1.00
H398   H     0.28415   0.36207   0.37158   0.00000  Uiso   1.00
H399   H     0.39214   0.37403   0.35164   0.00000  Uiso   1.00
H400   H     0.29949   0.05730   0.00164   0.00000  Uiso   1.00
H401   H     0.43217   0.35250   0.33086   0.00000  Uiso   1.00
H402   H     0.41991   0.29724   0.37042   0.00000  Uiso   1.00
H403   H     0.42519   0.33717   0.40045   0.00000  Uiso   1.00
H404   H     0.38033   0.31891   0.39130   0.00000  Uiso   1.00
H405   H     0.07351   0.15897   0.66015   0.00000  Uiso   1.00
H406   H     0.11089   0.12768   0.65257   0.00000  Uiso   1.00
H407   H     0.14402   0.17457   0.61462   0.00000  Uiso   1.00
H408   H     0.10015   0.16409   0.59381   0.00000  Uiso   1.00
H409   H     0.10644   0.20567   0.62094   0.00000  Uiso   1.00
H410   H     0.37546   0.10565   0.35113   0.00000  Uiso   1.00
H411   H     0.36151   0.05046   0.94077   0.00000  Uiso   1.00
H412   H     0.35300   0.06633   0.33001   0.00000  Uiso   1.00
H413   H     0.29847   0.07882   0.37113   0.00000  Uiso   1.00
H414   H     0.33899   0.07184   0.39985   0.00000  Uiso   1.00
H415   H     0.32161   0.11730   0.39258   0.00000  Uiso   1.00
H416   H     0.15909   0.42624   0.65974   0.00000  Uiso   1.00
H417   H     0.12762   0.38893   0.65271   0.00000  Uiso   1.00
H418   H     0.17431   0.35528   0.61495   0.00000  Uiso   1.00
H419   H     0.16391   0.39892   0.59368   0.00000  Uiso   1.00
H420   H     0.20558   0.39280   0.62070   0.00000  Uiso   1.00
H421   H     0.10828   0.12637   0.35181   0.00000  Uiso   1.00
H422   H     0.31764   0.07124   0.93311   0.00000  Uiso   1.00
H423   H     0.06813   0.14802   0.33147   0.00000  Uiso   1.00
H424   H     0.08085   0.20326   0.37094   0.00000  Uiso   1.00
H425   H     0.07604   0.16333   0.40104   0.00000  Uiso   1.00
H426   H     0.12075   0.18160   0.39115   0.00000  Uiso   1.00
H427   H     0.42627   0.34066   0.65975   0.00000  Uiso   1.00
H428   H     0.38909   0.37228   0.65272   0.00000  Uiso   1.00
H429   H     0.35526   0.32582   0.61484   0.00000  Uiso   1.00
H430   H     0.39902   0.33611   0.59364   0.00000  Uiso   1.00
H431   H     0.39269   0.29444   0.62054   0.00000  Uiso   1.00
H432   H     0.12582   0.39225   0.35166   0.00000  Uiso   1.00
H433   H     0.33242   0.11803   0.98398   0.00000  Uiso   1.00
H434   H     0.14766   0.43225   0.33126   0.00000  Uiso   1.00
H435   H     0.20273   0.41955   0.37111   0.00000  Uiso   1.00
H436   H     0.16261   0.42473   0.40093   0.00000  Uiso   1.00
H437   H     0.18075   0.37992   0.39148   0.00000  Uiso   1.00
H438   H     0.34154   0.07099   0.66159   0.00000  Uiso   1.00
H439   H     0.37427   0.10709   0.65374   0.00000  Uiso   1.00
H440   H     0.33082   0.13998   0.61215   0.00000  Uiso   1.00
H441   H     0.33838   0.09436   0.59437   0.00000  Uiso   1.00
H442   H     0.29686   0.10528   0.62006   0.00000  Uiso   1.00
H443   H     0.36423   0.11828   0.94397   0.00000  Uiso   1.00
H444   H     0.46124   0.20655   0.09821   0.00000  Uiso   1.00
H445   H     0.37703   0.09793   0.98967   0.00000  Uiso   1.00
H446   H     0.42769   0.23739   0.98918   0.00000  Uiso   1.00
H447   H     0.41038   0.23137   0.03836   0.00000  Uiso   1.00
H448   H     0.40925   0.17356   0.97348   0.00000  Uiso   1.00
H449   H     0.39045   0.16897   0.02161   0.00000  Uiso   1.00
H450   H     0.34762   0.22057   0.00825   0.00000  Uiso   1.00
H451   H     0.34242   0.18446   0.97325   0.00000  Uiso   1.00
H452   H     0.36659   0.22518   0.95987   0.00000  Uiso   1.00
H453   H     0.44170   0.29648   0.00946   0.00000  Uiso   1.00
H454   H     0.43203   0.31286   0.96058   0.00000  Uiso   1.00
H455   H     0.48770   0.30711   0.90308   0.00000  Uiso   1.00
H456   H     0.45871   0.35918   0.02966   0.00000  Uiso   1.00
H457   H     0.44864   0.37556   0.98144   0.00000  Uiso   1.00
H458   H     0.38386   0.35528   0.98893   0.00000  Uiso   1.00
H459   H     0.39698   0.38665   0.02673   0.00000  Uiso   1.00
H460   H     0.39403   0.33874   0.03734   0.00000  Uiso   1.00
H461   H     0.30162   0.40761   0.99064   0.00000  Uiso   1.00
H462   H     0.25868   0.42907   0.98825   0.00000  Uiso   1.00
H463   H     0.29022   0.38971   0.06066   0.00000  Uiso   1.00
H464   H     0.24496   0.40830   0.05680   0.00000  Uiso   1.00
H465   H     0.23151   0.36552   0.00186   0.00000  Uiso   1.00
H466   H     0.29219   0.45965   0.09863   0.00000  Uiso   1.00
H467   H     0.24386   0.34206   0.04597   0.00000  Uiso   1.00
H468   H     0.27650   0.34609   0.00704   0.00000  Uiso   1.00
H469   H     0.15566   0.45696   0.01175   0.00000  Uiso   1.00
H470   H     0.20044   0.44202   0.00139   0.00000  Uiso   1.00
H471   H     0.13882   0.44904   0.94010   0.00000  Uiso   1.00
H472   H     0.18276   0.42832   0.93269   0.00000  Uiso   1.00
H473   H     0.16761   0.38136   0.98326   0.00000  Uiso   1.00
H474   H     0.13620   0.38118   0.94292   0.00000  Uiso   1.00
H475   H     0.12292   0.40136   0.98857   0.00000  Uiso   1.00
H476   H     0.07298   0.26385   0.98612   0.00000  Uiso   1.00
H477   H     0.19189   0.49221   0.90254   0.00000  Uiso   1.00
H478   H     0.09066   0.26521   0.03559   0.00000  Uiso   1.00
H479   H     0.09362   0.32768   0.97598   0.00000  Uiso   1.00
H480   H     0.11246   0.32818   0.02436   0.00000  Uiso   1.00
H481   H     0.15354   0.27620   0.00665   0.00000  Uiso   1.00
H482   H     0.16013   0.31465   0.97494   0.00000  Uiso   1.00
H483   H     0.13462   0.27593   0.95802   0.00000  Uiso   1.00
H484   H     0.05162   0.15875   0.01123   0.00000  Uiso   1.00
H485   H     0.05976   0.20593   0.00602   0.00000  Uiso   1.00
H486   H     0.06729   0.14821   0.94060   0.00000  Uiso   1.00
H487   H     0.07863   0.19572   0.93609   0.00000  Uiso   1.00
H488   H     0.03952   0.29320   0.09849   0.00000  Uiso   1.00
H489   H     0.12604   0.18924   0.98757   0.00000  Uiso   1.00
H490   H     0.13385   0.15876   0.94730   0.00000  Uiso   1.00
H491   H     0.11516   0.14138   0.99207   0.00000  Uiso   1.00
H492   H     0.44219   0.34173   0.49259   0.00000  Uiso   1.00
H493   H     0.48595   0.32240   0.48800   0.00000  Uiso   1.00
H494   H     0.45533   0.35919   0.56244   0.00000  Uiso   1.00
H495   H     0.00128   0.34302   0.55622   0.00000  Uiso   1.00
H496   H     0.01042   0.38718   0.50160   0.00000  Uiso   1.00
H497   H     0.49844   0.40941   0.54658   0.00000  Uiso   1.00
H498   H     0.46467   0.40412   0.50895   0.00000  Uiso   1.00
H499   H     0.01218   0.19247   0.90215   0.00000  Uiso   1.00
H500   H     0.09042   0.30276   0.51088   0.00000  Uiso   1.00
H501   H     0.04540   0.31495   0.49793   0.00000  Uiso   1.00
H502   H     0.10997   0.30875   0.44011   0.00000  Uiso   1.00
H503   H     0.06524   0.32605   0.42913   0.00000  Uiso   1.00
H504   H     0.07455   0.37684   0.47661   0.00000  Uiso   1.00
H505   H     0.10884   0.37639   0.43907   0.00000  Uiso   1.00
H506   H     0.11974   0.35983   0.48701   0.00000  Uiso   1.00
H507   H     0.16058   0.44079   0.49057   0.00000  Uiso   1.00
H508   H     0.17907   0.48497   0.48687   0.00000  Uiso   1.00
H509   H     0.14097   0.45310   0.55990   0.00000  Uiso   1.00
H510   H     0.45562   0.28868   0.59927   0.00000  Uiso   1.00
H511   H     0.15649   0.49934   0.55463   0.00000  Uiso   1.00
H512   H     0.11358   0.00812   0.49877   0.00000  Uiso   1.00
H513   H     0.09037   0.49533   0.54293   0.00000  Uiso   1.00
H514   H     0.09730   0.46203   0.50514   0.00000  Uiso   1.00
H515   H     0.19773   0.08946   0.51153   0.00000  Uiso   1.00
H516   H     0.18574   0.04458   0.49788   0.00000  Uiso   1.00
H517   H     0.19172   0.10981   0.44100   0.00000  Uiso   1.00
H518   H     0.17459   0.06517   0.42941   0.00000  Uiso   1.00
H519   H     0.12372   0.07369   0.47700   0.00000  Uiso   1.00
H520   H     0.12402   0.10837   0.43992   0.00000  Uiso   1.00
O521   O     0.25000  -0.00000   0.25000   0.00000  Uiso   1.00
O522   O     0.25000   0.46964   0.66317   0.00000  Uiso   1.00
O523   O     0.32760   0.12003   0.68704   0.00000  Uiso   1.00
O524   O     0.46964   0.25000   0.33683   0.00000  Uiso   1.00
O525   O     0.03036   0.25000   0.66317   0.00000  Uiso   1.00
O526   O     0.00000   0.21964   0.83683   0.00000  Uiso   1.00
O527   O    -0.00000   0.28036   0.16317   0.00000  Uiso   1.00
O528   O     0.28036  -0.00000   0.83683   0.00000  Uiso   1.00
O529   O     0.21964  -0.00000   0.16317   0.00000  Uiso   1.00
O530   O     0.00000   0.28036   0.83683   0.00000  Uiso   1.00
O531   O    -0.00000   0.21964   0.16317   0.00000  Uiso   1.00
O532   O     0.21964  -0.00000   0.83683   0.00000  Uiso   1.00
O533   O     0.25000  -0.00000   0.75000   0.00000  Uiso   1.00
O534   O     0.28036  -0.00000   0.16317   0.00000  Uiso   1.00
O535   O     0.20725   0.07307   0.27282   0.00000  Uiso   1.00
O536   O     0.29274   0.42693   0.72718   0.00000  Uiso   1.00
O537   O     0.42693   0.20725   0.27282   0.00000  Uiso   1.00
O538   O     0.07307   0.29274   0.72718   0.00000  Uiso   1.00
O539   O     0.29274   0.42693   0.27282   0.00000  Uiso   1.00
O540   O     0.20725   0.07307   0.72718   0.00000  Uiso   1.00
O541   O     0.07307   0.29274   0.27282   0.00000  Uiso   1.00
O542   O     0.42693   0.20725   0.72718   0.00000  Uiso   1.00
O543   O     0.20725   0.42693   0.72718   0.00000  Uiso   1.00
O544   O     0.00000   0.25000   0.25000   0.00000  Uiso   1.00
O545   O     0.29274   0.07307   0.27282   0.00000  Uiso   1.00
O546   O     0.42693   0.29274   0.72718   0.00000  Uiso   1.00
O547   O     0.07307   0.20725   0.27282   0.00000  Uiso   1.00
O548   O     0.29274   0.07307   0.72718   0.00000  Uiso   1.00
O549   O     0.20725   0.42693   0.27282   0.00000  Uiso   1.00
O550   O     0.07307   0.20725   0.72718   0.00000  Uiso   1.00
O551   O     0.42693   0.29274   0.27282   0.00000  Uiso   1.00
O552   O     0.45725   0.32307   0.77282   0.00000  Uiso   1.00
O553   O     0.04274   0.17693   0.22718   0.00000  Uiso   1.00
O554   O     0.17693   0.45725   0.77282   0.00000  Uiso   1.00
O555   O     0.00000   0.25000   0.75000   0.00000  Uiso   1.00
O556   O     0.32307   0.04274   0.22718   0.00000  Uiso   1.00
O557   O     0.04274   0.17693   0.77282   0.00000  Uiso   1.00
O558   O     0.45725   0.32307   0.22718   0.00000  Uiso   1.00
O559   O     0.32307   0.04274   0.77282   0.00000  Uiso   1.00
O560   O     0.17693   0.45725   0.22718   0.00000  Uiso   1.00
O561   O     0.45725   0.17693   0.22718   0.00000  Uiso   1.00
O562   O     0.04274   0.32307   0.77282   0.00000  Uiso   1.00
O563   O     0.17693   0.04274   0.22718   0.00000  Uiso   1.00
O564   O     0.32307   0.45725   0.77282   0.00000  Uiso   1.00
O565   O     0.04274   0.32307   0.22718   0.00000  Uiso   1.00
O566   O     0.25000   0.46964   0.33683   0.00000  Uiso   1.00
O567   O     0.45725   0.17693   0.77282   0.00000  Uiso   1.00
O568   O     0.32307   0.45725   0.22718   0.00000  Uiso   1.00
O569   O     0.17693   0.04274   0.77282   0.00000  Uiso   1.00
O570   O     0.20186   0.04643   0.02415   0.00000  Uiso   1.00
O571   O     0.31618   0.00746   0.97708   0.00000  Uiso   1.00
O572   O     0.45607   0.20049   0.02315   0.00000  Uiso   1.00
O573   O     0.48652   0.31419   0.97806   0.00000  Uiso   1.00
O574   O     0.29810   0.45307   0.02430   0.00000  Uiso   1.00
O575   O     0.18381   0.49194   0.97706   0.00000  Uiso   1.00
O576   O     0.04591   0.29871   0.02358   0.00000  Uiso   1.00
O577   O     0.25000   0.03036   0.66317   0.00000  Uiso   1.00
O578   O     0.01449   0.18418   0.97657   0.00000  Uiso   1.00
O579   O     0.44913   0.29603   0.52519   0.00000  Uiso   1.00
O580   O     0.06542   0.26492   0.47680   0.00000  Uiso   1.00
O581   O     0.20529   0.44850   0.52460   0.00000  Uiso   1.00
O582   O     0.23576   0.06511   0.47711   0.00000  Uiso   1.00
O583   O     0.05083   0.20855   0.52317   0.00000  Uiso   1.00
O584   O     0.43432   0.24132   0.47729   0.00000  Uiso   1.00
O585   O     0.29325   0.04910   0.52290   0.00000  Uiso   1.00
O586   O     0.26243   0.43453   0.47693   0.00000  Uiso   1.00
O587   O     0.12836   0.42415   0.18839   0.00000  Uiso   1.00
O588   O     0.03036   0.25000   0.33683   0.00000  Uiso   1.00
O589   O     0.36937   0.07794   0.81355   0.00000  Uiso   1.00
O590   O     0.07533   0.12789   0.18877   0.00000  Uiso   1.00
O591   O     0.42424   0.37160   0.81176   0.00000  Uiso   1.00
O592   O     0.37095   0.07648   0.18781   0.00000  Uiso   1.00
O593   O     0.12992   0.42277   0.81306   0.00000  Uiso   1.00
O594   O     0.42401   0.37133   0.18812   0.00000  Uiso   1.00
O595   O     0.07696   0.12977   0.81281   0.00000  Uiso   1.00
O596   O     0.13160   0.07916   0.81441   0.00000  Uiso   1.00
O597   O     0.37005   0.42245   0.18698   0.00000  Uiso   1.00
O598   O     0.07935   0.36809   0.81469   0.00000  Uiso   1.00
O599   O     0.46964   0.25000   0.66317   0.00000  Uiso   1.00
O600   O     0.42193   0.13047   0.18666   0.00000  Uiso   1.00
O601   O     0.36922   0.42164   0.81378   0.00000  Uiso   1.00
O602   O     0.12941   0.07704   0.18745   0.00000  Uiso   1.00
O603   O     0.41994   0.13266   0.81510   0.00000  Uiso   1.00
O604   O     0.07766   0.36996   0.18699   0.00000  Uiso   1.00
O605   O     0.37817   0.17430   0.68851   0.00000  Uiso   1.00
O606   O     0.11917   0.32806   0.31367   0.00000  Uiso   1.00
O607   O     0.32419   0.37665   0.68976   0.00000  Uiso   1.00
O608   O     0.17220   0.11941   0.31349   0.00000  Uiso   1.00
O609   O     0.12307   0.32449   0.68956   0.00000  Uiso   1.00
O610   O     0.25000   0.03036   0.33683   0.00000  Uiso   1.00
O611   O     0.38150   0.17126   0.31417   0.00000  Uiso   1.00
O612   O     0.17539   0.12280   0.68935   0.00000  Uiso   1.00
O613   O     0.32792   0.38077   0.31352   0.00000  Uiso   1.00
O614   O     0.38235   0.32985   0.31484   0.00000  Uiso   1.00
O615   O     0.12127   0.17360   0.68794   0.00000  Uiso   1.00
O616   O     0.33069   0.11666   0.31553   0.00000  Uiso   1.00
O617   O     0.17367   0.37876   0.68801   0.00000  Uiso   1.00
O618   O     0.11784   0.17044   0.31478   0.00000  Uiso   1.00
O619   O     0.37864   0.32627   0.68797   0.00000  Uiso   1.00
O620   O     0.17015   0.38249   0.31497   0.00000  Uiso   1.00
Zn621  Zn    0.20660  -0.00000   0.21760   0.00000  Uiso   1.00
Zn622  Zn    0.04340   0.25000   0.28240   0.00000  Uiso   1.00
Zn623  Zn    0.25000   0.45660   0.71760   0.00000  Uiso   1.00
Zn624  Zn    0.25000   0.04340   0.28240   0.00000  Uiso   1.00
Zn625  Zn    0.04340   0.25000   0.71760   0.00000  Uiso   1.00
Zn626  Zn    0.45660   0.25000   0.28240   0.00000  Uiso   1.00
Zn627  Zn    0.25000   0.04340   0.71760   0.00000  Uiso   1.00
Zn628  Zn    0.25000   0.45660   0.28240   0.00000  Uiso   1.00
Zn629  Zn    0.29340  -0.00000   0.78240   0.00000  Uiso   1.00
Zn630  Zn   -0.00000   0.20660   0.21760   0.00000  Uiso   1.00
Zn631  Zn   -0.00000   0.29340   0.78240   0.00000  Uiso   1.00
Zn632  Zn    0.29340  -0.00000   0.21760   0.00000  Uiso   1.00
Zn633  Zn    0.20660  -0.00000   0.78240   0.00000  Uiso   1.00
Zn634  Zn   -0.00000   0.29340   0.21760   0.00000  Uiso   1.00
Zn635  Zn   -0.00000   0.20660   0.78240   0.00000  Uiso   1.00
Zn636  Zn    0.45660   0.25000   0.71760   0.00000  Uiso   1.00
C637   C     0.72688   0.02392   0.04236   0.00000  Uiso   1.00
C638   C     0.53243   0.25997   0.45808   0.00000  Uiso   1.00
C639   C     0.84730   0.40105   0.75076   0.00000  Uiso   1.00
C640   C     0.90175   0.15198   0.25006   0.00000  Uiso   1.00
C641   C     0.59911   0.34712   0.75096   0.00000  Uiso   1.00
C642   C     0.84794   0.40169   0.24991   0.00000  Uiso   1.00
C643   C     0.65279   0.09902   0.75085   0.00000  Uiso   1.00
C644   C     0.59798   0.15172   0.74995   0.00000  Uiso   1.00
C645   C     0.90268   0.34891   0.25069   0.00000  Uiso   1.00
C646   C     0.65174   0.40199   0.75004   0.00000  Uiso   1.00
C647   C     0.84902   0.09720   0.25080   0.00000  Uiso   1.00
C648   C     0.90223   0.34847   0.74974   0.00000  Uiso   1.00
C649   C     0.72577   0.47539   0.54253   0.00000  Uiso   1.00
C650   C     0.59720   0.15097   0.25087   0.00000  Uiso   1.00
C651   C     0.84831   0.09795   0.75000   0.00000  Uiso   1.00
C652   C     0.65100   0.40277   0.25083   0.00000  Uiso   1.00
C653   C     0.75003   0.49995   0.10286   0.00000  Uiso   1.00
C654   C     0.74999   0.49994   0.89763   0.00000  Uiso   1.00
C655   C     0.50033   0.24991   0.10278   0.00000  Uiso   1.00
C656   C     0.50015   0.24987   0.89766   0.00000  Uiso   1.00
C657   C     0.50001   0.25077   0.60279   0.00000  Uiso   1.00
C658   C     0.99999   0.25101   0.39757   0.00000  Uiso   1.00
C659   C     0.74927   0.49999   0.60277   0.00000  Uiso   1.00
C660   C     0.74092   0.03224   0.45823   0.00000  Uiso   1.00
C661   C     0.74959   0.49997   0.39759   0.00000  Uiso   1.00
C662   C     0.71893   0.07749   0.00818   0.00000  Uiso   1.00
C663   C     0.73196   0.10408   0.03968   0.00000  Uiso   1.00
C664   C     0.74536   0.13956   0.02177   0.00000  Uiso   1.00
C665   C     0.82351   0.04358   0.98869   0.00000  Uiso   1.00
C666   C     0.83922   0.06595   0.95498   0.00000  Uiso   1.00
C667   C     0.85413   0.10230   0.96915   0.00000  Uiso   1.00
C668   C     0.92300   0.21743   0.01289   0.00000  Uiso   1.00
C669   C     0.89654   0.18863   0.99797   0.00000  Uiso   1.00
C670   C     0.86112   0.20588   0.98401   0.00000  Uiso   1.00
C671   C     0.52460   0.22934   0.54179   0.00000  Uiso   1.00
C672   C     0.94916   0.31689   0.98700   0.00000  Uiso   1.00
C673   C     0.94151   0.35468   0.00351   0.00000  Uiso   1.00
C674   C     0.90158   0.35899   0.01479   0.00000  Uiso   1.00
C675   C     0.78096   0.42195   0.00854   0.00000  Uiso   1.00
C676   C     0.76762   0.39569   0.04022   0.00000  Uiso   1.00
C677   C     0.75405   0.36015   0.02255   0.00000  Uiso   1.00
C678   C     0.67647   0.45575   0.98837   0.00000  Uiso   1.00
C679   C     0.66101   0.43351   0.95442   0.00000  Uiso   1.00
C680   C     0.64603   0.39710   0.96827   0.00000  Uiso   1.00
C681   C     0.57839   0.28157   0.01162   0.00000  Uiso   1.00
C682   C     0.96736   0.24528   0.45840   0.00000  Uiso   1.00
C683   C     0.60578   0.31050   0.99915   0.00000  Uiso   1.00
C684   C     0.64065   0.29315   0.98376   0.00000  Uiso   1.00
C685   C     0.55078   0.18140   0.98990   0.00000  Uiso   1.00
C686   C     0.57720   0.17249   0.95664   0.00000  Uiso   1.00
C687   C     0.61541   0.16501   0.97199   0.00000  Uiso   1.00
C688   C     0.96417   0.32818   0.50935   0.00000  Uiso   1.00
C689   C     0.97737   0.35466   0.54089   0.00000  Uiso   1.00
C690   C     0.98839   0.39109   0.52329   0.00000  Uiso   1.00
C691   C     0.57049   0.30190   0.48663   0.00000  Uiso   1.00
C692   C     0.58613   0.32344   0.45227   0.00000  Uiso   1.00
C693   C     0.77112   0.02436   0.54192   0.00000  Uiso   1.00
C694   C     0.59801   0.36148   0.46465   0.00000  Uiso   1.00
C695   C     0.67324   0.46293   0.50788   0.00000  Uiso   1.00
C696   C     0.64568   0.47538   0.53872   0.00000  Uiso   1.00
C697   C     0.60951   0.48585   0.52011   0.00000  Uiso   1.00
C698   C     0.69872   0.06985   0.48699   0.00000  Uiso   1.00
C699   C     0.67711   0.08579   0.45283   0.00000  Uiso   1.00
C700   C     0.63899   0.09734   0.46535   0.00000  Uiso   1.00
C701   C     0.53552   0.17690   0.50644   0.00000  Uiso   1.00
C702   C     0.52345   0.14919   0.53726   0.00000  Uiso   1.00
C703   C     0.51199   0.11341   0.51847   0.00000  Uiso   1.00
C704   C     0.75675   0.46748   0.45836   0.00000  Uiso   1.00
C705   C     0.92887   0.20478   0.48858   0.00000  Uiso   1.00
C706   C     0.91256   0.18240   0.45522   0.00000  Uiso   1.00
C707   C     0.89988   0.14518   0.46926   0.00000  Uiso   1.00
C708   C     0.82576   0.03170   0.51146   0.00000  Uiso   1.00
C709   C     0.85328   0.06032   0.49849   0.00000  Uiso   1.00
C710   C     0.88802   0.04254   0.48334   0.00000  Uiso   1.00
C711   C     0.79836   0.43230   0.49150   0.00000  Uiso   1.00
C712   C     0.82614   0.42511   0.45903   0.00000  Uiso   1.00
C713   C     0.86405   0.41849   0.47566   0.00000  Uiso   1.00
C714   C     0.60145   0.45131   0.19270   0.00000  Uiso   1.00
C715   C     0.72624   0.02258   0.08275   0.00000  Uiso   1.00
C716   C     0.60822   0.48123   0.16307   0.00000  Uiso   1.00
C717   C     0.89668   0.05095   0.81160   0.00000  Uiso   1.00
C718   C     0.88890   0.02198   0.84204   0.00000  Uiso   1.00
C719   C     0.54803   0.10119   0.19363   0.00000  Uiso   1.00
C720   C     0.51809   0.10754   0.16387   0.00000  Uiso   1.00
C721   C     0.95127   0.39863   0.80740   0.00000  Uiso   1.00
C722   C     0.98128   0.39206   0.83704   0.00000  Uiso   1.00
C723   C     0.89785   0.04920   0.19136   0.00000  Uiso   1.00
C724   C     0.89070   0.01968   0.16135   0.00000  Uiso   1.00
C725   C     0.60272   0.44979   0.81038   0.00000  Uiso   1.00
C726   C     0.78261   0.00437   0.91796   0.00000  Uiso   1.00
C727   C     0.61008   0.47900   0.84070   0.00000  Uiso   1.00
C728   C     0.95128   0.39817   0.19217   0.00000  Uiso   1.00
C729   C     0.98095   0.39136   0.16221   0.00000  Uiso   1.00
C730   C     0.54987   0.10264   0.80994   0.00000  Uiso   1.00
C731   C     0.52048   0.11004   0.84009   0.00000  Uiso   1.00
C732   C     0.65291   0.09688   0.84282   0.00000  Uiso   1.00
C733   C     0.65578   0.07267   0.87849   0.00000  Uiso   1.00
C734   C     0.85152   0.40526   0.15603   0.00000  Uiso   1.00
C735   C     0.86218   0.42368   0.11811   0.00000  Uiso   1.00
C736   C     0.59694   0.34623   0.84271   0.00000  Uiso   1.00
C737   C     0.97860   0.22523   0.08257   0.00000  Uiso   1.00
C738   C     0.57296   0.34335   0.87860   0.00000  Uiso   1.00
C739   C     0.90467   0.15010   0.15657   0.00000  Uiso   1.00
C740   C     0.92216   0.13989   0.11802   0.00000  Uiso   1.00
C741   C     0.84834   0.40411   0.84270   0.00000  Uiso   1.00
C742   C     0.84529   0.42890   0.87789   0.00000  Uiso   1.00
C743   C     0.64799   0.09399   0.15639   0.00000  Uiso   1.00
C744   C     0.63809   0.07471   0.11874   0.00000  Uiso   1.00
C745   C     0.90212   0.15507   0.84246   0.00000  Uiso   1.00
C746   C     0.92575   0.15856   0.87854   0.00000  Uiso   1.00
C747   C     0.59484   0.35067   0.15657   0.00000  Uiso   1.00
C748   C     0.78289   0.00527   0.95835   0.00000  Uiso   1.00
C749   C     0.99331   0.28193   0.91826   0.00000  Uiso   1.00
C750   C     0.57685   0.36084   0.11829   0.00000  Uiso   1.00
C751   C     0.85124   0.20140   0.69307   0.00000  Uiso   1.00
C752   C     0.85789   0.23147   0.66360   0.00000  Uiso   1.00
C753   C     0.64640   0.30098   0.31192   0.00000  Uiso   1.00
C754   C     0.63840   0.27211   0.34242   0.00000  Uiso   1.00
C755   C     0.79719   0.34991   0.69604   0.00000  Uiso   1.00
C756   C     0.76656   0.35543   0.66694   0.00000  Uiso   1.00
C757   C     0.69937   0.14654   0.31149   0.00000  Uiso   1.00
C758   C     0.72829   0.13870   0.34201   0.00000  Uiso   1.00
C759   C     0.64980   0.29742   0.69547   0.00000  Uiso   1.00
C760   C     0.77384   0.47725   0.08282   0.00000  Uiso   1.00
C761   C     0.64400   0.26696   0.66623   0.00000  Uiso   1.00
C762   C     0.85418   0.19828   0.31313   0.00000  Uiso   1.00
C763   C     0.86246   0.22687   0.34387   0.00000  Uiso   1.00
C764   C     0.70262   0.14942   0.69505   0.00000  Uiso   1.00
C765   C     0.73287   0.14355   0.66553   0.00000  Uiso   1.00
C766   C     0.80078   0.35360   0.31173   0.00000  Uiso   1.00
C767   C     0.77179   0.36167   0.34212   0.00000  Uiso   1.00
C768   C     0.90434   0.34763   0.34260   0.00000  Uiso   1.00
C769   C     0.90763   0.32372   0.37847   0.00000  Uiso   1.00
C770   C     0.60347   0.15689   0.65623   0.00000  Uiso   1.00
C771   C     0.71738   0.49540   0.91794   0.00000  Uiso   1.00
C772   C     0.61416   0.17657   0.61907   0.00000  Uiso   1.00
C773   C     0.84871   0.09396   0.34244   0.00000  Uiso   1.00
C774   C     0.82545   0.09027   0.37879   0.00000  Uiso   1.00
C775   C     0.65689   0.39627   0.65617   0.00000  Uiso   1.00
C776   C     0.67643   0.38515   0.61904   0.00000  Uiso   1.00
C777   C     0.59609   0.15280   0.34287   0.00000  Uiso   1.00
C778   C     0.59327   0.17678   0.37876   0.00000  Uiso   1.00
C779   C     0.89630   0.34299   0.65615   0.00000  Uiso   1.00
C780   C     0.88514   0.32359   0.61896   0.00000  Uiso   1.00
C781   C     0.65234   0.40436   0.34283   0.00000  Uiso   1.00
C782   C     0.52248   0.27432   0.08272   0.00000  Uiso   1.00
C783   C     0.67613   0.40731   0.37886   0.00000  Uiso   1.00
C784   C     0.84471   0.10069   0.65662   0.00000  Uiso   1.00
C785   C     0.82652   0.11067   0.61839   0.00000  Uiso   1.00
C786   C     0.50718   0.21756   0.91775   0.00000  Uiso   1.00
C787   C     0.97498   0.27246   0.58315   0.00000  Uiso   1.00
C788   C     0.53231   0.25768   0.41773   0.00000  Uiso   1.00
C789   C     0.72762   0.47498   0.58294   0.00000  Uiso   1.00
C790   C     0.74283   0.03219   0.41787   0.00000  Uiso   1.00
C791   C     0.52513   0.22998   0.58221   0.00000  Uiso   1.00
C792   C     0.97797   0.22540   0.04213   0.00000  Uiso   1.00
C793   C     0.96758   0.24558   0.41799   0.00000  Uiso   1.00
C794   C     0.77049   0.02488   0.58232   0.00000  Uiso   1.00
C795   C     0.75591   0.46769   0.41795   0.00000  Uiso   1.00
C796   C     0.74998   0.49975   0.02167   0.00000  Uiso   1.00
C797   C     0.75000   0.49971   0.97894   0.00000  Uiso   1.00
C798   C     0.50113   0.24938   0.02165   0.00000  Uiso   1.00
C799   C     0.50109   0.24945   0.97897   0.00000  Uiso   1.00
C800   C     0.50014   0.25251   0.52156   0.00000  Uiso   1.00
C801   C     0.99991   0.25290   0.47883   0.00000  Uiso   1.00
C802   C     0.74809   0.00001   0.52158   0.00000  Uiso   1.00
C803   C     0.99280   0.28182   0.95871   0.00000  Uiso   1.00
C804   C     0.74846   0.49981   0.47888   0.00000  Uiso   1.00
C805   C     0.74997  -0.00000   0.35518   0.00000  Uiso   1.00
C806   C     0.74988   0.49999   0.64494   0.00000  Uiso   1.00
C807   C     0.50000   0.25013   0.35518   0.00000  Uiso   1.00
C808   C     0.50000   0.25006   0.64494   0.00000  Uiso   1.00
C809   C     0.99996   0.24999   0.85520   0.00000  Uiso   1.00
C810   C     0.50004   0.24999   0.14495   0.00000  Uiso   1.00
C811   C     0.75000   0.00000   0.85520   0.00000  Uiso   1.00
C812   C     0.75001   0.00000   0.14497   0.00000  Uiso   1.00
C813   C     0.68000   0.07011   0.24996   0.00000  Uiso   1.00
C814   C     0.77314   0.47570   0.04244   0.00000  Uiso   1.00
C815   C     0.81980   0.42969   0.75029   0.00000  Uiso   1.00
C816   C     0.92988   0.18000   0.24997   0.00000  Uiso   1.00
C817   C     0.57034   0.31977   0.75033   0.00000  Uiso   1.00
C818   C     0.81998   0.42987   0.24992   0.00000  Uiso   1.00
C819   C     0.68020   0.07031   0.75030   0.00000  Uiso   1.00
C820   C     0.57013   0.31998   0.24996   0.00000  Uiso   1.00
C821   C     0.92970   0.18021   0.75028   0.00000  Uiso   1.00
C822   C     0.67987   0.43001   0.74995   0.00000  Uiso   1.00
C823   C     0.82029   0.06981   0.25026   0.00000  Uiso   1.00
C824   C     0.93008   0.32019   0.74984   0.00000  Uiso   1.00
C825   C     0.71710   0.49424   0.95833   0.00000  Uiso   1.00
C826   C     0.56980   0.17970   0.25029   0.00000  Uiso   1.00
C827   C     0.82013   0.06998   0.74995   0.00000  Uiso   1.00
C828   C     0.67970   0.43020   0.25028   0.00000  Uiso   1.00
C829   C     0.56999   0.17987   0.74992   0.00000  Uiso   1.00
C830   C     0.93016   0.32026   0.25024   0.00000  Uiso   1.00
C831   C     0.62623   0.40048   0.21961   0.00000  Uiso   1.00
C832   C     0.87259   0.10070   0.78167   0.00000  Uiso   1.00
C833   C     0.59925   0.12599   0.21982   0.00000  Uiso   1.00
C834   C     0.90036   0.37363   0.78068   0.00000  Uiso   1.00
C835   C     0.87348   0.09978   0.21933   0.00000  Uiso   1.00
C836   C     0.52393   0.27366   0.04230   0.00000  Uiso   1.00
C837   C     0.62707   0.39964   0.78142   0.00000  Uiso   1.00
C838   C     0.90040   0.37362   0.21943   0.00000  Uiso   1.00
C839   C     0.60020   0.12699   0.78124   0.00000  Uiso   1.00
C840   C     0.62849   0.10174   0.78241   0.00000  Uiso   1.00
C841   C     0.87219   0.39893   0.21830   0.00000  Uiso   1.00
C842   C     0.60185   0.37132   0.78259   0.00000  Uiso   1.00
C843   C     0.89877   0.12799   0.21827   0.00000  Uiso   1.00
C844   C     0.87200   0.39875   0.78199   0.00000  Uiso   1.00
C845   C     0.62749   0.10075   0.21864   0.00000  Uiso   1.00
C846   C     0.89783   0.12901   0.78277   0.00000  Uiso   1.00
C847   C     0.50886   0.21720   0.95814   0.00000  Uiso   1.00
C848   C     0.60100   0.37223   0.21846   0.00000  Uiso   1.00
C849   C     0.87619   0.15051   0.71964   0.00000  Uiso   1.00
C850   C     0.62253   0.35073   0.28171   0.00000  Uiso   1.00
C851   C     0.84884   0.37554   0.72018   0.00000  Uiso   1.00
C852   C     0.64940   0.12265   0.28161   0.00000  Uiso   1.00
C853   C     0.62439   0.34891   0.72018   0.00000  Uiso   1.00
C854   C     0.87781   0.14891   0.28199   0.00000  Uiso   1.00
C855   C     0.65106   0.12429   0.72007   0.00000  Uiso   1.00
C856   C     0.85063   0.37742   0.28157   0.00000  Uiso   1.00
C857   C     0.87887   0.35211   0.28262   0.00000  Uiso   1.00
C858   C     0.97558   0.27477   0.54280   0.00000  Uiso   1.00
C859   C     0.62281   0.14953   0.71882   0.00000  Uiso   1.00
C860   C     0.85253   0.12062   0.28302   0.00000  Uiso   1.00
C861   C     0.64957   0.37720   0.71889   0.00000  Uiso   1.00
C862   C     0.62116   0.14797   0.28269   0.00000  Uiso   1.00
C863   C     0.87715   0.35039   0.71882   0.00000  Uiso   1.00
C864   C     0.64783   0.37900   0.28278   0.00000  Uiso   1.00
C865   C     0.85098   0.12225   0.71848   0.00000  Uiso   1.00
C866   C     0.59829   0.34797   0.25002   0.00000  Uiso   1.00
C867   C     0.90098   0.15279   0.75083   0.00000  Uiso   1.00
C868   C     0.65198   0.09824   0.25004   0.00000  Uiso   1.00
H869   H     0.70794   0.04028   0.09851   0.00000  Uiso   1.00
H870   H     0.55764   0.26169   0.40222   0.00000  Uiso   1.00
H871   H     0.64054   0.11881   0.48801   0.00000  Uiso   1.00
H872   H     0.55705   0.16415   0.48833   0.00000  Uiso   1.00
H873   H     0.51299   0.18323   0.48618   0.00000  Uiso   1.00
H874   H     0.54620   0.14394   0.55772   0.00000  Uiso   1.00
H875   H     0.50002   0.16012   0.55398   0.00000  Uiso   1.00
H876   H     0.98928   0.11803   0.49777   0.00000  Uiso   1.00
H877   H     0.50272   0.09418   0.54129   0.00000  Uiso   1.00
H878   H     0.53528   0.10103   0.50273   0.00000  Uiso   1.00
H879   H     0.90920   0.20501   0.51310   0.00000  Uiso   1.00
H880   H     0.95390   0.19170   0.50002   0.00000  Uiso   1.00
H881   H     0.71130   0.45561   0.59895   0.00000  Uiso   1.00
H882   H     0.88900   0.19718   0.44259   0.00000  Uiso   1.00
H883   H     0.93328   0.17844   0.43211   0.00000  Uiso   1.00
H884   H     0.92296   0.13001   0.48225   0.00000  Uiso   1.00
H885   H     0.88904   0.12938   0.44430   0.00000  Uiso   1.00
H886   H     0.87797   0.14817   0.49127   0.00000  Uiso   1.00
H887   H     0.82043   0.01350   0.48633   0.00000  Uiso   1.00
H888   H     0.83792   0.01577   0.53582   0.00000  Uiso   1.00
H889   H     0.84119   0.07724   0.47506   0.00000  Uiso   1.00
H890   H     0.86008   0.07830   0.52341   0.00000  Uiso   1.00
H891   H     0.90081   0.02579   0.50646   0.00000  Uiso   1.00
H892   H     0.73840   0.05746   0.40242   0.00000  Uiso   1.00
H893   H     0.90764   0.06378   0.47419   0.00000  Uiso   1.00
H894   H     0.88186   0.02503   0.45786   0.00000  Uiso   1.00
H895   H     0.79913   0.40905   0.51207   0.00000  Uiso   1.00
H896   H     0.80609   0.45653   0.50880   0.00000  Uiso   1.00
H897   H     0.81758   0.40094   0.44194   0.00000  Uiso   1.00
H898   H     0.82751   0.44889   0.43921   0.00000  Uiso   1.00
H899   H     0.87333   0.44265   0.49231   0.00000  Uiso   1.00
H900   H     0.88351   0.41346   0.45155   0.00000  Uiso   1.00
H901   H     0.86391   0.39436   0.49506   0.00000  Uiso   1.00
H902   H     0.60223   0.46384   0.22223   0.00000  Uiso   1.00
H903   H     0.54445   0.21310   0.59759   0.00000  Uiso   1.00
H904   H     0.57388   0.43987   0.18747   0.00000  Uiso   1.00
H905   H     0.60695   0.46992   0.13316   0.00000  Uiso   1.00
H906   H     0.58727   0.00278   0.16612   0.00000  Uiso   1.00
H907   H     0.63547   0.49344   0.16789   0.00000  Uiso   1.00
H908   H     0.92389   0.06285   0.81772   0.00000  Uiso   1.00
H909   H     0.89725   0.03746   0.78256   0.00000  Uiso   1.00
H910   H     0.86197   0.00936   0.83645   0.00000  Uiso   1.00
H911   H     0.91011   0.00053   0.84082   0.00000  Uiso   1.00
H912   H     0.88884   0.03430   0.87151   0.00000  Uiso   1.00
H913   H     0.53553   0.10257   0.22315   0.00000  Uiso   1.00
H914   H     0.94227   0.24091   0.40266   0.00000  Uiso   1.00
H915   H     0.55936   0.07350   0.18894   0.00000  Uiso   1.00
H916   H     0.52940   0.10567   0.13400   0.00000  Uiso   1.00
H917   H     0.99645   0.08674   0.16735   0.00000  Uiso   1.00
H918   H     0.50595   0.13489   0.16811   0.00000  Uiso   1.00
H919   H     0.93965   0.42612   0.81261   0.00000  Uiso   1.00
H920   H     0.96377   0.39786   0.77786   0.00000  Uiso   1.00
H921   H     0.99373   0.36493   0.83224   0.00000  Uiso   1.00
H922   H     0.50269   0.41316   0.83401   0.00000  Uiso   1.00
H923   H     0.96996   0.39324   0.86695   0.00000  Uiso   1.00
H924   H     0.89735   0.03630   0.22070   0.00000  Uiso   1.00
H925   H     0.78769   0.04385   0.59777   0.00000  Uiso   1.00
H926   H     0.92539   0.06065   0.18595   0.00000  Uiso   1.00
H927   H     0.89169   0.03139   0.13161   0.00000  Uiso   1.00
H928   H     0.91165   0.49806   0.16380   0.00000  Uiso   1.00
H929   H     0.86349   0.00743   0.16629   0.00000  Uiso   1.00
H930   H     0.57538   0.43800   0.81611   0.00000  Uiso   1.00
H931   H     0.60265   0.46304   0.78121   0.00000  Uiso   1.00
H932   H     0.63709   0.49159   0.83546   0.00000  Uiso   1.00
H933   H     0.58888   0.00045   0.83897   0.00000  Uiso   1.00
H934   H     0.60970   0.46691   0.87028   0.00000  Uiso   1.00
H935   H     0.96406   0.39733   0.22157   0.00000  Uiso   1.00
H936   H     0.76117   0.44254   0.40255   0.00000  Uiso   1.00
H937   H     0.93986   0.42575   0.18708   0.00000  Uiso   1.00
H938   H     0.50258   0.41227   0.16503   0.00000  Uiso   1.00
H939   H     0.99319   0.36411   0.16686   0.00000  Uiso   1.00
H940   H     0.96936   0.39267   0.13243   0.00000  Uiso   1.00
H941   H     0.56158   0.07530   0.81572   0.00000  Uiso   1.00
H942   H     0.53676   0.10259   0.78069   0.00000  Uiso   1.00
H943   H     0.50785   0.13699   0.83470   0.00000  Uiso   1.00
H944   H     0.99906   0.08882   0.83829   0.00000  Uiso   1.00
H945   H     0.53244   0.10977   0.86973   0.00000  Uiso   1.00
H946   H     0.64031   0.12309   0.85191   0.00000  Uiso   1.00
H947   H     0.69829   0.09157   0.99003   0.00000  Uiso   1.00
H948   H     0.68090   0.10212   0.83171   0.00000  Uiso   1.00
H949   H     0.66852   0.04644   0.87039   0.00000  Uiso   1.00
H950   H     0.67275   0.08610   0.90100   0.00000  Uiso   1.00
H951   H     0.62829   0.06741   0.89064   0.00000  Uiso   1.00
H952   H     0.82167   0.40813   0.16029   0.00000  Uiso   1.00
H953   H     0.85822   0.37580   0.15318   0.00000  Uiso   1.00
H954   H     0.89185   0.42045   0.11305   0.00000  Uiso   1.00
H955   H     0.84722   0.41114   0.09350   0.00000  Uiso   1.00
H956   H     0.85559   0.45308   0.11938   0.00000  Uiso   1.00
H957   H     0.62343   0.35833   0.85168   0.00000  Uiso   1.00
H958   H     0.74136   0.07032   0.98808   0.00000  Uiso   1.00
H959   H     0.60166   0.31831   0.83122   0.00000  Uiso   1.00
H960   H     0.54629   0.33133   0.87069   0.00000  Uiso   1.00
H961   H     0.58625   0.32573   0.90061   0.00000  Uiso   1.00
H962   H     0.56850   0.37073   0.89134   0.00000  Uiso   1.00
H963   H     0.90838   0.17973   0.16156   0.00000  Uiso   1.00
H964   H     0.87497   0.14419   0.15417   0.00000  Uiso   1.00
H965   H     0.91721   0.11070   0.11173   0.00000  Uiso   1.00
H966   H     0.91031   0.15652   0.09426   0.00000  Uiso   1.00
H967   H     0.95195   0.14469   0.11926   0.00000  Uiso   1.00
H968   H     0.86143   0.37828   0.85217   0.00000  Uiso   1.00
H969   H     0.70923   0.11007   0.05998   0.00000  Uiso   1.00
H970   H     0.82036   0.39823   0.83193   0.00000  Uiso   1.00
H971   H     0.83193   0.45470   0.86939   0.00000  Uiso   1.00
H972   H     0.82878   0.41556   0.90086   0.00000  Uiso   1.00
H973   H     0.87277   0.43496   0.88964   0.00000  Uiso   1.00
H974   H     0.67785   0.09177   0.16104   0.00000  Uiso   1.00
H975   H     0.64072   0.12325   0.15291   0.00000  Uiso   1.00
H976   H     0.60841   0.07718   0.11335   0.00000  Uiso   1.00
H977   H     0.65301   0.08715   0.09405   0.00000  Uiso   1.00
H978   H     0.64531   0.04548   0.12064   0.00000  Uiso   1.00
H979   H     0.87551   0.14319   0.85137   0.00000  Uiso   1.00
H980   H     0.80809   0.00767   0.90257   0.00000  Uiso   1.00
H981   H     0.75462   0.09174   0.05646   0.00000  Uiso   1.00
H982   H     0.89759   0.18279   0.83036   0.00000  Uiso   1.00
H983   H     0.95262   0.17010   0.87063   0.00000  Uiso   1.00
H984   H     0.91240   0.17684   0.89989   0.00000  Uiso   1.00
H985   H     0.92978   0.13145   0.89206   0.00000  Uiso   1.00
H986   H     0.59155   0.32097   0.16141   0.00000  Uiso   1.00
H987   H     0.62444   0.35696   0.15386   0.00000  Uiso   1.00
H988   H     0.58115   0.39019   0.11226   0.00000  Uiso   1.00
H989   H     0.58887   0.34468   0.09425   0.00000  Uiso   1.00
H990   H     0.54719   0.35539   0.11972   0.00000  Uiso   1.00
H991   H     0.85209   0.21379   0.72267   0.00000  Uiso   1.00
H992   H     0.76803   0.13419   0.00122   0.00000  Uiso   1.00
H993   H     0.82367   0.18995   0.68786   0.00000  Uiso   1.00
H994   H     0.85655   0.22031   0.63363   0.00000  Uiso   1.00
H995   H     0.83693   0.25298   0.66684   0.00000  Uiso   1.00
H996   H     0.88515   0.24367   0.66842   0.00000  Uiso   1.00
H997   H     0.67362   0.31281   0.31813   0.00000  Uiso   1.00
H998   H     0.64705   0.28742   0.28292   0.00000  Uiso   1.00
H999   H     0.61151   0.25944   0.33668   0.00000  Uiso   1.00
H1000  H     0.65963   0.25067   0.34145   0.00000  Uiso   1.00
H1001  H     0.63813   0.28454   0.37184   0.00000  Uiso   1.00
H1002  H     0.78537   0.35190   0.72583   0.00000  Uiso   1.00
H1003  H     0.75532   0.15792   0.04507   0.00000  Uiso   1.00
H1004  H     0.80858   0.32219   0.69176   0.00000  Uiso   1.00
H1005  H     0.74512   0.33460   0.67151   0.00000  Uiso   1.00
H1006  H     0.75440   0.38281   0.67087   0.00000  Uiso   1.00
H1007  H     0.77717   0.35299   0.63683   0.00000  Uiso   1.00
H1008  H     0.68761   0.17381   0.31751   0.00000  Uiso   1.00
H1009  H     0.71290   0.14695   0.28246   0.00000  Uiso   1.00
H1010  H     0.74095   0.11179   0.33645   0.00000  Uiso   1.00
H1011  H     0.74977   0.15989   0.34089   0.00000  Uiso   1.00
H1012  H     0.71588   0.13863   0.37145   0.00000  Uiso   1.00
H1013  H     0.64799   0.28545   0.72521   0.00000  Uiso   1.00
H1014  H     0.72288   0.15334   0.00603   0.00000  Uiso   1.00
H1015  H     0.67754   0.30875   0.69105   0.00000  Uiso   1.00
H1016  H     0.64628   0.27771   0.63616   0.00000  Uiso   1.00
H1017  H     0.66483   0.24547   0.67051   0.00000  Uiso   1.00
H1018  H     0.61660   0.25486   0.67030   0.00000  Uiso   1.00
H1019  H     0.82706   0.18631   0.31959   0.00000  Uiso   1.00
H1020  H     0.85314   0.21213   0.28431   0.00000  Uiso   1.00
H1021  H     0.88925   0.23966   0.33793   0.00000  Uiso   1.00
H1022  H     0.84117   0.24827   0.34344   0.00000  Uiso   1.00
H1023  H     0.86307   0.21415   0.37313   0.00000  Uiso   1.00
H1024  H     0.71480   0.14755   0.72468   0.00000  Uiso   1.00
H1025  H     0.84417   0.04221   0.01219   0.00000  Uiso   1.00
H1026  H     0.69135   0.17718   0.69077   0.00000  Uiso   1.00
H1027  H     0.75447   0.16429   0.66966   0.00000  Uiso   1.00
H1028  H     0.74496   0.11613   0.66940   0.00000  Uiso   1.00
H1029  H     0.72189   0.14591   0.63556   0.00000  Uiso   1.00
H1030  H     0.81256   0.32639   0.31802   0.00000  Uiso   1.00
H1031  H     0.78729   0.35291   0.28269   0.00000  Uiso   1.00
H1032  H     0.75909   0.38849   0.33624   0.00000  Uiso   1.00
H1033  H     0.75035   0.34042   0.34120   0.00000  Uiso   1.00
H1034  H     0.78415   0.36207   0.37158   0.00000  Uiso   1.00
H1035  H     0.89214   0.37403   0.35164   0.00000  Uiso   1.00
H1036  H     0.79949   0.05730   0.00164   0.00000  Uiso   1.00
H1037  H     0.93217   0.35250   0.33086   0.00000  Uiso   1.00
H1038  H     0.91991   0.29724   0.37042   0.00000  Uiso   1.00
H1039  H     0.92519   0.33717   0.40045   0.00000  Uiso   1.00
H1040  H     0.88033   0.31891   0.39130   0.00000  Uiso   1.00
H1041  H     0.57351   0.15897   0.66015   0.00000  Uiso   1.00
H1042  H     0.61089   0.12768   0.65257   0.00000  Uiso   1.00
H1043  H     0.64402   0.17457   0.61462   0.00000  Uiso   1.00
H1044  H     0.60015   0.16409   0.59381   0.00000  Uiso   1.00
H1045  H     0.60644   0.20567   0.62094   0.00000  Uiso   1.00
H1046  H     0.87546   0.10565   0.35113   0.00000  Uiso   1.00
H1047  H     0.86151   0.05046   0.94077   0.00000  Uiso   1.00
H1048  H     0.85300   0.06633   0.33001   0.00000  Uiso   1.00
H1049  H     0.79847   0.07882   0.37113   0.00000  Uiso   1.00
H1050  H     0.83899   0.07184   0.39985   0.00000  Uiso   1.00
H1051  H     0.82161   0.11730   0.39258   0.00000  Uiso   1.00
H1052  H     0.65909   0.42624   0.65974   0.00000  Uiso   1.00
H1053  H     0.62762   0.38893   0.65271   0.00000  Uiso   1.00
H1054  H     0.67431   0.35528   0.61495   0.00000  Uiso   1.00
H1055  H     0.66391   0.39892   0.59368   0.00000  Uiso   1.00
H1056  H     0.70558   0.39280   0.62070   0.00000  Uiso   1.00
H1057  H     0.60828   0.12637   0.35181   0.00000  Uiso   1.00
H1058  H     0.81764   0.07124   0.93311   0.00000  Uiso   1.00
H1059  H     0.56813   0.14802   0.33147   0.00000  Uiso   1.00
H1060  H     0.58085   0.20326   0.37094   0.00000  Uiso   1.00
H1061  H     0.57604   0.16333   0.40104   0.00000  Uiso   1.00
H1062  H     0.62075   0.18160   0.39115   0.00000  Uiso   1.00
H1063  H     0.92627   0.34066   0.65975   0.00000  Uiso   1.00
H1064  H     0.88909   0.37228   0.65272   0.00000  Uiso   1.00
H1065  H     0.85526   0.32582   0.61484   0.00000  Uiso   1.00
H1066  H     0.89902   0.33611   0.59364   0.00000  Uiso   1.00
H1067  H     0.89269   0.29444   0.62054   0.00000  Uiso   1.00
H1068  H     0.62582   0.39225   0.35166   0.00000  Uiso   1.00
H1069  H     0.83242   0.11803   0.98398   0.00000  Uiso   1.00
H1070  H     0.64766   0.43225   0.33126   0.00000  Uiso   1.00
H1071  H     0.70273   0.41955   0.37111   0.00000  Uiso   1.00
H1072  H     0.66261   0.42473   0.40093   0.00000  Uiso   1.00
H1073  H     0.68075   0.37992   0.39148   0.00000  Uiso   1.00
H1074  H     0.84154   0.07099   0.66159   0.00000  Uiso   1.00
H1075  H     0.87427   0.10709   0.65374   0.00000  Uiso   1.00
H1076  H     0.83082   0.13998   0.61215   0.00000  Uiso   1.00
H1077  H     0.83838   0.09436   0.59437   0.00000  Uiso   1.00
H1078  H     0.79686   0.10528   0.62006   0.00000  Uiso   1.00
H1079  H     0.86423   0.11828   0.94397   0.00000  Uiso   1.00
H1080  H     0.96124   0.20655   0.09821   0.00000  Uiso   1.00
H1081  H     0.87703   0.09793   0.98967   0.00000  Uiso   1.00
H1082  H     0.92769   0.23739   0.98918   0.00000  Uiso   1.00
H1083  H     0.91038   0.23137   0.03836   0.00000  Uiso   1.00
H1084  H     0.90925   0.17356   0.97348   0.00000  Uiso   1.00
H1085  H     0.89045   0.16897   0.02161   0.00000  Uiso   1.00
H1086  H     0.84762   0.22057   0.00825   0.00000  Uiso   1.00
H1087  H     0.84242   0.18446   0.97325   0.00000  Uiso   1.00
H1088  H     0.86659   0.22518   0.95987   0.00000  Uiso   1.00
H1089  H     0.94170   0.29648   0.00946   0.00000  Uiso   1.00
H1090  H     0.93203   0.31286   0.96058   0.00000  Uiso   1.00
H1091  H     0.98770   0.30711   0.90308   0.00000  Uiso   1.00
H1092  H     0.95871   0.35918   0.02966   0.00000  Uiso   1.00
H1093  H     0.94864   0.37556   0.98144   0.00000  Uiso   1.00
H1094  H     0.88386   0.35528   0.98893   0.00000  Uiso   1.00
H1095  H     0.89698   0.38665   0.02673   0.00000  Uiso   1.00
H1096  H     0.89403   0.33874   0.03734   0.00000  Uiso   1.00
H1097  H     0.80162   0.40761   0.99064   0.00000  Uiso   1.00
H1098  H     0.75868   0.42907   0.98825   0.00000  Uiso   1.00
H1099  H     0.79022   0.38971   0.06066   0.00000  Uiso   1.00
H1100  H     0.74496   0.40830   0.05680   0.00000  Uiso   1.00
H1101  H     0.73151   0.36552   0.00186   0.00000  Uiso   1.00
H1102  H     0.79219   0.45965   0.09863   0.00000  Uiso   1.00
H1103  H     0.74386   0.34206   0.04597   0.00000  Uiso   1.00
H1104  H     0.77650   0.34609   0.00704   0.00000  Uiso   1.00
H1105  H     0.65566   0.45696   0.01175   0.00000  Uiso   1.00
H1106  H     0.70044   0.44202   0.00139   0.00000  Uiso   1.00
H1107  H     0.63882   0.44904   0.94010   0.00000  Uiso   1.00
H1108  H     0.68276   0.42832   0.93269   0.00000  Uiso   1.00
H1109  H     0.66761   0.38136   0.98326   0.00000  Uiso   1.00
H1110  H     0.63620   0.38118   0.94292   0.00000  Uiso   1.00
H1111  H     0.62292   0.40136   0.98857   0.00000  Uiso   1.00
H1112  H     0.57298   0.26385   0.98612   0.00000  Uiso   1.00
H1113  H     0.69189   0.49221   0.90254   0.00000  Uiso   1.00
H1114  H     0.59066   0.26521   0.03559   0.00000  Uiso   1.00
H1115  H     0.59362   0.32768   0.97598   0.00000  Uiso   1.00
H1116  H     0.61246   0.32818   0.02436   0.00000  Uiso   1.00
H1117  H     0.65354   0.27620   0.00665   0.00000  Uiso   1.00
H1118  H     0.66013   0.31465   0.97494   0.00000  Uiso   1.00
H1119  H     0.63462   0.27593   0.95802   0.00000  Uiso   1.00
H1120  H     0.55162   0.15875   0.01123   0.00000  Uiso   1.00
H1121  H     0.55976   0.20593   0.00602   0.00000  Uiso   1.00
H1122  H     0.56729   0.14821   0.94060   0.00000  Uiso   1.00
H1123  H     0.57863   0.19572   0.93609   0.00000  Uiso   1.00
H1124  H     0.53952   0.29320   0.09849   0.00000  Uiso   1.00
H1125  H     0.62604   0.18924   0.98757   0.00000  Uiso   1.00
H1126  H     0.63385   0.15876   0.94730   0.00000  Uiso   1.00
H1127  H     0.61516   0.14138   0.99207   0.00000  Uiso   1.00
H1128  H     0.94219   0.34173   0.49259   0.00000  Uiso   1.00
H1129  H     0.98595   0.32240   0.48800   0.00000  Uiso   1.00
H1130  H     0.95533   0.35919   0.56244   0.00000  Uiso   1.00
H1131  H     0.50128   0.34302   0.55622   0.00000  Uiso   1.00
H1132  H     0.51042   0.38718   0.50160   0.00000  Uiso   1.00
H1133  H     0.99844   0.40941   0.54658   0.00000  Uiso   1.00
H1134  H     0.96467   0.40412   0.50895   0.00000  Uiso   1.00
H1135  H     0.51218   0.19247   0.90215   0.00000  Uiso   1.00
H1136  H     0.59042   0.30276   0.51088   0.00000  Uiso   1.00
H1137  H     0.54540   0.31495   0.49793   0.00000  Uiso   1.00
H1138  H     0.60997   0.30875   0.44011   0.00000  Uiso   1.00
H1139  H     0.56524   0.32605   0.42913   0.00000  Uiso   1.00
H1140  H     0.57455   0.37684   0.47661   0.00000  Uiso   1.00
H1141  H     0.60884   0.37639   0.43907   0.00000  Uiso   1.00
H1142  H     0.61974   0.35983   0.48701   0.00000  Uiso   1.00
H1143  H     0.66058   0.44079   0.49057   0.00000  Uiso   1.00
H1144  H     0.67907   0.48497   0.48687   0.00000  Uiso   1.00
H1145  H     0.64097   0.45310   0.55990   0.00000  Uiso   1.00
H1146  H     0.95562   0.28868   0.59927   0.00000  Uiso   1.00
H1147  H     0.65649   0.49934   0.55463   0.00000  Uiso   1.00
H1148  H     0.61358   0.00812   0.49877   0.00000  Uiso   1.00
H1149  H     0.59037   0.49533   0.54293   0.00000  Uiso   1.00
H1150  H     0.59730   0.46203   0.50514   0.00000  Uiso   1.00
H1151  H     0.69773   0.08946   0.51153   0.00000  Uiso   1.00
H1152  H     0.68574   0.04458   0.49788   0.00000  Uiso   1.00
H1153  H     0.69172   0.10981   0.44100   0.00000  Uiso   1.00
H1154  H     0.67459   0.06517   0.42941   0.00000  Uiso   1.00
H1155  H     0.62372   0.07369   0.47700   0.00000  Uiso   1.00
H1156  H     0.62402   0.10837   0.43992   0.00000  Uiso   1.00
O1157  O     0.75000  -0.00000   0.25000   0.00000  Uiso   1.00
O1158  O     0.75000   0.46964   0.66317   0.00000  Uiso   1.00
O1159  O     0.82760   0.12003   0.68704   0.00000  Uiso   1.00
O1160  O     0.96964   0.25000   0.33683   0.00000  Uiso   1.00
O1161  O     0.53036   0.25000   0.66317   0.00000  Uiso   1.00
O1162  O     0.50000   0.21964   0.83683   0.00000  Uiso   1.00
O1163  O     0.50000   0.28036   0.16317   0.00000  Uiso   1.00
O1164  O     0.78036  -0.00000   0.83683   0.00000  Uiso   1.00
O1165  O     0.71964  -0.00000   0.16317   0.00000  Uiso   1.00
O1166  O     0.50000   0.28036   0.83683   0.00000  Uiso   1.00
O1167  O     0.50000   0.21964   0.16317   0.00000  Uiso   1.00
O1168  O     0.71964  -0.00000   0.83683   0.00000  Uiso   1.00
O1169  O     0.75000  -0.00000   0.75000   0.00000  Uiso   1.00
O1170  O     0.78036  -0.00000   0.16317   0.00000  Uiso   1.00
O1171  O     0.70725   0.07307   0.27282   0.00000  Uiso   1.00
O1172  O     0.79274   0.42693   0.72718   0.00000  Uiso   1.00
O1173  O     0.92693   0.20725   0.27282   0.00000  Uiso   1.00
O1174  O     0.57307   0.29274   0.72718   0.00000  Uiso   1.00
O1175  O     0.79274   0.42693   0.27282   0.00000  Uiso   1.00
O1176  O     0.70725   0.07307   0.72718   0.00000  Uiso   1.00
O1177  O     0.57307   0.29274   0.27282   0.00000  Uiso   1.00
O1178  O     0.92693   0.20725   0.72718   0.00000  Uiso   1.00
O1179  O     0.70725   0.42693   0.72718   0.00000  Uiso   1.00
O1180  O     0.50000   0.25000   0.25000   0.00000  Uiso   1.00
O1181  O     0.79274   0.07307   0.27282   0.00000  Uiso   1.00
O1182  O     0.92693   0.29274   0.72718   0.00000  Uiso   1.00
O1183  O     0.57307   0.20725   0.27282   0.00000  Uiso   1.00
O1184  O     0.79274   0.07307   0.72718   0.00000  Uiso   1.00
O1185  O     0.70725   0.42693   0.27282   0.00000  Uiso   1.00
O1186  O     0.57307   0.20725   0.72718   0.00000  Uiso   1.00
O1187  O     0.92693   0.29274   0.27282   0.00000  Uiso   1.00
O1188  O     0.95725   0.32307   0.77282   0.00000  Uiso   1.00
O1189  O     0.54274   0.17693   0.22718   0.00000  Uiso   1.00
O1190  O     0.67693   0.45725   0.77282   0.00000  Uiso   1.00
O1191  O     0.50000   0.25000   0.75000   0.00000  Uiso   1.00
O1192  O     0.82307   0.04274   0.22718   0.00000  Uiso   1.00
O1193  O     0.54274   0.17693   0.77282   0.00000  Uiso   1.00
O1194  O     0.95725   0.32307   0.22718   0.00000  Uiso   1.00
O1195  O     0.82307   0.04274   0.77282   0.00000  Uiso   1.00
O1196  O     0.67693   0.45725   0.22718   0.00000  Uiso   1.00
O1197  O     0.95725   0.17693   0.22718   0.00000  Uiso   1.00
O1198  O     0.54274   0.32307   0.77282   0.00000  Uiso   1.00
O1199  O     0.67693   0.04274   0.22718   0.00000  Uiso   1.00
O1200  O     0.82307   0.45725   0.77282   0.00000  Uiso   1.00
O1201  O     0.54274   0.32307   0.22718   0.00000  Uiso   1.00
O1202  O     0.75000   0.46964   0.33683   0.00000  Uiso   1.00
O1203  O     0.95725   0.17693   0.77282   0.00000  Uiso   1.00
O1204  O     0.82307   0.45725   0.22718   0.00000  Uiso   1.00
O1205  O     0.67693   0.04274   0.77282   0.00000  Uiso   1.00
O1206  O     0.70186   0.04643   0.02415   0.00000  Uiso   1.00
O1207  O     0.81618   0.00746   0.97708   0.00000  Uiso   1.00
O1208  O     0.95607   0.20049   0.02315   0.00000  Uiso   1.00
O1209  O     0.98652   0.31419   0.97806   0.00000  Uiso   1.00
O1210  O     0.79810   0.45307   0.02430   0.00000  Uiso   1.00
O1211  O     0.68381   0.49194   0.97706   0.00000  Uiso   1.00
O1212  O     0.54591   0.29871   0.02358   0.00000  Uiso   1.00
O1213  O     0.75000   0.03036   0.66317   0.00000  Uiso   1.00
O1214  O     0.51449   0.18418   0.97657   0.00000  Uiso   1.00
O1215  O     0.94913   0.29603   0.52519   0.00000  Uiso   1.00
O1216  O     0.56542   0.26492   0.47680   0.00000  Uiso   1.00
O1217  O     0.70529   0.44850   0.52460   0.00000  Uiso   1.00
O1218  O     0.73576   0.06511   0.47711   0.00000  Uiso   1.00
O1219  O     0.55083   0.20855   0.52317   0.00000  Uiso   1.00
O1220  O     0.93432   0.24132   0.47729   0.00000  Uiso   1.00
O1221  O     0.79325   0.04910   0.52290   0.00000  Uiso   1.00
O1222  O     0.76243   0.43453   0.47693   0.00000  Uiso   1.00
O1223  O     0.62836   0.42415   0.18839   0.00000  Uiso   1.00
O1224  O     0.53036   0.25000   0.33683   0.00000  Uiso   1.00
O1225  O     0.86937   0.07794   0.81355   0.00000  Uiso   1.00
O1226  O     0.57533   0.12789   0.18877   0.00000  Uiso   1.00
O1227  O     0.92424   0.37160   0.81176   0.00000  Uiso   1.00
O1228  O     0.87095   0.07648   0.18781   0.00000  Uiso   1.00
O1229  O     0.62992   0.42277   0.81306   0.00000  Uiso   1.00
O1230  O     0.92401   0.37133   0.18812   0.00000  Uiso   1.00
O1231  O     0.57696   0.12977   0.81281   0.00000  Uiso   1.00
O1232  O     0.63160   0.07916   0.81441   0.00000  Uiso   1.00
O1233  O     0.87005   0.42245   0.18698   0.00000  Uiso   1.00
O1234  O     0.57935   0.36809   0.81469   0.00000  Uiso   1.00
O1235  O     0.96964   0.25000   0.66317   0.00000  Uiso   1.00
O1236  O     0.92193   0.13047   0.18666   0.00000  Uiso   1.00
O1237  O     0.86922   0.42164   0.81378   0.00000  Uiso   1.00
O1238  O     0.62941   0.07704   0.18745   0.00000  Uiso   1.00
O1239  O     0.91994   0.13266   0.81510   0.00000  Uiso   1.00
O1240  O     0.57766   0.36996   0.18699   0.00000  Uiso   1.00
O1241  O     0.87817   0.17430   0.68851   0.00000  Uiso   1.00
O1242  O     0.61917   0.32806   0.31367   0.00000  Uiso   1.00
O1243  O     0.82419   0.37665   0.68976   0.00000  Uiso   1.00
O1244  O     0.67220   0.11941   0.31349   0.00000  Uiso   1.00
O1245  O     0.62307   0.32449   0.68956   0.00000  Uiso   1.00
O1246  O     0.75000   0.03036   0.33683   0.00000  Uiso   1.00
O1247  O     0.88150   0.17126   0.31417   0.00000  Uiso   1.00
O1248  O     0.67539   0.12280   0.68935   0.00000  Uiso   1.00
O1249  O     0.82792   0.38077   0.31352   0.00000  Uiso   1.00
O1250  O     0.88235   0.32985   0.31484   0.00000  Uiso   1.00
O1251  O     0.62127   0.17360   0.68794   0.00000  Uiso   1.00
O1252  O     0.83069   0.11666   0.31553   0.00000  Uiso   1.00
O1253  O     0.67367   0.37876   0.68801   0.00000  Uiso   1.00
O1254  O     0.61784   0.17044   0.31478   0.00000  Uiso   1.00
O1255  O     0.87864   0.32627   0.68797   0.00000  Uiso   1.00
O1256  O     0.67015   0.38249   0.31497   0.00000  Uiso   1.00
Zn1257 Zn    0.70660  -0.00000   0.21760   0.00000  Uiso   1.00
Zn1258 Zn    0.54340   0.25000   0.28240   0.00000  Uiso   1.00
Zn1259 Zn    0.75000   0.45660   0.71760   0.00000  Uiso   1.00
Zn1260 Zn    0.75000   0.04340   0.28240   0.00000  Uiso   1.00
Zn1261 Zn    0.54340   0.25000   0.71760   0.00000  Uiso   1.00
Zn1262 Zn    0.95660   0.25000   0.28240   0.00000  Uiso   1.00
Zn1263 Zn    0.75000   0.04340   0.71760   0.00000  Uiso   1.00
Zn1264 Zn    0.75000   0.45660   0.28240   0.00000  Uiso   1.00
Zn1265 Zn    0.79340  -0.00000   0.78240   0.00000  Uiso   1.00
Zn1266 Zn    0.50000   0.20660   0.21760   0.00000  Uiso   1.00
Zn1267 Zn    0.50000   0.29340   0.78240   0.00000  Uiso   1.00
Zn1268 Zn    0.79340  -0.00000   0.21760   0.00000  Uiso   1.00
Zn1269 Zn    0.70660  -0.00000   0.78240   0.00000  Uiso   1.00
Zn1270 Zn    0.50000   0.29340   0.21760   0.00000  Uiso   1.00
Zn1271 Zn    0.50000   0.20660   0.78240   0.00000  Uiso   1.00
Zn1272 Zn    0.95660   0.25000   0.71760   0.00000  Uiso   1.00
C1273  C     0.22688   0.52392   0.04236   0.00000  Uiso   1.00
C1274  C     0.03243   0.75997   0.45808   0.00000  Uiso   1.00
C1275  C     0.34730   0.90105   0.75076   0.00000  Uiso   1.00
C1276  C     0.40175   0.65198   0.25006   0.00000  Uiso   1.00
C1277  C     0.09911   0.84712   0.75096   0.00000  Uiso   1.00
C1278  C     0.34794   0.90169   0.24991   0.00000  Uiso   1.00
C1279  C     0.15279   0.59902   0.75085   0.00000  Uiso   1.00
C1280  C     0.09798   0.65172   0.74995   0.00000  Uiso   1.00
C1281  C     0.40268   0.84891   0.25069   0.00000  Uiso   1.00
C1282  C     0.15174   0.90199   0.75004   0.00000  Uiso   1.00
C1283  C     0.34902   0.59720   0.25080   0.00000  Uiso   1.00
C1284  C     0.40223   0.84847   0.74974   0.00000  Uiso   1.00
C1285  C     0.22577   0.97539   0.54253   0.00000  Uiso   1.00
C1286  C     0.09720   0.65097   0.25087   0.00000  Uiso   1.00
C1287  C     0.34831   0.59795   0.75000   0.00000  Uiso   1.00
C1288  C     0.15100   0.90277   0.25083   0.00000  Uiso   1.00
C1289  C     0.25003   0.99995   0.10286   0.00000  Uiso   1.00
C1290  C     0.24999   0.99994   0.89763   0.00000  Uiso   1.00
C1291  C     0.00033   0.74991   0.10278   0.00000  Uiso   1.00
C1292  C     0.00015   0.74987   0.89766   0.00000  Uiso   1.00
C1293  C     0.00001   0.75077   0.60279   0.00000  Uiso   1.00
C1294  C     0.49999   0.75101   0.39757   0.00000  Uiso   1.00
C1295  C     0.24927   0.99999   0.60277   0.00000  Uiso   1.00
C1296  C     0.24092   0.53224   0.45823   0.00000  Uiso   1.00
C1297  C     0.24959   0.99997   0.39759   0.00000  Uiso   1.00
C1298  C     0.21893   0.57749   0.00818   0.00000  Uiso   1.00
C1299  C     0.23196   0.60408   0.03968   0.00000  Uiso   1.00
C1300  C     0.24536   0.63956   0.02177   0.00000  Uiso   1.00
C1301  C     0.32351   0.54358   0.98869   0.00000  Uiso   1.00
C1302  C     0.33922   0.56595   0.95498   0.00000  Uiso   1.00
C1303  C     0.35413   0.60230   0.96915   0.00000  Uiso   1.00
C1304  C     0.42300   0.71743   0.01289   0.00000  Uiso   1.00
C1305  C     0.39654   0.68863   0.99797   0.00000  Uiso   1.00
C1306  C     0.36112   0.70588   0.98401   0.00000  Uiso   1.00
C1307  C     0.02460   0.72934   0.54179   0.00000  Uiso   1.00
C1308  C     0.44916   0.81689   0.98700   0.00000  Uiso   1.00
C1309  C     0.44151   0.85468   0.00351   0.00000  Uiso   1.00
C1310  C     0.40158   0.85899   0.01479   0.00000  Uiso   1.00
C1311  C     0.28096   0.92195   0.00854   0.00000  Uiso   1.00
C1312  C     0.26762   0.89569   0.04022   0.00000  Uiso   1.00
C1313  C     0.25405   0.86015   0.02255   0.00000  Uiso   1.00
C1314  C     0.17647   0.95575   0.98837   0.00000  Uiso   1.00
C1315  C     0.16101   0.93351   0.95442   0.00000  Uiso   1.00
C1316  C     0.14603   0.89710   0.96827   0.00000  Uiso   1.00
C1317  C     0.07839   0.78157   0.01162   0.00000  Uiso   1.00
C1318  C     0.46736   0.74528   0.45840   0.00000  Uiso   1.00
C1319  C     0.10578   0.81050   0.99915   0.00000  Uiso   1.00
C1320  C     0.14065   0.79315   0.98376   0.00000  Uiso   1.00
C1321  C     0.05078   0.68140   0.98990   0.00000  Uiso   1.00
C1322  C     0.07720   0.67249   0.95664   0.00000  Uiso   1.00
C1323  C     0.11541   0.66501   0.97199   0.00000  Uiso   1.00
C1324  C     0.46417   0.82818   0.50935   0.00000  Uiso   1.00
C1325  C     0.47737   0.85466   0.54089   0.00000  Uiso   1.00
C1326  C     0.48839   0.89109   0.52329   0.00000  Uiso   1.00
C1327  C     0.07049   0.80190   0.48663   0.00000  Uiso   1.00
C1328  C     0.08613   0.82344   0.45227   0.00000  Uiso   1.00
C1329  C     0.27112   0.52436   0.54192   0.00000  Uiso   1.00
C1330  C     0.09801   0.86148   0.46465   0.00000  Uiso   1.00
C1331  C     0.17324   0.96293   0.50788   0.00000  Uiso   1.00
C1332  C     0.14568   0.97538   0.53872   0.00000  Uiso   1.00
C1333  C     0.10951   0.98585   0.52011   0.00000  Uiso   1.00
C1334  C     0.19872   0.56985   0.48699   0.00000  Uiso   1.00
C1335  C     0.17711   0.58579   0.45283   0.00000  Uiso   1.00
C1336  C     0.13899   0.59734   0.46535   0.00000  Uiso   1.00
C1337  C     0.03552   0.67690   0.50644   0.00000  Uiso   1.00
C1338  C     0.02345   0.64919   0.53726   0.00000  Uiso   1.00
C1339  C     0.01199   0.61341   0.51847   0.00000  Uiso   1.00
C1340  C     0.25675   0.96748   0.45836   0.00000  Uiso   1.00
C1341  C     0.42887   0.70478   0.48858   0.00000  Uiso   1.00
C1342  C     0.41256   0.68240   0.45522   0.00000  Uiso   1.00
C1343  C     0.39988   0.64518   0.46926   0.00000  Uiso   1.00
C1344  C     0.32576   0.53170   0.51146   0.00000  Uiso   1.00
C1345  C     0.35328   0.56032   0.49849   0.00000  Uiso   1.00
C1346  C     0.38802   0.54254   0.48334   0.00000  Uiso   1.00
C1347  C     0.29836   0.93230   0.49150   0.00000  Uiso   1.00
C1348  C     0.32614   0.92511   0.45903   0.00000  Uiso   1.00
C1349  C     0.36405   0.91849   0.47566   0.00000  Uiso   1.00
C1350  C     0.10145   0.95131   0.19270   0.00000  Uiso   1.00
C1351  C     0.22624   0.52258   0.08275   0.00000  Uiso   1.00
C1352  C     0.10822   0.98123   0.16307   0.00000  Uiso   1.00
C1353  C     0.39668   0.55095   0.81160   0.00000  Uiso   1.00
C1354  C     0.38890   0.52198   0.84204   0.00000  Uiso   1.00
C1355  C     0.04803   0.60119   0.19363   0.00000  Uiso   1.00
C1356  C     0.01809   0.60754   0.16387   0.00000  Uiso   1.00
C1357  C     0.45127   0.89863   0.80740   0.00000  Uiso   1.00
C1358  C     0.48128   0.89206   0.83704   0.00000  Uiso   1.00
C1359  C     0.39785   0.54920   0.19136   0.00000  Uiso   1.00
C1360  C     0.39070   0.51968   0.16135   0.00000  Uiso   1.00
C1361  C     0.10272   0.94979   0.81038   0.00000  Uiso   1.00
C1362  C     0.28261   0.50437   0.91796   0.00000  Uiso   1.00
C1363  C     0.11008   0.97900   0.84070   0.00000  Uiso   1.00
C1364  C     0.45128   0.89817   0.19217   0.00000  Uiso   1.00
C1365  C     0.48095   0.89136   0.16221   0.00000  Uiso   1.00
C1366  C     0.04987   0.60264   0.80994   0.00000  Uiso   1.00
C1367  C     0.02048   0.61004   0.84009   0.00000  Uiso   1.00
C1368  C     0.15291   0.59688   0.84282   0.00000  Uiso   1.00
C1369  C     0.15578   0.57267   0.87849   0.00000  Uiso   1.00
C1370  C     0.35152   0.90526   0.15603   0.00000  Uiso   1.00
C1371  C     0.36218   0.92368   0.11811   0.00000  Uiso   1.00
C1372  C     0.09694   0.84623   0.84271   0.00000  Uiso   1.00
C1373  C     0.47860   0.72523   0.08257   0.00000  Uiso   1.00
C1374  C     0.07296   0.84335   0.87860   0.00000  Uiso   1.00
C1375  C     0.40467   0.65010   0.15657   0.00000  Uiso   1.00
C1376  C     0.42216   0.63989   0.11802   0.00000  Uiso   1.00
C1377  C     0.34834   0.90411   0.84270   0.00000  Uiso   1.00
C1378  C     0.34529   0.92890   0.87789   0.00000  Uiso   1.00
C1379  C     0.14799   0.59399   0.15639   0.00000  Uiso   1.00
C1380  C     0.13809   0.57471   0.11874   0.00000  Uiso   1.00
C1381  C     0.40212   0.65507   0.84246   0.00000  Uiso   1.00
C1382  C     0.42575   0.65856   0.87854   0.00000  Uiso   1.00
C1383  C     0.09484   0.85067   0.15657   0.00000  Uiso   1.00
C1384  C     0.28289   0.50527   0.95835   0.00000  Uiso   1.00
C1385  C     0.49331   0.78193   0.91826   0.00000  Uiso   1.00
C1386  C     0.07685   0.86084   0.11829   0.00000  Uiso   1.00
C1387  C     0.35124   0.70140   0.69307   0.00000  Uiso   1.00
C1388  C     0.35789   0.73147   0.66360   0.00000  Uiso   1.00
C1389  C     0.14640   0.80098   0.31192   0.00000  Uiso   1.00
C1390  C     0.13840   0.77211   0.34242   0.00000  Uiso   1.00
C1391  C     0.29719   0.84991   0.69604   0.00000  Uiso   1.00
C1392  C     0.26656   0.85543   0.66694   0.00000  Uiso   1.00
C1393  C     0.19937   0.64654   0.31149   0.00000  Uiso   1.00
C1394  C     0.22829   0.63870   0.34201   0.00000  Uiso   1.00
C1395  C     0.14980   0.79742   0.69547   0.00000  Uiso   1.00
C1396  C     0.27384   0.97725   0.08282   0.00000  Uiso   1.00
C1397  C     0.14400   0.76696   0.66623   0.00000  Uiso   1.00
C1398  C     0.35418   0.69828   0.31313   0.00000  Uiso   1.00
C1399  C     0.36246   0.72687   0.34387   0.00000  Uiso   1.00
C1400  C     0.20262   0.64942   0.69505   0.00000  Uiso   1.00
C1401  C     0.23287   0.64355   0.66553   0.00000  Uiso   1.00
C1402  C     0.30078   0.85360   0.31173   0.00000  Uiso   1.00
C1403  C     0.27179   0.86167   0.34212   0.00000  Uiso   1.00
C1404  C     0.40434   0.84763   0.34260   0.00000  Uiso   1.00
C1405  C     0.40763   0.82372   0.37847   0.00000  Uiso   1.00
C1406  C     0.10347   0.65689   0.65623   0.00000  Uiso   1.00
C1407  C     0.21738   0.99540   0.91794   0.00000  Uiso   1.00
C1408  C     0.11416   0.67657   0.61907   0.00000  Uiso   1.00
C1409  C     0.34871   0.59396   0.34244   0.00000  Uiso   1.00
C1410  C     0.32545   0.59027   0.37879   0.00000  Uiso   1.00
C1411  C     0.15689   0.89627   0.65617   0.00000  Uiso   1.00
C1412  C     0.17643   0.88515   0.61904   0.00000  Uiso   1.00
C1413  C     0.09609   0.65280   0.34287   0.00000  Uiso   1.00
C1414  C     0.09327   0.67678   0.37876   0.00000  Uiso   1.00
C1415  C     0.39630   0.84299   0.65615   0.00000  Uiso   1.00
C1416  C     0.38514   0.82359   0.61896   0.00000  Uiso   1.00
C1417  C     0.15234   0.90436   0.34283   0.00000  Uiso   1.00
C1418  C     0.02248   0.77432   0.08272   0.00000  Uiso   1.00
C1419  C     0.17613   0.90731   0.37886   0.00000  Uiso   1.00
C1420  C     0.34471   0.60069   0.65662   0.00000  Uiso   1.00
C1421  C     0.32652   0.61067   0.61839   0.00000  Uiso   1.00
C1422  C     0.00718   0.71756   0.91775   0.00000  Uiso   1.00
C1423  C     0.47498   0.77246   0.58315   0.00000  Uiso   1.00
C1424  C     0.03231   0.75768   0.41773   0.00000  Uiso   1.00
C1425  C     0.22762   0.97498   0.58294   0.00000  Uiso   1.00
C1426  C     0.24283   0.53219   0.41787   0.00000  Uiso   1.00
C1427  C     0.02513   0.72998   0.58221   0.00000  Uiso   1.00
C1428  C     0.47797   0.72540   0.04213   0.00000  Uiso   1.00
C1429  C     0.46758   0.74558   0.41799   0.00000  Uiso   1.00
C1430  C     0.27049   0.52488   0.58232   0.00000  Uiso   1.00
C1431  C     0.25591   0.96769   0.41795   0.00000  Uiso   1.00
C1432  C     0.24998   0.99975   0.02167   0.00000  Uiso   1.00
C1433  C     0.25000   0.99971   0.97894   0.00000  Uiso   1.00
C1434  C     0.00113   0.74938   0.02165   0.00000  Uiso   1.00
C1435  C     0.00109   0.74945   0.97897   0.00000  Uiso   1.00
C1436  C     0.00014   0.75251   0.52156   0.00000  Uiso   1.00
C1437  C     0.49991   0.75290   0.47883   0.00000  Uiso   1.00
C1438  C     0.24809   0.50001   0.52158   0.00000  Uiso   1.00
C1439  C     0.49280   0.78182   0.95871   0.00000  Uiso   1.00
C1440  C     0.24846   0.99981   0.47888   0.00000  Uiso   1.00
C1441  C     0.24997   0.50000   0.35518   0.00000  Uiso   1.00
C1442  C     0.24988   0.99999   0.64494   0.00000  Uiso   1.00
C1443  C    -0.00000   0.75013   0.35518   0.00000  Uiso   1.00
C1444  C     0.00000   0.75006   0.64494   0.00000  Uiso   1.00
C1445  C     0.49996   0.74999   0.85520   0.00000  Uiso   1.00
C1446  C     0.00004   0.74999   0.14495   0.00000  Uiso   1.00
C1447  C     0.25000   0.50000   0.85520   0.00000  Uiso   1.00
C1448  C     0.25001   0.50000   0.14497   0.00000  Uiso   1.00
C1449  C     0.18000   0.57011   0.24996   0.00000  Uiso   1.00
C1450  C     0.27314   0.97570   0.04244   0.00000  Uiso   1.00
C1451  C     0.31980   0.92969   0.75029   0.00000  Uiso   1.00
C1452  C     0.42988   0.68000   0.24997   0.00000  Uiso   1.00
C1453  C     0.07034   0.81977   0.75033   0.00000  Uiso   1.00
C1454  C     0.31998   0.92987   0.24992   0.00000  Uiso   1.00
C1455  C     0.18020   0.57031   0.75030   0.00000  Uiso   1.00
C1456  C     0.07013   0.81998   0.24996   0.00000  Uiso   1.00
C1457  C     0.42970   0.68021   0.75028   0.00000  Uiso   1.00
C1458  C     0.17987   0.93001   0.74995   0.00000  Uiso   1.00
C1459  C     0.32029   0.56981   0.25026   0.00000  Uiso   1.00
C1460  C     0.43008   0.82019   0.74984   0.00000  Uiso   1.00
C1461  C     0.21710   0.99424   0.95833   0.00000  Uiso   1.00
C1462  C     0.06980   0.67970   0.25029   0.00000  Uiso   1.00
C1463  C     0.32013   0.56998   0.74995   0.00000  Uiso   1.00
C1464  C     0.17970   0.93020   0.25028   0.00000  Uiso   1.00
C1465  C     0.06999   0.67987   0.74992   0.00000  Uiso   1.00
C1466  C     0.43016   0.82026   0.25024   0.00000  Uiso   1.00
C1467  C     0.12623   0.90048   0.21961   0.00000  Uiso   1.00
C1468  C     0.37259   0.60070   0.78167   0.00000  Uiso   1.00
C1469  C     0.09925   0.62599   0.21982   0.00000  Uiso   1.00
C1470  C     0.40036   0.87363   0.78068   0.00000  Uiso   1.00
C1471  C     0.37348   0.59978   0.21933   0.00000  Uiso   1.00
C1472  C     0.02393   0.77366   0.04230   0.00000  Uiso   1.00
C1473  C     0.12707   0.89964   0.78142   0.00000  Uiso   1.00
C1474  C     0.40040   0.87362   0.21943   0.00000  Uiso   1.00
C1475  C     0.10020   0.62699   0.78124   0.00000  Uiso   1.00
C1476  C     0.12849   0.60174   0.78241   0.00000  Uiso   1.00
C1477  C     0.37219   0.89893   0.21830   0.00000  Uiso   1.00
C1478  C     0.10185   0.87132   0.78259   0.00000  Uiso   1.00
C1479  C     0.39877   0.62799   0.21827   0.00000  Uiso   1.00
C1480  C     0.37200   0.89875   0.78199   0.00000  Uiso   1.00
C1481  C     0.12749   0.60075   0.21864   0.00000  Uiso   1.00
C1482  C     0.39783   0.62901   0.78277   0.00000  Uiso   1.00
C1483  C     0.00886   0.71720   0.95814   0.00000  Uiso   1.00
C1484  C     0.10100   0.87223   0.21846   0.00000  Uiso   1.00
C1485  C     0.37619   0.65051   0.71964   0.00000  Uiso   1.00
C1486  C     0.12253   0.85073   0.28171   0.00000  Uiso   1.00
C1487  C     0.34884   0.87554   0.72018   0.00000  Uiso   1.00
C1488  C     0.14940   0.62265   0.28161   0.00000  Uiso   1.00
C1489  C     0.12439   0.84891   0.72018   0.00000  Uiso   1.00
C1490  C     0.37781   0.64891   0.28199   0.00000  Uiso   1.00
C1491  C     0.15106   0.62429   0.72007   0.00000  Uiso   1.00
C1492  C     0.35063   0.87742   0.28157   0.00000  Uiso   1.00
C1493  C     0.37887   0.85211   0.28262   0.00000  Uiso   1.00
C1494  C     0.47558   0.77477   0.54280   0.00000  Uiso   1.00
C1495  C     0.12281   0.64953   0.71882   0.00000  Uiso   1.00
C1496  C     0.35253   0.62062   0.28302   0.00000  Uiso   1.00
C1497  C     0.14957   0.87720   0.71889   0.00000  Uiso   1.00
C1498  C     0.12116   0.64797   0.28269   0.00000  Uiso   1.00
C1499  C     0.37715   0.85039   0.71882   0.00000  Uiso   1.00
C1500  C     0.14783   0.87900   0.28278   0.00000  Uiso   1.00
C1501  C     0.35098   0.62225   0.71848   0.00000  Uiso   1.00
C1502  C     0.09829   0.84797   0.25002   0.00000  Uiso   1.00
C1503  C     0.40098   0.65279   0.75083   0.00000  Uiso   1.00
C1504  C     0.15198   0.59824   0.25004   0.00000  Uiso   1.00
H1505  H     0.20794   0.54028   0.09851   0.00000  Uiso   1.00
H1506  H     0.05764   0.76169   0.40222   0.00000  Uiso   1.00
H1507  H     0.14054   0.61881   0.48801   0.00000  Uiso   1.00
H1508  H     0.05705   0.66415   0.48833   0.00000  Uiso   1.00
H1509  H     0.01299   0.68323   0.48618   0.00000  Uiso   1.00
H1510  H     0.04620   0.64394   0.55772   0.00000  Uiso   1.00
H1511  H     0.00002   0.66012   0.55398   0.00000  Uiso   1.00
H1512  H     0.48928   0.61803   0.49777   0.00000  Uiso   1.00
H1513  H     0.00272   0.59418   0.54129   0.00000  Uiso   1.00
H1514  H     0.03528   0.60103   0.50273   0.00000  Uiso   1.00
H1515  H     0.40920   0.70501   0.51310   0.00000  Uiso   1.00
H1516  H     0.45390   0.69170   0.50002   0.00000  Uiso   1.00
H1517  H     0.21130   0.95561   0.59895   0.00000  Uiso   1.00
H1518  H     0.38900   0.69718   0.44259   0.00000  Uiso   1.00
H1519  H     0.43328   0.67844   0.43211   0.00000  Uiso   1.00
H1520  H     0.42296   0.63001   0.48225   0.00000  Uiso   1.00
H1521  H     0.38904   0.62938   0.44430   0.00000  Uiso   1.00
H1522  H     0.37797   0.64817   0.49127   0.00000  Uiso   1.00
H1523  H     0.32043   0.51350   0.48633   0.00000  Uiso   1.00
H1524  H     0.33792   0.51577   0.53582   0.00000  Uiso   1.00
H1525  H     0.34119   0.57724   0.47506   0.00000  Uiso   1.00
H1526  H     0.36008   0.57830   0.52341   0.00000  Uiso   1.00
H1527  H     0.40081   0.52579   0.50646   0.00000  Uiso   1.00
H1528  H     0.23840   0.55746   0.40242   0.00000  Uiso   1.00
H1529  H     0.40764   0.56378   0.47419   0.00000  Uiso   1.00
H1530  H     0.38186   0.52503   0.45786   0.00000  Uiso   1.00
H1531  H     0.29913   0.90905   0.51207   0.00000  Uiso   1.00
H1532  H     0.30609   0.95653   0.50880   0.00000  Uiso   1.00
H1533  H     0.31758   0.90094   0.44194   0.00000  Uiso   1.00
H1534  H     0.32751   0.94889   0.43921   0.00000  Uiso   1.00
H1535  H     0.37333   0.94265   0.49231   0.00000  Uiso   1.00
H1536  H     0.38351   0.91346   0.45155   0.00000  Uiso   1.00
H1537  H     0.36391   0.89436   0.49506   0.00000  Uiso   1.00
H1538  H     0.10223   0.96384   0.22223   0.00000  Uiso   1.00
H1539  H     0.04445   0.71310   0.59759   0.00000  Uiso   1.00
H1540  H     0.07388   0.93987   0.18747   0.00000  Uiso   1.00
H1541  H     0.10695   0.96992   0.13316   0.00000  Uiso   1.00
H1542  H     0.08727   0.50278   0.16612   0.00000  Uiso   1.00
H1543  H     0.13547   0.99344   0.16789   0.00000  Uiso   1.00
H1544  H     0.42389   0.56285   0.81772   0.00000  Uiso   1.00
H1545  H     0.39725   0.53746   0.78256   0.00000  Uiso   1.00
H1546  H     0.36197   0.50936   0.83645   0.00000  Uiso   1.00
H1547  H     0.41011   0.50053   0.84082   0.00000  Uiso   1.00
H1548  H     0.38884   0.53430   0.87151   0.00000  Uiso   1.00
H1549  H     0.03553   0.60257   0.22315   0.00000  Uiso   1.00
H1550  H     0.44227   0.74091   0.40266   0.00000  Uiso   1.00
H1551  H     0.05936   0.57350   0.18894   0.00000  Uiso   1.00
H1552  H     0.02940   0.60567   0.13400   0.00000  Uiso   1.00
H1553  H     0.49645   0.58674   0.16735   0.00000  Uiso   1.00
H1554  H     0.00595   0.63489   0.16811   0.00000  Uiso   1.00
H1555  H     0.43965   0.92612   0.81261   0.00000  Uiso   1.00
H1556  H     0.46377   0.89786   0.77786   0.00000  Uiso   1.00
H1557  H     0.49373   0.86493   0.83224   0.00000  Uiso   1.00
H1558  H     0.00269   0.91316   0.83401   0.00000  Uiso   1.00
H1559  H     0.46996   0.89324   0.86695   0.00000  Uiso   1.00
H1560  H     0.39735   0.53630   0.22070   0.00000  Uiso   1.00
H1561  H     0.28769   0.54385   0.59777   0.00000  Uiso   1.00
H1562  H     0.42539   0.56065   0.18595   0.00000  Uiso   1.00
H1563  H     0.39169   0.53139   0.13161   0.00000  Uiso   1.00
H1564  H     0.41165   0.99806   0.16380   0.00000  Uiso   1.00
H1565  H     0.36349   0.50743   0.16629   0.00000  Uiso   1.00
H1566  H     0.07538   0.93800   0.81611   0.00000  Uiso   1.00
H1567  H     0.10265   0.96304   0.78121   0.00000  Uiso   1.00
H1568  H     0.13709   0.99159   0.83546   0.00000  Uiso   1.00
H1569  H     0.08888   0.50045   0.83897   0.00000  Uiso   1.00
H1570  H     0.10970   0.96691   0.87028   0.00000  Uiso   1.00
H1571  H     0.46406   0.89733   0.22157   0.00000  Uiso   1.00
H1572  H     0.26117   0.94254   0.40255   0.00000  Uiso   1.00
H1573  H     0.43986   0.92575   0.18708   0.00000  Uiso   1.00
H1574  H     0.00258   0.91227   0.16503   0.00000  Uiso   1.00
H1575  H     0.49319   0.86411   0.16686   0.00000  Uiso   1.00
H1576  H     0.46936   0.89267   0.13243   0.00000  Uiso   1.00
H1577  H     0.06158   0.57530   0.81572   0.00000  Uiso   1.00
H1578  H     0.03676   0.60259   0.78069   0.00000  Uiso   1.00
H1579  H     0.00785   0.63699   0.83470   0.00000  Uiso   1.00
H1580  H     0.49906   0.58882   0.83829   0.00000  Uiso   1.00
H1581  H     0.03244   0.60977   0.86973   0.00000  Uiso   1.00
H1582  H     0.14031   0.62309   0.85191   0.00000  Uiso   1.00
H1583  H     0.19829   0.59157   0.99003   0.00000  Uiso   1.00
H1584  H     0.18090   0.60212   0.83171   0.00000  Uiso   1.00
H1585  H     0.16852   0.54644   0.87039   0.00000  Uiso   1.00
H1586  H     0.17275   0.58610   0.90100   0.00000  Uiso   1.00
H1587  H     0.12829   0.56741   0.89064   0.00000  Uiso   1.00
H1588  H     0.32167   0.90813   0.16029   0.00000  Uiso   1.00
H1589  H     0.35822   0.87580   0.15318   0.00000  Uiso   1.00
H1590  H     0.39185   0.92045   0.11305   0.00000  Uiso   1.00
H1591  H     0.34722   0.91114   0.09350   0.00000  Uiso   1.00
H1592  H     0.35559   0.95308   0.11938   0.00000  Uiso   1.00
H1593  H     0.12343   0.85833   0.85168   0.00000  Uiso   1.00
H1594  H     0.24136   0.57032   0.98808   0.00000  Uiso   1.00
H1595  H     0.10166   0.81831   0.83122   0.00000  Uiso   1.00
H1596  H     0.04629   0.83133   0.87069   0.00000  Uiso   1.00
H1597  H     0.08625   0.82573   0.90061   0.00000  Uiso   1.00
H1598  H     0.06850   0.87073   0.89134   0.00000  Uiso   1.00
H1599  H     0.40838   0.67973   0.16156   0.00000  Uiso   1.00
H1600  H     0.37497   0.64419   0.15417   0.00000  Uiso   1.00
H1601  H     0.41721   0.61070   0.11173   0.00000  Uiso   1.00
H1602  H     0.41031   0.65652   0.09426   0.00000  Uiso   1.00
H1603  H     0.45195   0.64469   0.11926   0.00000  Uiso   1.00
H1604  H     0.36143   0.87828   0.85217   0.00000  Uiso   1.00
H1605  H     0.20923   0.61007   0.05998   0.00000  Uiso   1.00
H1606  H     0.32036   0.89823   0.83193   0.00000  Uiso   1.00
H1607  H     0.33193   0.95470   0.86939   0.00000  Uiso   1.00
H1608  H     0.32878   0.91556   0.90086   0.00000  Uiso   1.00
H1609  H     0.37277   0.93496   0.88964   0.00000  Uiso   1.00
H1610  H     0.17785   0.59177   0.16104   0.00000  Uiso   1.00
H1611  H     0.14072   0.62325   0.15291   0.00000  Uiso   1.00
H1612  H     0.10841   0.57718   0.11335   0.00000  Uiso   1.00
H1613  H     0.15301   0.58715   0.09405   0.00000  Uiso   1.00
H1614  H     0.14531   0.54548   0.12064   0.00000  Uiso   1.00
H1615  H     0.37551   0.64319   0.85137   0.00000  Uiso   1.00
H1616  H     0.30809   0.50767   0.90257   0.00000  Uiso   1.00
H1617  H     0.25462   0.59174   0.05646   0.00000  Uiso   1.00
H1618  H     0.39759   0.68279   0.83036   0.00000  Uiso   1.00
H1619  H     0.45262   0.67010   0.87063   0.00000  Uiso   1.00
H1620  H     0.41240   0.67684   0.89989   0.00000  Uiso   1.00
H1621  H     0.42978   0.63145   0.89206   0.00000  Uiso   1.00
H1622  H     0.09155   0.82097   0.16141   0.00000  Uiso   1.00
H1623  H     0.12444   0.85696   0.15386   0.00000  Uiso   1.00
H1624  H     0.08115   0.89019   0.11226   0.00000  Uiso   1.00
H1625  H     0.08887   0.84468   0.09425   0.00000  Uiso   1.00
H1626  H     0.04719   0.85539   0.11972   0.00000  Uiso   1.00
H1627  H     0.35209   0.71379   0.72267   0.00000  Uiso   1.00
H1628  H     0.26803   0.63419   0.00122   0.00000  Uiso   1.00
H1629  H     0.32367   0.68995   0.68786   0.00000  Uiso   1.00
H1630  H     0.35655   0.72031   0.63363   0.00000  Uiso   1.00
H1631  H     0.33693   0.75298   0.66684   0.00000  Uiso   1.00
H1632  H     0.38515   0.74367   0.66842   0.00000  Uiso   1.00
H1633  H     0.17362   0.81281   0.31813   0.00000  Uiso   1.00
H1634  H     0.14705   0.78742   0.28292   0.00000  Uiso   1.00
H1635  H     0.11151   0.75944   0.33668   0.00000  Uiso   1.00
H1636  H     0.15963   0.75067   0.34145   0.00000  Uiso   1.00
H1637  H     0.13813   0.78454   0.37184   0.00000  Uiso   1.00
H1638  H     0.28537   0.85190   0.72583   0.00000  Uiso   1.00
H1639  H     0.25532   0.65792   0.04507   0.00000  Uiso   1.00
H1640  H     0.30858   0.82219   0.69176   0.00000  Uiso   1.00
H1641  H     0.24512   0.83460   0.67151   0.00000  Uiso   1.00
H1642  H     0.25440   0.88281   0.67087   0.00000  Uiso   1.00
H1643  H     0.27717   0.85299   0.63683   0.00000  Uiso   1.00
H1644  H     0.18761   0.67381   0.31751   0.00000  Uiso   1.00
H1645  H     0.21290   0.64695   0.28246   0.00000  Uiso   1.00
H1646  H     0.24095   0.61179   0.33645   0.00000  Uiso   1.00
H1647  H     0.24977   0.65989   0.34089   0.00000  Uiso   1.00
H1648  H     0.21588   0.63863   0.37145   0.00000  Uiso   1.00
H1649  H     0.14799   0.78545   0.72521   0.00000  Uiso   1.00
H1650  H     0.22288   0.65334   0.00603   0.00000  Uiso   1.00
H1651  H     0.17754   0.80875   0.69105   0.00000  Uiso   1.00
H1652  H     0.14628   0.77771   0.63616   0.00000  Uiso   1.00
H1653  H     0.16483   0.74547   0.67051   0.00000  Uiso   1.00
H1654  H     0.11660   0.75486   0.67030   0.00000  Uiso   1.00
H1655  H     0.32706   0.68631   0.31959   0.00000  Uiso   1.00
H1656  H     0.35314   0.71213   0.28431   0.00000  Uiso   1.00
H1657  H     0.38925   0.73966   0.33793   0.00000  Uiso   1.00
H1658  H     0.34117   0.74827   0.34344   0.00000  Uiso   1.00
H1659  H     0.36307   0.71415   0.37313   0.00000  Uiso   1.00
H1660  H     0.21480   0.64755   0.72468   0.00000  Uiso   1.00
H1661  H     0.34417   0.54221   0.01219   0.00000  Uiso   1.00
H1662  H     0.19135   0.67718   0.69077   0.00000  Uiso   1.00
H1663  H     0.25447   0.66429   0.66966   0.00000  Uiso   1.00
H1664  H     0.24496   0.61613   0.66940   0.00000  Uiso   1.00
H1665  H     0.22189   0.64591   0.63556   0.00000  Uiso   1.00
H1666  H     0.31256   0.82639   0.31802   0.00000  Uiso   1.00
H1667  H     0.28729   0.85291   0.28269   0.00000  Uiso   1.00
H1668  H     0.25909   0.88849   0.33624   0.00000  Uiso   1.00
H1669  H     0.25035   0.84042   0.34120   0.00000  Uiso   1.00
H1670  H     0.28415   0.86207   0.37158   0.00000  Uiso   1.00
H1671  H     0.39214   0.87403   0.35164   0.00000  Uiso   1.00
H1672  H     0.29949   0.55730   0.00164   0.00000  Uiso   1.00
H1673  H     0.43217   0.85250   0.33086   0.00000  Uiso   1.00
H1674  H     0.41991   0.79724   0.37042   0.00000  Uiso   1.00
H1675  H     0.42519   0.83717   0.40045   0.00000  Uiso   1.00
H1676  H     0.38033   0.81891   0.39130   0.00000  Uiso   1.00
H1677  H     0.07351   0.65897   0.66015   0.00000  Uiso   1.00
H1678  H     0.11089   0.62768   0.65257   0.00000  Uiso   1.00
H1679  H     0.14402   0.67457   0.61462   0.00000  Uiso   1.00
H1680  H     0.10015   0.66409   0.59381   0.00000  Uiso   1.00
H1681  H     0.10644   0.70567   0.62094   0.00000  Uiso   1.00
H1682  H     0.37546   0.60565   0.35113   0.00000  Uiso   1.00
H1683  H     0.36151   0.55046   0.94077   0.00000  Uiso   1.00
H1684  H     0.35300   0.56633   0.33001   0.00000  Uiso   1.00
H1685  H     0.29847   0.57882   0.37113   0.00000  Uiso   1.00
H1686  H     0.33899   0.57184   0.39985   0.00000  Uiso   1.00
H1687  H     0.32161   0.61730   0.39258   0.00000  Uiso   1.00
H1688  H     0.15909   0.92624   0.65974   0.00000  Uiso   1.00
H1689  H     0.12762   0.88893   0.65271   0.00000  Uiso   1.00
H1690  H     0.17431   0.85528   0.61495   0.00000  Uiso   1.00
H1691  H     0.16391   0.89892   0.59368   0.00000  Uiso   1.00
H1692  H     0.20558   0.89280   0.62070   0.00000  Uiso   1.00
H1693  H     0.10828   0.62637   0.35181   0.00000  Uiso   1.00
H1694  H     0.31764   0.57124   0.93311   0.00000  Uiso   1.00
H1695  H     0.06813   0.64802   0.33147   0.00000  Uiso   1.00
H1696  H     0.08085   0.70326   0.37094   0.00000  Uiso   1.00
H1697  H     0.07604   0.66333   0.40104   0.00000  Uiso   1.00
H1698  H     0.12075   0.68160   0.39115   0.00000  Uiso   1.00
H1699  H     0.42627   0.84066   0.65975   0.00000  Uiso   1.00
H1700  H     0.38909   0.87228   0.65272   0.00000  Uiso   1.00
H1701  H     0.35526   0.82582   0.61484   0.00000  Uiso   1.00
H1702  H     0.39902   0.83611   0.59364   0.00000  Uiso   1.00
H1703  H     0.39269   0.79444   0.62054   0.00000  Uiso   1.00
H1704  H     0.12582   0.89225   0.35166   0.00000  Uiso   1.00
H1705  H     0.33242   0.61803   0.98398   0.00000  Uiso   1.00
H1706  H     0.14766   0.93225   0.33126   0.00000  Uiso   1.00
H1707  H     0.20273   0.91955   0.37111   0.00000  Uiso   1.00
H1708  H     0.16261   0.92473   0.40093   0.00000  Uiso   1.00
H1709  H     0.18075   0.87992   0.39148   0.00000  Uiso   1.00
H1710  H     0.34154   0.57099   0.66159   0.00000  Uiso   1.00
H1711  H     0.37427   0.60709   0.65374   0.00000  Uiso   1.00
H1712  H     0.33082   0.63998   0.61215   0.00000  Uiso   1.00
H1713  H     0.33838   0.59436   0.59437   0.00000  Uiso   1.00
H1714  H     0.29686   0.60528   0.62006   0.00000  Uiso   1.00
H1715  H     0.36423   0.61828   0.94397   0.00000  Uiso   1.00
H1716  H     0.46124   0.70655   0.09821   0.00000  Uiso   1.00
H1717  H     0.37703   0.59793   0.98967   0.00000  Uiso   1.00
H1718  H     0.42769   0.73739   0.98918   0.00000  Uiso   1.00
H1719  H     0.41038   0.73137   0.03836   0.00000  Uiso   1.00
H1720  H     0.40925   0.67356   0.97348   0.00000  Uiso   1.00
H1721  H     0.39045   0.66897   0.02161   0.00000  Uiso   1.00
H1722  H     0.34762   0.72057   0.00825   0.00000  Uiso   1.00
H1723  H     0.34242   0.68446   0.97325   0.00000  Uiso   1.00
H1724  H     0.36659   0.72518   0.95987   0.00000  Uiso   1.00
H1725  H     0.44170   0.79648   0.00946   0.00000  Uiso   1.00
H1726  H     0.43203   0.81286   0.96058   0.00000  Uiso   1.00
H1727  H     0.48770   0.80711   0.90308   0.00000  Uiso   1.00
H1728  H     0.45871   0.85918   0.02966   0.00000  Uiso   1.00
H1729  H     0.44864   0.87556   0.98144   0.00000  Uiso   1.00
H1730  H     0.38386   0.85528   0.98893   0.00000  Uiso   1.00
H1731  H     0.39698   0.88665   0.02673   0.00000  Uiso   1.00
H1732  H     0.39403   0.83874   0.03734   0.00000  Uiso   1.00
H1733  H     0.30162   0.90761   0.99064   0.00000  Uiso   1.00
H1734  H     0.25868   0.92907   0.98825   0.00000  Uiso   1.00
H1735  H     0.29022   0.88971   0.06066   0.00000  Uiso   1.00
H1736  H     0.24496   0.90830   0.05680   0.00000  Uiso   1.00
H1737  H     0.23151   0.86552   0.00186   0.00000  Uiso   1.00
H1738  H     0.29219   0.95965   0.09863   0.00000  Uiso   1.00
H1739  H     0.24386   0.84206   0.04597   0.00000  Uiso   1.00
H1740  H     0.27650   0.84609   0.00704   0.00000  Uiso   1.00
H1741  H     0.15566   0.95696   0.01175   0.00000  Uiso   1.00
H1742  H     0.20044   0.94202   0.00139   0.00000  Uiso   1.00
H1743  H     0.13882   0.94904   0.94010   0.00000  Uiso   1.00
H1744  H     0.18276   0.92832   0.93269   0.00000  Uiso   1.00
H1745  H     0.16761   0.88136   0.98326   0.00000  Uiso   1.00
H1746  H     0.13620   0.88118   0.94292   0.00000  Uiso   1.00
H1747  H     0.12292   0.90136   0.98857   0.00000  Uiso   1.00
H1748  H     0.07298   0.76385   0.98612   0.00000  Uiso   1.00
H1749  H     0.19189   0.99221   0.90254   0.00000  Uiso   1.00
H1750  H     0.09066   0.76521   0.03559   0.00000  Uiso   1.00
H1751  H     0.09362   0.82768   0.97598   0.00000  Uiso   1.00
H1752  H     0.11246   0.82818   0.02436   0.00000  Uiso   1.00
H1753  H     0.15354   0.77620   0.00665   0.00000  Uiso   1.00
H1754  H     0.16013   0.81465   0.97494   0.00000  Uiso   1.00
H1755  H     0.13462   0.77593   0.95802   0.00000  Uiso   1.00
H1756  H     0.05162   0.65875   0.01123   0.00000  Uiso   1.00
H1757  H     0.05976   0.70593   0.00602   0.00000  Uiso   1.00
H1758  H     0.06729   0.64821   0.94060   0.00000  Uiso   1.00
H1759  H     0.07863   0.69572   0.93609   0.00000  Uiso   1.00
H1760  H     0.03952   0.79320   0.09849   0.00000  Uiso   1.00
H1761  H     0.12604   0.68924   0.98757   0.00000  Uiso   1.00
H1762  H     0.13385   0.65876   0.94730   0.00000  Uiso   1.00
H1763  H     0.11516   0.64138   0.99207   0.00000  Uiso   1.00
H1764  H     0.44219   0.84173   0.49259   0.00000  Uiso   1.00
H1765  H     0.48595   0.82240   0.48800   0.00000  Uiso   1.00
H1766  H     0.45533   0.85919   0.56244   0.00000  Uiso   1.00
H1767  H     0.00128   0.84302   0.55622   0.00000  Uiso   1.00
H1768  H     0.01042   0.88718   0.50160   0.00000  Uiso   1.00
H1769  H     0.49844   0.90941   0.54658   0.00000  Uiso   1.00
H1770  H     0.46467   0.90412   0.50895   0.00000  Uiso   1.00
H1771  H     0.01218   0.69247   0.90215   0.00000  Uiso   1.00
H1772  H     0.09042   0.80276   0.51088   0.00000  Uiso   1.00
H1773  H     0.04540   0.81495   0.49793   0.00000  Uiso   1.00
H1774  H     0.10997   0.80875   0.44011   0.00000  Uiso   1.00
H1775  H     0.06524   0.82605   0.42913   0.00000  Uiso   1.00
H1776  H     0.07455   0.87684   0.47661   0.00000  Uiso   1.00
H1777  H     0.10884   0.87639   0.43907   0.00000  Uiso   1.00
H1778  H     0.11974   0.85983   0.48701   0.00000  Uiso   1.00
H1779  H     0.16058   0.94079   0.49057   0.00000  Uiso   1.00
H1780  H     0.17907   0.98497   0.48687   0.00000  Uiso   1.00
H1781  H     0.14097   0.95310   0.55990   0.00000  Uiso   1.00
H1782  H     0.45562   0.78868   0.59927   0.00000  Uiso   1.00
H1783  H     0.15649   0.99934   0.55463   0.00000  Uiso   1.00
H1784  H     0.11358   0.50812   0.49877   0.00000  Uiso   1.00
H1785  H     0.09037   0.99533   0.54293   0.00000  Uiso   1.00
H1786  H     0.09730   0.96203   0.50514   0.00000  Uiso   1.00
H1787  H     0.19773   0.58946   0.51153   0.00000  Uiso   1.00
H1788  H     0.18574   0.54458   0.49788   0.00000  Uiso   1.00
H1789  H     0.19172   0.60981   0.44100   0.00000  Uiso   1.00
H1790  H     0.17459   0.56517   0.42941   0.00000  Uiso   1.00
H1791  H     0.12372   0.57369   0.47700   0.00000  Uiso   1.00
H1792  H     0.12402   0.60837   0.43992   0.00000  Uiso   1.00
O1793  O     0.25000   0.50000   0.25000   0.00000  Uiso   1.00
O1794  O     0.25000   0.96964   0.66317   0.00000  Uiso   1.00
O1795  O     0.32760   0.62003   0.68704   0.00000  Uiso   1.00
O1796  O     0.46964   0.75000   0.33683   0.00000  Uiso   1.00
O1797  O     0.03036   0.75000   0.66317   0.00000  Uiso   1.00
O1798  O     0.00000   0.71964   0.83683   0.00000  Uiso   1.00
O1799  O    -0.00000   0.78036   0.16317   0.00000  Uiso   1.00
O1800  O     0.28036   0.50000   0.83683   0.00000  Uiso   1.00
O1801  O     0.21964   0.50000   0.16317   0.00000  Uiso   1.00
O1802  O     0.00000   0.78036   0.83683   0.00000  Uiso   1.00
O1803  O    -0.00000   0.71964   0.16317   0.00000  Uiso   1.00
O1804  O     0.21964   0.50000   0.83683   0.00000  Uiso   1.00
O1805  O     0.25000   0.50000   0.75000   0.00000  Uiso   1.00
O1806  O     0.28036   0.50000   0.16317   0.00000  Uiso   1.00
O1807  O     0.20725   0.57307   0.27282   0.00000  Uiso   1.00
O1808  O     0.29274   0.92693   0.72718   0.00000  Uiso   1.00
O1809  O     0.42693   0.70725   0.27282   0.00000  Uiso   1.00
O1810  O     0.07307   0.79274   0.72718   0.00000  Uiso   1.00
O1811  O     0.29274   0.92693   0.27282   0.00000  Uiso   1.00
O1812  O     0.20725   0.57307   0.72718   0.00000  Uiso   1.00
O1813  O     0.07307   0.79274   0.27282   0.00000  Uiso   1.00
O1814  O     0.42693   0.70725   0.72718   0.00000  Uiso   1.00
O1815  O     0.20725   0.92693   0.72718   0.00000  Uiso   1.00
O1816  O     0.00000   0.75000   0.25000   0.00000  Uiso   1.00
O1817  O     0.29274   0.57307   0.27282   0.00000  Uiso   1.00
O1818  O     0.42693   0.79274   0.72718   0.00000  Uiso   1.00
O1819  O     0.07307   0.70725   0.27282   0.00000  Uiso   1.00
O1820  O     0.29274   0.57307   0.72718   0.00000  Uiso   1.00
O1821  O     0.20725   0.92693   0.27282   0.00000  Uiso   1.00
O1822  O     0.07307   0.70725   0.72718   0.00000  Uiso   1.00
O1823  O     0.42693   0.79274   0.27282   0.00000  Uiso   1.00
O1824  O     0.45725   0.82307   0.77282   0.00000  Uiso   1.00
O1825  O     0.04274   0.67693   0.22718   0.00000  Uiso   1.00
O1826  O     0.17693   0.95725   0.77282   0.00000  Uiso   1.00
O1827  O     0.00000   0.75000   0.75000   0.00000  Uiso   1.00
O1828  O     0.32307   0.54274   0.22718   0.00000  Uiso   1.00
O1829  O     0.04274   0.67693   0.77282   0.00000  Uiso   1.00
O1830  O     0.45725   0.82307   0.22718   0.00000  Uiso   1.00
O1831  O     0.32307   0.54274   0.77282   0.00000  Uiso   1.00
O1832  O     0.17693   0.95725   0.22718   0.00000  Uiso   1.00
O1833  O     0.45725   0.67693   0.22718   0.00000  Uiso   1.00
O1834  O     0.04274   0.82307   0.77282   0.00000  Uiso   1.00
O1835  O     0.17693   0.54274   0.22718   0.00000  Uiso   1.00
O1836  O     0.32307   0.95725   0.77282   0.00000  Uiso   1.00
O1837  O     0.04274   0.82307   0.22718   0.00000  Uiso   1.00
O1838  O     0.25000   0.96964   0.33683   0.00000  Uiso   1.00
O1839  O     0.45725   0.67693   0.77282   0.00000  Uiso   1.00
O1840  O     0.32307   0.95725   0.22718   0.00000  Uiso   1.00
O1841  O     0.17693   0.54274   0.77282   0.00000  Uiso   1.00
O1842  O     0.20186   0.54643   0.02415   0.00000  Uiso   1.00
O1843  O     0.31618   0.50746   0.97708   0.00000  Uiso   1.00
O1844  O     0.45607   0.70049   0.02315   0.00000  Uiso   1.00
O1845  O     0.48652   0.81419   0.97806   0.00000  Uiso   1.00
O1846  O     0.29810   0.95307   0.02430   0.00000  Uiso   1.00
O1847  O     0.18381   0.99194   0.97706   0.00000  Uiso   1.00
O1848  O     0.04591   0.79871   0.02358   0.00000  Uiso   1.00
O1849  O     0.25000   0.53036   0.66317   0.00000  Uiso   1.00
O1850  O     0.01449   0.68418   0.97657   0.00000  Uiso   1.00
O1851  O     0.44913   0.79603   0.52519   0.00000  Uiso   1.00
O1852  O     0.06542   0.76492   0.47680   0.00000  Uiso   1.00
O1853  O     0.20529   0.94850   0.52460   0.00000  Uiso   1.00
O1854  O     0.23576   0.56511   0.47711   0.00000  Uiso   1.00
O1855  O     0.05083   0.70855   0.52317   0.00000  Uiso   1.00
O1856  O     0.43432   0.74132   0.47729   0.00000  Uiso   1.00
O1857  O     0.29325   0.54910   0.52290   0.00000  Uiso   1.00
O1858  O     0.26243   0.93453   0.47693   0.00000  Uiso   1.00
O1859  O     0.12836   0.92415   0.18839   0.00000  Uiso   1.00
O1860  O     0.03036   0.75000   0.33683   0.00000  Uiso   1.00
O1861  O     0.36937   0.57794   0.81355   0.00000  Uiso   1.00
O1862  O     0.07533   0.62789   0.18877   0.00000  Uiso   1.00
O1863  O     0.42424   0.87160   0.81176   0.00000  Uiso   1.00
O1864  O     0.37095   0.57648   0.18781   0.00000  Uiso   1.00
O1865  O     0.12992   0.92277   0.81306   0.00000  Uiso   1.00
O1866  O     0.42401   0.87133   0.18812   0.00000  Uiso   1.00
O1867  O     0.07696   0.62977   0.81281   0.00000  Uiso   1.00
O1868  O     0.13160   0.57916   0.81441   0.00000  Uiso   1.00
O1869  O     0.37005   0.92245   0.18698   0.00000  Uiso   1.00
O1870  O     0.07935   0.86809   0.81469   0.00000  Uiso   1.00
O1871  O     0.46964   0.75000   0.66317   0.00000  Uiso   1.00
O1872  O     0.42193   0.63047   0.18666   0.00000  Uiso   1.00
O1873  O     0.36922   0.92164   0.81378   0.00000  Uiso   1.00
O1874  O     0.12941   0.57704   0.18745   0.00000  Uiso   1.00
O1875  O     0.41994   0.63266   0.81510   0.00000  Uiso   1.00
O1876  O     0.07766   0.86996   0.18699   0.00000  Uiso   1.00
O1877  O     0.37817   0.67430   0.68851   0.00000  Uiso   1.00
O1878  O     0.11917   0.82806   0.31367   0.00000  Uiso   1.00
O1879  O     0.32419   0.87665   0.68976   0.00000  Uiso   1.00
O1880  O     0.17220   0.61941   0.31349   0.00000  Uiso   1.00
O1881  O     0.12307   0.82449   0.68956   0.00000  Uiso   1.00
O1882  O     0.25000   0.53036   0.33683   0.00000  Uiso   1.00
O1883  O     0.38150   0.67126   0.31417   0.00000  Uiso   1.00
O1884  O     0.17539   0.62280   0.68935   0.00000  Uiso   1.00
O1885  O     0.32792   0.88077   0.31352   0.00000  Uiso   1.00
O1886  O     0.38235   0.82985   0.31484   0.00000  Uiso   1.00
O1887  O     0.12127   0.67360   0.68794   0.00000  Uiso   1.00
O1888  O     0.33069   0.61666   0.31553   0.00000  Uiso   1.00
O1889  O     0.17367   0.87876   0.68801   0.00000  Uiso   1.00
O1890  O     0.11784   0.67044   0.31478   0.00000  Uiso   1.00
O1891  O     0.37864   0.82627   0.68797   0.00000  Uiso   1.00
O1892  O     0.17015   0.88249   0.31497   0.00000  Uiso   1.00
Zn1893 Zn    0.20660   0.50000   0.21760   0.00000  Uiso   1.00
Zn1894 Zn    0.04340   0.75000   0.28240   0.00000  Uiso   1.00
Zn1895 Zn    0.25000   0.95660   0.71760   0.00000  Uiso   1.00
Zn1896 Zn    0.25000   0.54340   0.28240   0.00000  Uiso   1.00
Zn1897 Zn    0.04340   0.75000   0.71760   0.00000  Uiso   1.00
Zn1898 Zn    0.45660   0.75000   0.28240   0.00000  Uiso   1.00
Zn1899 Zn    0.25000   0.54340   0.71760   0.00000  Uiso   1.00
Zn1900 Zn    0.25000   0.95660   0.28240   0.00000  Uiso   1.00
Zn1901 Zn    0.29340   0.50000   0.78240   0.00000  Uiso   1.00
Zn1902 Zn   -0.00000   0.70660   0.21760   0.00000  Uiso   1.00
Zn1903 Zn   -0.00000   0.79340   0.78240   0.00000  Uiso   1.00
Zn1904 Zn    0.29340   0.50000   0.21760   0.00000  Uiso   1.00
Zn1905 Zn    0.20660   0.50000   0.78240   0.00000  Uiso   1.00
Zn1906 Zn   -0.00000   0.79340   0.21760   0.00000  Uiso   1.00
Zn1907 Zn   -0.00000   0.70660   0.78240   0.00000  Uiso   1.00
Zn1908 Zn    0.45660   0.75000   0.71760   0.00000  Uiso   1.00
C1909  C     0.72688   0.52392   0.04236   0.00000  Uiso   1.00
C1910  C     0.53243   0.75997   0.45808   0.00000  Uiso   1.00
C1911  C     0.84730   0.90105   0.75076   0.00000  Uiso   1.00
C1912  C     0.90175   0.65198   0.25006   0.00000  Uiso   1.00
C1913  C     0.59911   0.84712   0.75096   0.00000  Uiso   1.00
C1914  C     0.84794   0.90169   0.24991   0.00000  Uiso   1.00
C1915  C     0.65279   0.59902   0.75085   0.00000  Uiso   1.00
C1916  C     0.59798   0.65172   0.74995   0.00000  Uiso   1.00
C1917  C     0.90268   0.84891   0.25069   0.00000  Uiso   1.00
C1918  C     0.65174   0.90199   0.75004   0.00000  Uiso   1.00
C1919  C     0.84902   0.59720   0.25080   0.00000  Uiso   1.00
C1920  C     0.90223   0.84847   0.74974   0.00000  Uiso   1.00
C1921  C     0.72577   0.97539   0.54253   0.00000  Uiso   1.00
C1922  C     0.59720   0.65097   0.25087   0.00000  Uiso   1.00
C1923  C     0.84831   0.59795   0.75000   0.00000  Uiso   1.00
C1924  C     0.65100   0.90277   0.25083   0.00000  Uiso   1.00
C1925  C     0.75003   0.99995   0.10286   0.00000  Uiso   1.00
C1926  C     0.74999   0.99994   0.89763   0.00000  Uiso   1.00
C1927  C     0.50033   0.74991   0.10278   0.00000  Uiso   1.00
C1928  C     0.50015   0.74987   0.89766   0.00000  Uiso   1.00
C1929  C     0.50001   0.75077   0.60279   0.00000  Uiso   1.00
C1930  C     0.99999   0.75101   0.39757   0.00000  Uiso   1.00
C1931  C     0.74927   0.99999   0.60277   0.00000  Uiso   1.00
C1932  C     0.74092   0.53224   0.45823   0.00000  Uiso   1.00
C1933  C     0.74959   0.99997   0.39759   0.00000  Uiso   1.00
C1934  C     0.71893   0.57749   0.00818   0.00000  Uiso   1.00
C1935  C     0.73196   0.60408   0.03968   0.00000  Uiso   1.00
C1936  C     0.74536   0.63956   0.02177   0.00000  Uiso   1.00
C1937  C     0.82351   0.54358   0.98869   0.00000  Uiso   1.00
C1938  C     0.83922   0.56595   0.95498   0.00000  Uiso   1.00
C1939  C     0.85413   0.60230   0.96915   0.00000  Uiso   1.00
C1940  C     0.92300   0.71743   0.01289   0.00000  Uiso   1.00
C1941  C     0.89654   0.68863   0.99797   0.00000  Uiso   1.00
C1942  C     0.86112   0.70588   0.98401   0.00000  Uiso   1.00
C1943  C     0.52460   0.72934   0.54179   0.00000  Uiso   1.00
C1944  C     0.94916   0.81689   0.98700   0.00000  Uiso   1.00
C1945  C     0.94151   0.85468   0.00351   0.00000  Uiso   1.00
C1946  C     0.90158   0.85899   0.01479   0.00000  Uiso   1.00
C1947  C     0.78096   0.92195   0.00854   0.00000  Uiso   1.00
C1948  C     0.76762   0.89569   0.04022   0.00000  Uiso   1.00
C1949  C     0.75405   0.86015   0.02255   0.00000  Uiso   1.00
C1950  C     0.67647   0.95575   0.98837   0.00000  Uiso   1.00
C1951  C     0.66101   0.93351   0.95442   0.00000  Uiso   1.00
C1952  C     0.64603   0.89710   0.96827   0.00000  Uiso   1.00
C1953  C     0.57839   0.78157   0.01162   0.00000  Uiso   1.00
C1954  C     0.96736   0.74528   0.45840   0.00000  Uiso   1.00
C1955  C     0.60578   0.81050   0.99915   0.00000  Uiso   1.00
C1956  C     0.64065   0.79315   0.98376   0.00000  Uiso   1.00
C1957  C     0.55078   0.68140   0.98990   0.00000  Uiso   1.00
C1958  C     0.57720   0.67249   0.95664   0.00000  Uiso   1.00
C1959  C     0.61541   0.66501   0.97199   0.00000  Uiso   1.00
C1960  C     0.96417   0.82818   0.50935   0.00000  Uiso   1.00
C1961  C     0.97737   0.85466   0.54089   0.00000  Uiso   1.00
C1962  C     0.98839   0.89109   0.52329   0.00000  Uiso   1.00
C1963  C     0.57049   0.80190   0.48663   0.00000  Uiso   1.00
C1964  C     0.58613   0.82344   0.45227   0.00000  Uiso   1.00
C1965  C     0.77112   0.52436   0.54192   0.00000  Uiso   1.00
C1966  C     0.59801   0.86148   0.46465   0.00000  Uiso   1.00
C1967  C     0.67324   0.96293   0.50788   0.00000  Uiso   1.00
C1968  C     0.64568   0.97538   0.53872   0.00000  Uiso   1.00
C1969  C     0.60951   0.98585   0.52011   0.00000  Uiso   1.00
C1970  C     0.69872   0.56985   0.48699   0.00000  Uiso   1.00
C1971  C     0.67711   0.58579   0.45283   0.00000  Uiso   1.00
C1972  C     0.63899   0.59734   0.46535   0.00000  Uiso   1.00
C1973  C     0.53552   0.67690   0.50644   0.00000  Uiso   1.00
C1974  C     0.52345   0.64919   0.53726   0.00000  Uiso   1.00
C1975  C     0.51199   0.61341   0.51847   0.00000  Uiso   1.00
C1976  C     0.75675   0.96748   0.45836   0.00000  Uiso   1.00
C1977  C     0.92887   0.70478   0.48858   0.00000  Uiso   1.00
C1978  C     0.91256   0.68240   0.45522   0.00000  Uiso   1.00
C1979  C     0.89988   0.64518   0.46926   0.00000  Uiso   1.00
C1980  C     0.82576   0.53170   0.51146   0.00000  Uiso   1.00
C1981  C     0.85328   0.56032   0.49849   0.00000  Uiso   1.00
C1982  C     0.88802   0.54254   0.48334   0.00000  Uiso   1.00
C1983  C     0.79836   0.93230   0.49150   0.00000  Uiso   1.00
C1984  C     0.82614   0.92511   0.45903   0.00000  Uiso   1.00
C1985  C     0.86405   0.91849   0.47566   0.00000  Uiso   1.00
C1986  C     0.60145   0.95131   0.19270   0.00000  Uiso   1.00
C1987  C     0.72624   0.52258   0.08275   0.00000  Uiso   1.00
C1988  C     0.60822   0.98123   0.16307   0.00000  Uiso   1.00
C1989  C     0.89668   0.55095   0.81160   0.00000  Uiso   1.00
C1990  C     0.88890   0.52198   0.84204   0.00000  Uiso   1.00
C1991  C     0.54803   0.60119   0.19363   0.00000  Uiso   1.00
C1992  C     0.51809   0.60754   0.16387   0.00000  Uiso   1.00
C1993  C     0.95127   0.89863   0.80740   0.00000  Uiso   1.00
C1994  C     0.98128   0.89206   0.83704   0.00000  Uiso   1.00
C1995  C     0.89785   0.54920   0.19136   0.00000  Uiso   1.00
C1996  C     0.89070   0.51968   0.16135   0.00000  Uiso   1.00
C1997  C     0.60272   0.94979   0.81038   0.00000  Uiso   1.00
C1998  C     0.78261   0.50437   0.91796   0.00000  Uiso   1.00
C1999  C     0.61008   0.97900   0.84070   0.00000  Uiso   1.00
C2000  C     0.95128   0.89817   0.19217   0.00000  Uiso   1.00
C2001  C     0.98095   0.89136   0.16221   0.00000  Uiso   1.00
C2002  C     0.54987   0.60264   0.80994   0.00000  Uiso   1.00
C2003  C     0.52048   0.61004   0.84009   0.00000  Uiso   1.00
C2004  C     0.65291   0.59688   0.84282   0.00000  Uiso   1.00
C2005  C     0.65578   0.57267   0.87849   0.00000  Uiso   1.00
C2006  C     0.85152   0.90526   0.15603   0.00000  Uiso   1.00
C2007  C     0.86218   0.92368   0.11811   0.00000  Uiso   1.00
C2008  C     0.59694   0.84623   0.84271   0.00000  Uiso   1.00
C2009  C     0.97860   0.72523   0.08257   0.00000  Uiso   1.00
C2010  C     0.57296   0.84335   0.87860   0.00000  Uiso   1.00
C2011  C     0.90467   0.65010   0.15657   0.00000  Uiso   1.00
C2012  C     0.92216   0.63989   0.11802   0.00000  Uiso   1.00
C2013  C     0.84834   0.90411   0.84270   0.00000  Uiso   1.00
C2014  C     0.84529   0.92890   0.87789   0.00000  Uiso   1.00
C2015  C     0.64799   0.59399   0.15639   0.00000  Uiso   1.00
C2016  C     0.63809   0.57471   0.11874   0.00000  Uiso   1.00
C2017  C     0.90212   0.65507   0.84246   0.00000  Uiso   1.00
C2018  C     0.92575   0.65856   0.87854   0.00000  Uiso   1.00
C2019  C     0.59484   0.85067   0.15657   0.00000  Uiso   1.00
C2020  C     0.78289   0.50527   0.95835   0.00000  Uiso   1.00
C2021  C     0.99331   0.78193   0.91826   0.00000  Uiso   1.00
C2022  C     0.57685   0.86084   0.11829   0.00000  Uiso   1.00
C2023  C     0.85124   0.70140   0.69307   0.00000  Uiso   1.00
C2024  C     0.85789   0.73147   0.66360   0.00000  Uiso   1.00
C2025  C     0.64640   0.80098   0.31192   0.00000  Uiso   1.00
C2026  C     0.63840   0.77211   0.34242   0.00000  Uiso   1.00
C2027  C     0.79719   0.84991   0.69604   0.00000  Uiso   1.00
C2028  C     0.76656   0.85543   0.66694   0.00000  Uiso   1.00
C2029  C     0.69937   0.64654   0.31149   0.00000  Uiso   1.00
C2030  C     0.72829   0.63870   0.34201   0.00000  Uiso   1.00
C2031  C     0.64980   0.79742   0.69547   0.00000  Uiso   1.00
C2032  C     0.77384   0.97725   0.08282   0.00000  Uiso   1.00
C2033  C     0.64400   0.76696   0.66623   0.00000  Uiso   1.00
C2034  C     0.85418   0.69828   0.31313   0.00000  Uiso   1.00
C2035  C     0.86246   0.72687   0.34387   0.00000  Uiso   1.00
C2036  C     0.70262   0.64942   0.69505   0.00000  Uiso   1.00
C2037  C     0.73287   0.64355   0.66553   0.00000  Uiso   1.00
C2038  C     0.80078   0.85360   0.31173   0.00000  Uiso   1.00
C2039  C     0.77179   0.86167   0.34212   0.00000  Uiso   1.00
C2040  C     0.90434   0.84763   0.34260   0.00000  Uiso   1.00
C2041  C     0.90763   0.82372   0.37847   0.00000  Uiso   1.00
C2042  C     0.60347   0.65689   0.65623   0.00000  Uiso   1.00
C2043  C     0.71738   0.99540   0.91794   0.00000  Uiso   1.00
C2044  C     0.61416   0.67657   0.61907   0.00000  Uiso   1.00
C2045  C     0.84871   0.59396   0.34244   0.00000  Uiso   1.00
C2046  C     0.82545   0.59027   0.37879   0.00000  Uiso   1.00
C2047  C     0.65689   0.89627   0.65617   0.00000  Uiso   1.00
C2048  C     0.67643   0.88515   0.61904   0.00000  Uiso   1.00
C2049  C     0.59609   0.65280   0.34287   0.00000  Uiso   1.00
C2050  C     0.59327   0.67678   0.37876   0.00000  Uiso   1.00
C2051  C     0.89630   0.84299   0.65615   0.00000  Uiso   1.00
C2052  C     0.88514   0.82359   0.61896   0.00000  Uiso   1.00
C2053  C     0.65234   0.90436   0.34283   0.00000  Uiso   1.00
C2054  C     0.52248   0.77432   0.08272   0.00000  Uiso   1.00
C2055  C     0.67613   0.90731   0.37886   0.00000  Uiso   1.00
C2056  C     0.84471   0.60069   0.65662   0.00000  Uiso   1.00
C2057  C     0.82652   0.61067   0.61839   0.00000  Uiso   1.00
C2058  C     0.50718   0.71756   0.91775   0.00000  Uiso   1.00
C2059  C     0.97498   0.77246   0.58315   0.00000  Uiso   1.00
C2060  C     0.53231   0.75768   0.41773   0.00000  Uiso   1.00
C2061  C     0.72762   0.97498   0.58294   0.00000  Uiso   1.00
C2062  C     0.74283   0.53219   0.41787   0.00000  Uiso   1.00
C2063  C     0.52513   0.72998   0.58221   0.00000  Uiso   1.00
C2064  C     0.97797   0.72540   0.04213   0.00000  Uiso   1.00
C2065  C     0.96758   0.74558   0.41799   0.00000  Uiso   1.00
C2066  C     0.77049   0.52488   0.58232   0.00000  Uiso   1.00
C2067  C     0.75591   0.96769   0.41795   0.00000  Uiso   1.00
C2068  C     0.74998   0.99975   0.02167   0.00000  Uiso   1.00
C2069  C     0.75000   0.99971   0.97894   0.00000  Uiso   1.00
C2070  C     0.50113   0.74938   0.02165   0.00000  Uiso   1.00
C2071  C     0.50109   0.74945   0.97897   0.00000  Uiso   1.00
C2072  C     0.50014   0.75251   0.52156   0.00000  Uiso   1.00
C2073  C     0.99991   0.75290   0.47883   0.00000  Uiso   1.00
C2074  C     0.74809   0.50001   0.52158   0.00000  Uiso   1.00
C2075  C     0.99280   0.78182   0.95871   0.00000  Uiso   1.00
C2076  C     0.74846   0.99981   0.47888   0.00000  Uiso   1.00
C2077  C     0.74997   0.50000   0.35518   0.00000  Uiso   1.00
C2078  C     0.74988   0.99999   0.64494   0.00000  Uiso   1.00
C2079  C     0.50000   0.75013   0.35518   0.00000  Uiso   1.00
C2080  C     0.50000   0.75006   0.64494   0.00000  Uiso   1.00
C2081  C     0.99996   0.74999   0.85520   0.00000  Uiso   1.00
C2082  C     0.50004   0.74999   0.14495   0.00000  Uiso   1.00
C2083  C     0.75000   0.50000   0.85520   0.00000  Uiso   1.00
C2084  C     0.75001   0.50000   0.14497   0.00000  Uiso   1.00
C2085  C     0.68000   0.57011   0.24996   0.00000  Uiso   1.00
C2086  C     0.77314   0.97570   0.04244   0.00000  Uiso   1.00
C2087  C     0.81980   0.92969   0.75029   0.00000  Uiso   1.00
C2088  C     0.92988   0.68000   0.24997   0.00000  Uiso   1.00
C2089  C     0.57034   0.81977   0.75033   0.00000  Uiso   1.00
C2090  C     0.81998   0.92987   0.24992   0.00000  Uiso   1.00
C2091  C     0.68020   0.57031   0.75030   0.00000  Uiso   1.00
C2092  C     0.57013   0.81998   0.24996   0.00000  Uiso   1.00
C2093  C     0.92970   0.68021   0.75028   0.00000  Uiso   1.00
C2094  C     0.67987   0.93001   0.74995   0.00000  Uiso   1.00
C2095  C     0.82029   0.56981   0.25026   0.00000  Uiso   1.00
C2096  C     0.93008   0.82019   0.74984   0.00000  Uiso   1.00
C2097  C     0.71710   0.99424   0.95833   0.00000  Uiso   1.00
C2098  C     0.56980   0.67970   0.25029   0.00000  Uiso   1.00
C2099  C     0.82013   0.56998   0.74995   0.00000  Uiso   1.00
C2100  C     0.67970   0.93020   0.25028   0.00000  Uiso   1.00
C2101  C     0.56999   0.67987   0.74992   0.00000  Uiso   1.00
C2102  C     0.93016   0.82026   0.25024   0.00000  Uiso   1.00
C2103  C     0.62623   0.90048   0.21961   0.00000  Uiso   1.00
C2104  C     0.87259   0.60070   0.78167   0.00000  Uiso   1.00
C2105  C     0.59925   0.62599   0.21982   0.00000  Uiso   1.00
C2106  C     0.90036   0.87363   0.78068   0.00000  Uiso   1.00
C2107  C     0.87348   0.59978   0.21933   0.00000  Uiso   1.00
C2108  C     0.52393   0.77366   0.04230   0.00000  Uiso   1.00
C2109  C     0.62707   0.89964   0.78142   0.00000  Uiso   1.00
C2110  C     0.90040   0.87362   0.21943   0.00000  Uiso   1.00
C2111  C     0.60020   0.62699   0.78124   0.00000  Uiso   1.00
C2112  C     0.62849   0.60174   0.78241   0.00000  Uiso   1.00
C2113  C     0.87219   0.89893   0.21830   0.00000  Uiso   1.00
C2114  C     0.60185   0.87132   0.78259   0.00000  Uiso   1.00
C2115  C     0.89877   0.62799   0.21827   0.00000  Uiso   1.00
C2116  C     0.87200   0.89875   0.78199   0.00000  Uiso   1.00
C2117  C     0.62749   0.60075   0.21864   0.00000  Uiso   1.00
C2118  C     0.89783   0.62901   0.78277   0.00000  Uiso   1.00
C2119  C     0.50886   0.71720   0.95814   0.00000  Uiso   1.00
C2120  C     0.60100   0.87223   0.21846   0.00000  Uiso   1.00
C2121  C     0.87619   0.65051   0.71964   0.00000  Uiso   1.00
C2122  C     0.62253   0.85073   0.28171   0.00000  Uiso   1.00
C2123  C     0.84884   0.87554   0.72018   0.00000  Uiso   1.00
C2124  C     0.64940   0.62265   0.28161   0.00000  Uiso   1.00
C2125  C     0.62439   0.84891   0.72018   0.00000  Uiso   1.00
C2126  C     0.87781   0.64891   0.28199   0.00000  Uiso   1.00
C2127  C     0.65106   0.62429   0.72007   0.00000  Uiso   1.00
C2128  C     0.85063   0.87742   0.28157   0.00000  Uiso   1.00
C2129  C     0.87887   0.85211   0.28262   0.00000  Uiso   1.00
C2130  C     0.97558   0.77477   0.54280   0.00000  Uiso   1.00
C2131  C     0.62281   0.64953   0.71882   0.00000  Uiso   1.00
C2132  C     0.85253   0.62062   0.28302   0.00000  Uiso   1.00
C2133  C     0.64957   0.87720   0.71889   0.00000  Uiso   1.00
C2134  C     0.62116   0.64797   0.28269   0.00000  Uiso   1.00
C2135  C     0.87715   0.85039   0.71882   0.00000  Uiso   1.00
C2136  C     0.64783   0.87900   0.28278   0.00000  Uiso   1.00
C2137  C     0.85098   0.62225   0.71848   0.00000  Uiso   1.00
C2138  C     0.59829   0.84797   0.25002   0.00000  Uiso   1.00
C2139  C     0.90098   0.65279   0.75083   0.00000  Uiso   1.00
C2140  C     0.65198   0.59824   0.25004   0.00000  Uiso   1.00
H2141  H     0.70794   0.54028   0.09851   0.00000  Uiso   1.00
H2142  H     0.55764   0.76169   0.40222   0.00000  Uiso   1.00
H2143  H     0.64054   0.61881   0.48801   0.00000  Uiso   1.00
H2144  H     0.55705   0.66415   0.48833   0.00000  Uiso   1.00
H2145  H     0.51299   0.68323   0.48618   0.00000  Uiso   1.00
H2146  H     0.54620   0.64394   0.55772   0.00000  Uiso   1.00
H2147  H     0.50002   0.66012   0.55398   0.00000  Uiso   1.00
H2148  H     0.98928   0.61803   0.49777   0.00000  Uiso   1.00
H2149  H     0.50272   0.59418   0.54129   0.00000  Uiso   1.00
H2150  H     0.53528   0.60103   0.50273   0.00000  Uiso   1.00
H2151  H     0.90920   0.70501   0.51310   0.00000  Uiso   1.00
H2152  H     0.95390   0.69170   0.50002   0.00000  Uiso   1.00
H2153  H     0.71130   0.95561   0.59895   0.00000  Uiso   1.00
H2154  H     0.88900   0.69718   0.44259   0.00000  Uiso   1.00
H2155  H     0.93328   0.67844   0.43211   0.00000  Uiso   1.00
H2156  H     0.92296   0.63001   0.48225   0.00000  Uiso   1.00
H2157  H     0.88904   0.62938   0.44430   0.00000  Uiso   1.00
H2158  H     0.87797   0.64817   0.49127   0.00000  Uiso   1.00
H2159  H     0.82043   0.51350   0.48633   0.00000  Uiso   1.00
H2160  H     0.83792   0.51577   0.53582   0.00000  Uiso   1.00
H2161  H     0.84119   0.57724   0.47506   0.00000  Uiso   1.00
H2162  H     0.86008   0.57830   0.52341   0.00000  Uiso   1.00
H2163  H     0.90081   0.52579   0.50646   0.00000  Uiso   1.00
H2164  H     0.73840   0.55746   0.40242   0.00000  Uiso   1.00
H2165  H     0.90764   0.56378   0.47419   0.00000  Uiso   1.00
H2166  H     0.88186   0.52503   0.45786   0.00000  Uiso   1.00
H2167  H     0.79913   0.90905   0.51207   0.00000  Uiso   1.00
H2168  H     0.80609   0.95653   0.50880   0.00000  Uiso   1.00
H2169  H     0.81758   0.90094   0.44194   0.00000  Uiso   1.00
H2170  H     0.82751   0.94889   0.43921   0.00000  Uiso   1.00
H2171  H     0.87333   0.94265   0.49231   0.00000  Uiso   1.00
H2172  H     0.88351   0.91346   0.45155   0.00000  Uiso   1.00
H2173  H     0.86391   0.89436   0.49506   0.00000  Uiso   1.00
H2174  H     0.60223   0.96384   0.22223   0.00000  Uiso   1.00
H2175  H     0.54445   0.71310   0.59759   0.00000  Uiso   1.00
H2176  H     0.57388   0.93987   0.18747   0.00000  Uiso   1.00
H2177  H     0.60695   0.96992   0.13316   0.00000  Uiso   1.00
H2178  H     0.58727   0.50278   0.16612   0.00000  Uiso   1.00
H2179  H     0.63547   0.99344   0.16789   0.00000  Uiso   1.00
H2180  H     0.92389   0.56285   0.81772   0.00000  Uiso   1.00
H2181  H     0.89725   0.53746   0.78256   0.00000  Uiso   1.00
H2182  H     0.86197   0.50936   0.83645   0.00000  Uiso   1.00
H2183  H     0.91011   0.50053   0.84082   0.00000  Uiso   1.00
H2184  H     0.88884   0.53430   0.87151   0.00000  Uiso   1.00
H2185  H     0.53553   0.60257   0.22315   0.00000  Uiso   1.00
H2186  H     0.94227   0.74091   0.40266   0.00000  Uiso   1.00
H2187  H     0.55936   0.57350   0.18894   0.00000  Uiso   1.00
H2188  H     0.52940   0.60567   0.13400   0.00000  Uiso   1.00
H2189  H     0.99645   0.58674   0.16735   0.00000  Uiso   1.00
H2190  H     0.50595   0.63489   0.16811   0.00000  Uiso   1.00
H2191  H     0.93965   0.92612   0.81261   0.00000  Uiso   1.00
H2192  H     0.96377   0.89786   0.77786   0.00000  Uiso   1.00
H2193  H     0.99373   0.86493   0.83224   0.00000  Uiso   1.00
H2194  H     0.50269   0.91316   0.83401   0.00000  Uiso   1.00
H2195  H     0.96996   0.89324   0.86695   0.00000  Uiso   1.00
H2196  H     0.89735   0.53630   0.22070   0.00000  Uiso   1.00
H2197  H     0.78769   0.54385   0.59777   0.00000  Uiso   1.00
H2198  H     0.92539   0.56065   0.18595   0.00000  Uiso   1.00
H2199  H     0.89169   0.53139   0.13161   0.00000  Uiso   1.00
H2200  H     0.91165   0.99806   0.16380   0.00000  Uiso   1.00
H2201  H     0.86349   0.50743   0.16629   0.00000  Uiso   1.00
H2202  H     0.57538   0.93800   0.81611   0.00000  Uiso   1.00
H2203  H     0.60265   0.96304   0.78121   0.00000  Uiso   1.00
H2204  H     0.63709   0.99159   0.83546   0.00000  Uiso   1.00
H2205  H     0.58888   0.50045   0.83897   0.00000  Uiso   1.00
H2206  H     0.60970   0.96691   0.87028   0.00000  Uiso   1.00
H2207  H     0.96406   0.89733   0.22157   0.00000  Uiso   1.00
H2208  H     0.76117   0.94254   0.40255   0.00000  Uiso   1.00
H2209  H     0.93986   0.92575   0.18708   0.00000  Uiso   1.00
H2210  H     0.50258   0.91227   0.16503   0.00000  Uiso   1.00
H2211  H     0.99319   0.86411   0.16686   0.00000  Uiso   1.00
H2212  H     0.96936   0.89267   0.13243   0.00000  Uiso   1.00
H2213  H     0.56158   0.57530   0.81572   0.00000  Uiso   1.00
H2214  H     0.53676   0.60259   0.78069   0.00000  Uiso   1.00
H2215  H     0.50785   0.63699   0.83470   0.00000  Uiso   1.00
H2216  H     0.99906   0.58882   0.83829   0.00000  Uiso   1.00
H2217  H     0.53244   0.60977   0.86973   0.00000  Uiso   1.00
H2218  H     0.64031   0.62309   0.85191   0.00000  Uiso   1.00
H2219  H     0.69829   0.59157   0.99003   0.00000  Uiso   1.00
H2220  H     0.68090   0.60212   0.83171   0.00000  Uiso   1.00
H2221  H     0.66852   0.54644   0.87039   0.00000  Uiso   1.00
H2222  H     0.67275   0.58610   0.90100   0.00000  Uiso   1.00
H2223  H     0.62829   0.56741   0.89064   0.00000  Uiso   1.00
H2224  H     0.82167   0.90813   0.16029   0.00000  Uiso   1.00
H2225  H     0.85822   0.87580   0.15318   0.00000  Uiso   1.00
H2226  H     0.89185   0.92045   0.11305   0.00000  Uiso   1.00
H2227  H     0.84722   0.91114   0.09350   0.00000  Uiso   1.00
H2228  H     0.85559   0.95308   0.11938   0.00000  Uiso   1.00
H2229  H     0.62343   0.85833   0.85168   0.00000  Uiso   1.00
H2230  H     0.74136   0.57032   0.98808   0.00000  Uiso   1.00
H2231  H     0.60166   0.81831   0.83122   0.00000  Uiso   1.00
H2232  H     0.54629   0.83133   0.87069   0.00000  Uiso   1.00
H2233  H     0.58625   0.82573   0.90061   0.00000  Uiso   1.00
H2234  H     0.56850   0.87073   0.89134   0.00000  Uiso   1.00
H2235  H     0.90838   0.67973   0.16156   0.00000  Uiso   1.00
H2236  H     0.87497   0.64419   0.15417   0.00000  Uiso   1.00
H2237  H     0.91721   0.61070   0.11173   0.00000  Uiso   1.00
H2238  H     0.91031   0.65652   0.09426   0.00000  Uiso   1.00
H2239  H     0.95195   0.64469   0.11926   0.00000  Uiso   1.00
H2240  H     0.86143   0.87828   0.85217   0.00000  Uiso   1.00
H2241  H     0.70923   0.61007   0.05998   0.00000  Uiso   1.00
H2242  H     0.82036   0.89823   0.83193   0.00000  Uiso   1.00
H2243  H     0.83193   0.95470   0.86939   0.00000  Uiso   1.00
H2244  H     0.82878   0.91556   0.90086   0.00000  Uiso   1.00
H2245  H     0.87277   0.93496   0.88964   0.00000  Uiso   1.00
H2246  H     0.67785   0.59177   0.16104   0.00000  Uiso   1.00
H2247  H     0.64072   0.62325   0.15291   0.00000  Uiso   1.00
H2248  H     0.60841   0.57718   0.11335   0.00000  Uiso   1.00
H2249  H     0.65301   0.58715   0.09405   0.00000  Uiso   1.00
H2250  H     0.64531   0.54548   0.12064   0.00000  Uiso   1.00
H2251  H     0.87551   0.64319   0.85137   0.00000  Uiso   1.00
H2252  H     0.80809   0.50767   0.90257   0.00000  Uiso   1.00
H2253  H     0.75462   0.59174   0.05646   0.00000  Uiso   1.00
H2254  H     0.89759   0.68279   0.83036   0.00000  Uiso   1.00
H2255  H     0.95262   0.67010   0.87063   0.00000  Uiso   1.00
H2256  H     0.91240   0.67684   0.89989   0.00000  Uiso   1.00
H2257  H     0.92978   0.63145   0.89206   0.00000  Uiso   1.00
H2258  H     0.59155   0.82097   0.16141   0.00000  Uiso   1.00
H2259  H     0.62444   0.85696   0.15386   0.00000  Uiso   1.00
H2260  H     0.58115   0.89019   0.11226   0.00000  Uiso   1.00
H2261  H     0.58887   0.84468   0.09425   0.00000  Uiso   1.00
H2262  H     0.54719   0.85539   0.11972   0.00000  Uiso   1.00
H2263  H     0.85209   0.71379   0.72267   0.00000  Uiso   1.00
H2264  H     0.76803   0.63419   0.00122   0.00000  Uiso   1.00
H2265  H     0.82367   0.68995   0.68786   0.00000  Uiso   1.00
H2266  H     0.85655   0.72031   0.63363   0.00000  Uiso   1.00
H2267  H     0.83693   0.75298   0.66684   0.00000  Uiso   1.00
H2268  H     0.88515   0.74367   0.66842   0.00000  Uiso   1.00
H2269  H     0.67362   0.81281   0.31813   0.00000  Uiso   1.00
H2270  H     0.64705   0.78742   0.28292   0.00000  Uiso   1.00
H2271  H     0.61151   0.75944   0.33668   0.00000  Uiso   1.00
H2272  H     0.65963   0.75067   0.34145   0.00000  Uiso   1.00
H2273  H     0.63813   0.78454   0.37184   0.00000  Uiso   1.00
H2274  H     0.78537   0.85190   0.72583   0.00000  Uiso   1.00
H2275  H     0.75532   0.65792   0.04507   0.00000  Uiso   1.00
H2276  H     0.80858   0.82219   0.69176   0.00000  Uiso   1.00
H2277  H     0.74512   0.83460   0.67151   0.00000  Uiso   1.00
H2278  H     0.75440   0.88281   0.67087   0.00000  Uiso   1.00
H2279  H     0.77717   0.85299   0.63683   0.00000  Uiso   1.00
H2280  H     0.68761   0.67381   0.31751   0.00000  Uiso   1.00
H2281  H     0.71290   0.64695   0.28246   0.00000  Uiso   1.00
H2282  H     0.74095   0.61179   0.33645   0.00000  Uiso   1.00
H2283  H     0.74977   0.65989   0.34089   0.00000  Uiso   1.00
H2284  H     0.71588   0.63863   0.37145   0.00000  Uiso   1.00
H2285  H     0.64799   0.78545   0.72521   0.00000  Uiso   1.00
H2286  H     0.72288   0.65334   0.00603   0.00000  Uiso   1.00
H2287  H     0.67754   0.80875   0.69105   0.00000  Uiso   1.00
H2288  H     0.64628   0.77771   0.63616   0.00000  Uiso   1.00
H2289  H     0.66483   0.74547   0.67051   0.00000  Uiso   1.00
H2290  H     0.61660   0.75486   0.67030   0.00000  Uiso   1.00
H2291  H     0.82706   0.68631   0.31959   0.00000  Uiso   1.00
H2292  H     0.85314   0.71213   0.28431   0.00000  Uiso   1.00
H2293  H     0.88925   0.73966   0.33793   0.00000  Uiso   1.00
H2294  H     0.84117   0.74827   0.34344   0.00000  Uiso   1.00
H2295  H     0.86307   0.71415   0.37313   0.00000  Uiso   1.00
H2296  H     0.71480   0.64755   0.72468   0.00000  Uiso   1.00
H2297  H     0.84417   0.54221   0.01219   0.00000  Uiso   1.00
H2298  H     0.69135   0.67718   0.69077   0.00000  Uiso   1.00
H2299  H     0.75447   0.66429   0.66966   0.00000  Uiso   1.00
H2300  H     0.74496   0.61613   0.66940   0.00000  Uiso   1.00
H2301  H     0.72189   0.64591   0.63556   0.00000  Uiso   1.00
H2302  H     0.81256   0.82639   0.31802   0.00000  Uiso   1.00
H2303  H     0.78729   0.85291   0.28269   0.00000  Uiso   1.00
H2304  H     0.75909   0.88849   0.33624   0.00000  Uiso   1.00
H2305  H     0.75035   0.84042   0.34120   0.00000  Uiso   1.00
H2306  H     0.78415   0.86207   0.37158   0.00000  Uiso   1.00
H2307  H     0.89214   0.87403   0.35164   0.00000  Uiso   1.00
H2308  H     0.79949   0.55730   0.00164   0.00000  Uiso   1.00
H2309  H     0.93217   0.85250   0.33086   0.00000  Uiso   1.00
H2310  H     0.91991   0.79724   0.37042   0.00000  Uiso   1.00
H2311  H     0.92519   0.83717   0.40045   0.00000  Uiso   1.00
H2312  H     0.88033   0.81891   0.39130   0.00000  Uiso   1.00
H2313  H     0.57351   0.65897   0.66015   0.00000  Uiso   1.00
H2314  H     0.61089   0.62768   0.65257   0.00000  Uiso   1.00
H2315  H     0.64402   0.67457   0.61462   0.00000  Uiso   1.00
H2316  H     0.60015   0.66409   0.59381   0.00000  Uiso   1.00
H2317  H     0.60644   0.70567   0.62094   0.00000  Uiso   1.00
H2318  H     0.87546   0.60565   0.35113   0.00000  Uiso   1.00
H2319  H     0.86151   0.55046   0.94077   0.00000  Uiso   1.00
H2320  H     0.85300   0.56633   0.33001   0.00000  Uiso   1.00
H2321  H     0.79847   0.57882   0.37113   0.00000  Uiso   1.00
H2322  H     0.83899   0.57184   0.39985   0.00000  Uiso   1.00
H2323  H     0.82161   0.61730   0.39258   0.00000  Uiso   1.00
H2324  H     0.65909   0.92624   0.65974   0.00000  Uiso   1.00
H2325  H     0.62762   0.88893   0.65271   0.00000  Uiso   1.00
H2326  H     0.67431   0.85528   0.61495   0.00000  Uiso   1.00
H2327  H     0.66391   0.89892   0.59368   0.00000  Uiso   1.00
H2328  H     0.70558   0.89280   0.62070   0.00000  Uiso   1.00
H2329  H     0.60828   0.62637   0.35181   0.00000  Uiso   1.00
H2330  H     0.81764   0.57124   0.93311   0.00000  Uiso   1.00
H2331  H     0.56813   0.64802   0.33147   0.00000  Uiso   1.00
H2332  H     0.58085   0.70326   0.37094   0.00000  Uiso   1.00
H2333  H     0.57604   0.66333   0.40104   0.00000  Uiso   1.00
H2334  H     0.62075   0.68160   0.39115   0.00000  Uiso   1.00
H2335  H     0.92627   0.84066   0.65975   0.00000  Uiso   1.00
H2336  H     0.88909   0.87228   0.65272   0.00000  Uiso   1.00
H2337  H     0.85526   0.82582   0.61484   0.00000  Uiso   1.00
H2338  H     0.89902   0.83611   0.59364   0.00000  Uiso   1.00
H2339  H     0.89269   0.79444   0.62054   0.00000  Uiso   1.00
H2340  H     0.62582   0.89225   0.35166   0.00000  Uiso   1.00
H2341  H     0.83242   0.61803   0.98398   0.00000  Uiso   1.00
H2342  H     0.64766   0.93225   0.33126   0.00000  Uiso   1.00
H2343  H     0.70273   0.91955   0.37111   0.00000  Uiso   1.00
H2344  H     0.66261   0.92473   0.40093   0.00000  Uiso   1.00
H2345  H     0.68075   0.87992   0.39148   0.00000  Uiso   1.00
H2346  H     0.84154   0.57099   0.66159   0.00000  Uiso   1.00
H2347  H     0.87427   0.60709   0.65374   0.00000  Uiso   1.00
H2348  H     0.83082   0.63998   0.61215   0.00000  Uiso   1.00
H2349  H     0.83838   0.59436   0.59437   0.00000  Uiso   1.00
H2350  H     0.79686   0.60528   0.62006   0.00000  Uiso   1.00
H2351  H     0.86423   0.61828   0.94397   0.00000  Uiso   1.00
H2352  H     0.96124   0.70655   0.09821   0.00000  Uiso   1.00
H2353  H     0.87703   0.59793   0.98967   0.00000  Uiso   1.00
H2354  H     0.92769   0.73739   0.98918   0.00000  Uiso   1.00
H2355  H     0.91038   0.73137   0.03836   0.00000  Uiso   1.00
H2356  H     0.90925   0.67356   0.97348   0.00000  Uiso   1.00
H2357  H     0.89045   0.66897   0.02161   0.00000  Uiso   1.00
H2358  H     0.84762   0.72057   0.00825   0.00000  Uiso   1.00
H2359  H     0.84242   0.68446   0.97325   0.00000  Uiso   1.00
H2360  H     0.86659   0.72518   0.95987   0.00000  Uiso   1.00
H2361  H     0.94170   0.79648   0.00946   0.00000  Uiso   1.00
H2362  H     0.93203   0.81286   0.96058   0.00000  Uiso   1.00
H2363  H     0.98770   0.80711   0.90308   0.00000  Uiso   1.00
H2364  H     0.95871   0.85918   0.02966   0.00000  Uiso   1.00
H2365  H     0.94864   0.87556   0.98144   0.00000  Uiso   1.00
H2366  H     0.88386   0.85528   0.98893   0.00000  Uiso   1.00
H2367  H     0.89698   0.88665   0.02673   0.00000  Uiso   1.00
H2368  H     0.89403   0.83874   0.03734   0.00000  Uiso   1.00
H2369  H     0.80162   0.90761   0.99064   0.00000  Uiso   1.00
H2370  H     0.75868   0.92907   0.98825   0.00000  Uiso   1.00
H2371  H     0.79022   0.88971   0.06066   0.00000  Uiso   1.00
H2372  H     0.74496   0.90830   0.05680   0.00000  Uiso   1.00
H2373  H     0.73151   0.86552   0.00186   0.00000  Uiso   1.00
H2374  H     0.79219   0.95965   0.09863   0.00000  Uiso   1.00
H2375  H     0.74386   0.84206   0.04597   0.00000  Uiso   1.00
H2376  H     0.77650   0.84609   0.00704   0.00000  Uiso   1.00
H2377  H     0.65566   0.95696   0.01175   0.00000  Uiso   1.00
H2378  H     0.70044   0.94202   0.00139   0.00000  Uiso   1.00
H2379  H     0.63882   0.94904   0.94010   0.00000  Uiso   1.00
H2380  H     0.68276   0.92832   0.93269   0.00000  Uiso   1.00
H2381  H     0.66761   0.88136   0.98326   0.00000  Uiso   1.00
H2382  H     0.63620   0.88118   0.94292   0.00000  Uiso   1.00
H2383  H     0.62292   0.90136   0.98857   0.00000  Uiso   1.00
H2384  H     0.57298   0.76385   0.98612   0.00000  Uiso   1.00
H2385  H     0.69189   0.99221   0.90254   0.00000  Uiso   1.00
H2386  H     0.59066   0.76521   0.03559   0.00000  Uiso   1.00
H2387  H     0.59362   0.82768   0.97598   0.00000  Uiso   1.00
H2388  H     0.61246   0.82818   0.02436   0.00000  Uiso   1.00
H2389  H     0.65354   0.77620   0.00665   0.00000  Uiso   1.00
H2390  H     0.66013   0.81465   0.97494   0.00000  Uiso   1.00
H2391  H     0.63462   0.77593   0.95802   0.00000  Uiso   1.00
H2392  H     0.55162   0.65875   0.01123   0.00000  Uiso   1.00
H2393  H     0.55976   0.70593   0.00602   0.00000  Uiso   1.00
H2394  H     0.56729   0.64821   0.94060   0.00000  Uiso   1.00
H2395  H     0.57863   0.69572   0.93609   0.00000  Uiso   1.00
H2396  H     0.53952   0.79320   0.09849   0.00000  Uiso   1.00
H2397  H     0.62604   0.68924   0.98757   0.00000  Uiso   1.00
H2398  H     0.63385   0.65876   0.94730   0.00000  Uiso   1.00
H2399  H     0.61516   0.64138   0.99207   0.00000  Uiso   1.00
H2400  H     0.94219   0.84173   0.49259   0.00000  Uiso   1.00
H2401  H     0.98595   0.82240   0.48800   0.00000  Uiso   1.00
H2402  H     0.95533   0.85919   0.56244   0.00000  Uiso   1.00
H2403  H     0.50128   0.84302   0.55622   0.00000  Uiso   1.00
H2404  H     0.51042   0.88718   0.50160   0.00000  Uiso   1.00
H2405  H     0.99844   0.90941   0.54658   0.00000  Uiso   1.00
H2406  H     0.96467   0.90412   0.50895   0.00000  Uiso   1.00
H2407  H     0.51218   0.69247   0.90215   0.00000  Uiso   1.00
H2408  H     0.59042   0.80276   0.51088   0.00000  Uiso   1.00
H2409  H     0.54540   0.81495   0.49793   0.00000  Uiso   1.00
H2410  H     0.60997   0.80875   0.44011   0.00000  Uiso   1.00
H2411  H     0.56524   0.82605   0.42913   0.00000  Uiso   1.00
H2412  H     0.57455   0.87684   0.47661   0.00000  Uiso   1.00
H2413  H     0.60884   0.87639   0.43907   0.00000  Uiso   1.00
H2414  H     0.61974   0.85983   0.48701   0.00000  Uiso   1.00
H2415  H     0.66058   0.94079   0.49057   0.00000  Uiso   1.00
H2416  H     0.67907   0.98497   0.48687   0.00000  Uiso   1.00
H2417  H     0.64097   0.95310   0.55990   0.00000  Uiso   1.00
H2418  H     0.95562   0.78868   0.59927   0.00000  Uiso   1.00
H2419  H     0.65649   0.99934   0.55463   0.00000  Uiso   1.00
H2420  H     0.61358   0.50812   0.49877   0.00000  Uiso   1.00
H2421  H     0.59037   0.99533   0.54293   0.00000  Uiso   1.00
H2422  H     0.59730   0.96203   0.50514   0.00000  Uiso   1.00
H2423  H     0.69773   0.58946   0.51153   0.00000  Uiso   1.00
H2424  H     0.68574   0.54458   0.49788   0.00000  Uiso   1.00
H2425  H     0.69172   0.60981   0.44100   0.00000  Uiso   1.00
H2426  H     0.67459   0.56517   0.42941   0.00000  Uiso   1.00
H2427  H     0.62372   0.57369   0.47700   0.00000  Uiso   1.00
H2428  H     0.62402   0.60837   0.43992   0.00000  Uiso   1.00
O2429  O     0.75000   0.50000   0.25000   0.00000  Uiso   1.00
O2430  O     0.75000   0.96964   0.66317   0.00000  Uiso   1.00
O2431  O     0.82760   0.62003   0.68704   0.00000  Uiso   1.00
O2432  O     0.96964   0.75000   0.33683   0.00000  Uiso   1.00
O2433  O     0.53036   0.75000   0.66317   0.00000  Uiso   1.00
O2434  O     0.50000   0.71964   0.83683   0.00000  Uiso   1.00
O2435  O     0.50000   0.78036   0.16317   0.00000  Uiso   1.00
O2436  O     0.78036   0.50000   0.83683   0.00000  Uiso   1.00
O2437  O     0.71964   0.50000   0.16317   0.00000  Uiso   1.00
O2438  O     0.50000   0.78036   0.83683   0.00000  Uiso   1.00
O2439  O     0.50000   0.71964   0.16317   0.00000  Uiso   1.00
O2440  O     0.71964   0.50000   0.83683   0.00000  Uiso   1.00
O2441  O     0.75000   0.50000   0.75000   0.00000  Uiso   1.00
O2442  O     0.78036   0.50000   0.16317   0.00000  Uiso   1.00
O2443  O     0.70725   0.57307   0.27282   0.00000  Uiso   1.00
O2444  O     0.79274   0.92693   0.72718   0.00000  Uiso   1.00
O2445  O     0.92693   0.70725   0.27282   0.00000  Uiso   1.00
O2446  O     0.57307   0.79274   0.72718   0.00000  Uiso   1.00
O2447  O     0.79274   0.92693   0.27282   0.00000  Uiso   1.00
O2448  O     0.70725   0.57307   0.72718   0.00000  Uiso   1.00
O2449  O     0.57307   0.79274   0.27282   0.00000  Uiso   1.00
O2450  O     0.92693   0.70725   0.72718   0.00000  Uiso   1.00
O2451  O     0.70725   0.92693   0.72718   0.00000  Uiso   1.00
O2452  O     0.50000   0.75000   0.25000   0.00000  Uiso   1.00
O2453  O     0.79274   0.57307   0.27282   0.00000  Uiso   1.00
O2454  O     0.92693   0.79274   0.72718   0.00000  Uiso   1.00
O2455  O     0.57307   0.70725   0.27282   0.00000  Uiso   1.00
O2456  O     0.79274   0.57307   0.72718   0.00000  Uiso   1.00
O2457  O     0.70725   0.92693   0.27282   0.00000  Uiso   1.00
O2458  O     0.57307   0.70725   0.72718   0.00000  Uiso   1.00
O2459  O     0.92693   0.79274   0.27282   0.00000  Uiso   1.00
O2460  O     0.95725   0.82307   0.77282   0.00000  Uiso   1.00
O2461  O     0.54274   0.67693   0.22718   0.00000  Uiso   1.00
O2462  O     0.67693   0.95725   0.77282   0.00000  Uiso   1.00
O2463  O     0.50000   0.75000   0.75000   0.00000  Uiso   1.00
O2464  O     0.82307   0.54274   0.22718   0.00000  Uiso   1.00
O2465  O     0.54274   0.67693   0.77282   0.00000  Uiso   1.00
O2466  O     0.95725   0.82307   0.22718   0.00000  Uiso   1.00
O2467  O     0.82307   0.54274   0.77282   0.00000  Uiso   1.00
O2468  O     0.67693   0.95725   0.22718   0.00000  Uiso   1.00
O2469  O     0.95725   0.67693   0.22718   0.00000  Uiso   1.00
O2470  O     0.54274   0.82307   0.77282   0.00000  Uiso   1.00
O2471  O     0.67693   0.54274   0.22718   0.00000  Uiso   1.00
O2472  O     0.82307   0.95725   0.77282   0.00000  Uiso   1.00
O2473  O     0.54274   0.82307   0.22718   0.00000  Uiso   1.00
O2474  O     0.75000   0.96964   0.33683   0.00000  Uiso   1.00
O2475  O     0.95725   0.67693   0.77282   0.00000  Uiso   1.00
O2476  O     0.82307   0.95725   0.22718   0.00000  Uiso   1.00
O2477  O     0.67693   0.54274   0.77282   0.00000  Uiso   1.00
O2478  O     0.70186   0.54643   0.02415   0.00000  Uiso   1.00
O2479  O     0.81618   0.50746   0.97708   0.00000  Uiso   1.00
O2480  O     0.95607   0.70049   0.02315   0.00000  Uiso   1.00
O2481  O     0.98652   0.81419   0.97806   0.00000  Uiso   1.00
O2482  O     0.79810   0.95307   0.02430   0.00000  Uiso   1.00
O2483  O     0.68381   0.99194   0.97706   0.00000  Uiso   1.00
O2484  O     0.54591   0.79871   0.02358   0.00000  Uiso   1.00
O2485  O     0.75000   0.53036   0.66317   0.00000  Uiso   1.00
O2486  O     0.51449   0.68418   0.97657   0.00000  Uiso   1.00
O2487  O     0.94913   0.79603   0.52519   0.00000  Uiso   1.00
O2488  O     0.56542   0.76492   0.47680   0.00000  Uiso   1.00
O2489  O     0.70529   0.94850   0.52460   0.00000  Uiso   1.00
O2490  O     0.73576   0.56511   0.47711   0.00000  Uiso   1.00
O2491  O     0.55083   0.70855   0.52317   0.00000  Uiso   1.00
O2492  O     0.93432   0.74132   0.47729   0.00000  Uiso   1.00
O2493  O     0.79325   0.54910   0.52290   0.00000  Uiso   1.00
O2494  O     0.76243   0.93453   0.47693   0.00000  Uiso   1.00
O2495  O     0.62836   0.92415   0.18839   0.00000  Uiso   1.00
O2496  O     0.53036   0.75000   0.33683   0.00000  Uiso   1.00
O2497  O     0.86937   0.57794   0.81355   0.00000  Uiso   1.00
O2498  O     0.57533   0.62789   0.18877   0.00000  Uiso   1.00
O2499  O     0.92424   0.87160   0.81176   0.00000  Uiso   1.00
O2500  O     0.87095   0.57648   0.18781   0.00000  Uiso   1.00
O2501  O     0.62992   0.92277   0.81306   0.00000  Uiso   1.00
O2502  O     0.92401   0.87133   0.18812   0.00000  Uiso   1.00
O2503  O     0.57696   0.62977   0.81281   0.00000  Uiso   1.00
O2504  O     0.63160   0.57916   0.81441   0.00000  Uiso   1.00
O2505  O     0.87005   0.92245   0.18698   0.00000  Uiso   1.00
O2506  O     0.57935   0.86809   0.81469   0.00000  Uiso   1.00
O2507  O     0.96964   0.75000   0.66317   0.00000  Uiso   1.00
O2508  O     0.92193   0.63047   0.18666   0.00000  Uiso   1.00
O2509  O     0.86922   0.92164   0.81378   0.00000  Uiso   1.00
O2510  O     0.62941   0.57704   0.18745   0.00000  Uiso   1.00
O2511  O     0.91994   0.63266   0.81510   0.00000  Uiso   1.00
O2512  O     0.57766   0.86996   0.18699   0.00000  Uiso   1.00
O2513  O     0.87817   0.67430   0.68851   0.00000  Uiso   1.00
O2514  O     0.61917   0.82806   0.31367   0.00000  Uiso   1.00
O2515  O     0.82419   0.87665   0.68976   0.00000  Uiso   1.00
O2516  O     0.67220   0.61941   0.31349   0.00000  Uiso   1.00
O2517  O     0.62307   0.82449   0.68956   0.00000  Uiso   1.00
O2518  O     0.75000   0.53036   0.33683   0.00000  Uiso   1.00
O2519  O     0.88150   0.67126   0.31417   0.00000  Uiso   1.00
O2520  O     0.67539   0.62280   0.68935   0.00000  Uiso   1.00
O2521  O     0.82792   0.88077   0.31352   0.00000  Uiso   1.00
O2522  O     0.88235   0.82985   0.31484   0.00000  Uiso   1.00
O2523  O     0.62127   0.67360   0.68794   0.00000  Uiso   1.00
O2524  O     0.83069   0.61666   0.31553   0.00000  Uiso   1.00
O2525  O     0.67367   0.87876   0.68801   0.00000  Uiso   1.00
O2526  O     0.61784   0.67044   0.31478   0.00000  Uiso   1.00
O2527  O     0.87864   0.82627   0.68797   0.00000  Uiso   1.00
O2528  O     0.67015   0.88249   0.31497   0.00000  Uiso   1.00
Zn2529 Zn    0.70660   0.50000   0.21760   0.00000  Uiso   1.00
Zn2530 Zn    0.54340   0.75000   0.28240   0.00000  Uiso   1.00
Zn2531 Zn    0.75000   0.95660   0.71760   0.00000  Uiso   1.00
Zn2532 Zn    0.75000   0.54340   0.28240   0.00000  Uiso   1.00
Zn2533 Zn    0.54340   0.75000   0.71760   0.00000  Uiso   1.00
Zn2534 Zn    0.95660   0.75000   0.28240   0.00000  Uiso   1.00
Zn2535 Zn    0.75000   0.54340   0.71760   0.00000  Uiso   1.00
Zn2536 Zn    0.75000   0.95660   0.28240   0.00000  Uiso   1.00
Zn2537 Zn    0.79340   0.50000   0.78240   0.00000  Uiso   1.00
Zn2538 Zn    0.50000   0.70660   0.21760   0.00000  Uiso   1.00
Zn2539 Zn    0.50000   0.79340   0.78240   0.00000  Uiso   1.00
Zn2540 Zn    0.79340   0.50000   0.21760   0.00000  Uiso   1.00
Zn2541 Zn    0.70660   0.50000   0.78240   0.00000  Uiso   1.00
Zn2542 Zn    0.50000   0.79340   0.21760   0.00000  Uiso   1.00
Zn2543 Zn    0.50000   0.70660   0.78240   0.00000  Uiso   1.00
Zn2544 Zn    0.95660   0.75000   0.71760   0.00000  Uiso   1.00
loop_
_geom_bond_atom_site_label_1
_geom_bond_atom_site_label_2
_geom_bond_distance
_geom_bond_site_symmetry_2
_ccdc_geom_bond_type
C1     C79     1.391   .     A
C1     O570    1.388   .     S
C1     C1432   1.421   1_545 S
C2     O580    1.386   .     S
C2     C152    1.391   .     A
C2     C801    1.416   1_455 S
C3     C215    1.411   .     A
C3     C208    1.409   .     A
C3     C179    1.461   .     S
C4     C218    1.412   .     A
C4     C180    1.460   .     S
C4     C207    1.410   .     A
C5     C217    1.411   .     A
C5     C206    1.410   .     A
C5     C181    1.460   .     S
C6     C205    1.410   .     A
C6     C182    1.460   .     S
C6     C220    1.412   .     A
C7     C183    1.461   .     S
C7     C204    1.409   .     A
C7     C219    1.411   .     A
C8     C193    1.460   .     S
C8     C203    1.412   .     A
C8     C223    1.410   .     A
C9     C202    1.411   .     A
C9     C194    1.460   .     S
C9     C221    1.409   .     A
C10    C186    1.460   .     S
C10    C225    1.410   .     A
C10    C201    1.412   .     A
C11    C224    1.410   .     A
C11    C199    1.410   .     A
C11    C187    1.460   .     S
C12    C227    1.410   .     A
C12    C198    1.412   .     A
C12    C188    1.460   .     S
C13    C153    1.392   .     A
C13    O581    1.388   .     S
C13    C1438   1.419   .     S
C14    C197    1.411   .     A
C14    C226    1.410   .     A
C14    C190    1.460   .     S
C15    C191    1.460   .     S
C15    C196    1.412   .     A
C15    C229    1.409   .     A
C16    C228    1.410   .     A
C16    C195    1.411   .     A
C16    C192    1.460   .     S
C17    C124    1.392   .     A
C17    C1351   1.392   .     S
C17    C1448   1.449   .     S
C18    C135    1.398   .     A
C18    C1362   1.398   .     S
C18    C1447   1.460   .     S
C19    C174    1.451   .     S
C19    C146    1.395   .     A
C19    C737    1.395   1_455 S
C20    C150    1.399   .     A
C20    C749    1.399   1_455 S
C20    C809    1.461   1_455 S
C21    C172    1.451   .     S
C21    C155    1.393   .     A
C21    C787    1.393   1_455 S
C22    C157    1.398   .     A
C22    C807    1.458   .     S
C22    C788    1.398   .     S
C23    C153    1.395   .     A
C23    C170    1.451   .     S
C23    C1430   1.393   .     S
C24    C154    1.390   .     A
C24    O582    1.386   .     S
C24    C1440   1.416   1_545 S
C25    C159    1.398   .     A
C25    C1441   1.459   .     S
C25    C1426   1.398   .     S
C26    C27     1.536   .     S
C26    O570    1.415   .     S
C26    H311    1.111   1_554 S
C26    H322    1.108   1_554 S
C27    H345    1.111   .     S
C27    H333    1.111   .     S
C27    C28     1.526   .     S
C28    H356    1.110   .     S
C28    H367    1.110   .     S
C28    H378    1.111   .     S
C29    O571    1.414   .     S
C29    C30     1.535   .     S
C29    H389    1.111   1_556 S
C29    H400    1.110   1_556 S
C30    C31     1.525   .     S
C30    H422    1.111   .     S
C30    H411    1.111   .     S
C31    H443    1.111   .     S
C31    H445    1.111   .     S
C31    H433    1.110   .     S
C32    O572    1.411   .     S
C32    H447    1.116   .     S
C32    C33     1.527   1_554 S
C32    H446    1.111   1_554 S
C33    C34     1.527   .     S
C33    H448    1.111   .     S
C33    C32     1.527   1_556 S
C33    H449    1.111   1_556 S
C34    H452    1.111   .     S
C34    H451    1.109   .     S
C34    H450    1.111   1_556 S
C35    C155    1.391   .     A
C35    C164    1.421   .     A
C35    O583    1.388   .     S
C36    H454    1.116   .     S
C36    O573    1.411   .     S
C36    C37     1.528   1_556 S
C36    H453    1.112   1_556 S
C37    C38     1.527   .     S
C37    H456    1.112   .     S
C37    C36     1.528   1_554 S
C37    H457    1.112   1_554 S
C38    H459    1.111   .     S
C38    H460    1.111   .     S
C38    H458    1.111   1_554 S
C39    O574    1.415   .     S
C39    C40     1.537   .     S
C39    H461    1.111   1_554 S
C39    H462    1.108   1_554 S
C40    H463    1.111   .     S
C40    H464    1.111   .     S
C40    C41     1.526   .     S
C41    H468    1.111   .     S
C41    H465    1.110   .     S
C41    H467    1.110   .     S
C42    C43     1.535   .     S
C42    O575    1.414   .     S
C42    H469    1.111   1_556 S
C42    H470    1.110   1_556 S
C43    C44     1.525   .     S
C43    H471    1.112   .     S
C43    H472    1.111   .     S
C44    H473    1.110   .     S
C44    H475    1.111   .     S
C44    H474    1.111   .     S
C45    O576    1.412   .     S
C45    H478    1.117   .     S
C45    C47     1.527   1_554 S
C45    H476    1.111   1_554 S
C46    C165    1.416   .     A
C46    O584    1.385   .     S
C46    C157    1.390   .     A
C47    H479    1.112   .     S
C47    C48     1.527   .     S
C47    C45     1.527   1_556 S
C47    H480    1.111   1_556 S
C48    H483    1.111   .     S
C48    H482    1.109   .     S
C48    H481    1.111   1_556 S
C49    C50     1.536   .     S
C49    O578    1.415   .     S
C49    H484    1.111   1_556 S
C49    H485    1.109   1_556 S
C50    H487    1.111   .     S
C50    C51     1.526   .     S
C50    H486    1.112   .     S
C51    H490    1.111   .     S
C51    H491    1.111   .     S
C51    H489    1.111   .     S
C52    O579    1.415   .     S
C52    H493    1.107   .     S
C52    C53     1.537   .     S
C52    H492    1.111   .     S
C53    H494    1.111   .     S
C53    C54     1.526   .     S
C53    H1131   1.111   .     S
C54    H497    1.110   .     S
C54    H498    1.111   .     S
C54    H1132   1.110   .     S
C55    O580    1.414   .     S
C55    H501    1.110   .     S
C55    H500    1.111   .     S
C55    C56     1.535   .     S
C56    H503    1.111   .     S
C56    C58     1.527   .     S
C56    H502    1.112   .     S
C57    O585    1.385   .     S
C57    C166    1.418   .     A
C57    C158    1.390   .     A
C58    H506    1.111   .     S
C58    H504    1.110   .     S
C58    H505    1.111   .     S
C59    H508    1.107   .     S
C59    C60     1.537   .     S
C59    H507    1.111   .     S
C59    O581    1.415   .     S
C60    H509    1.110   .     S
C60    H511    1.111   .     S
C60    C61     1.526   .     S
C61    H514    1.111   .     S
C61    H513    1.110   .     S
C61    H1784   1.111   .     S
C62    H516    1.111   .     S
C62    C63     1.535   .     S
C62    H515    1.111   .     S
C62    O582    1.414   .     S
C63    H518    1.111   .     S
C63    H517    1.112   .     S
C63    C64     1.527   .     S
C64    H235    1.111   .     S
C64    H519    1.110   .     S
C64    H520    1.111   .     S
C65    O583    1.416   .     S
C65    H236    1.111   .     S
C65    H237    1.108   .     S
C65    C66     1.537   .     S
C66    C67     1.526   .     S
C66    H238    1.110   .     S
C66    H239    1.111   .     S
C67    H242    1.111   .     S
C67    H241    1.110   .     S
C67    H876    1.111   1_455 S
C68    O586    1.387   .     S
C68    C168    1.417   .     A
C68    C159    1.391   .     A
C69    H244    1.111   .     S
C69    C70     1.534   .     S
C69    H243    1.111   .     S
C69    O584    1.414   .     S
C70    H247    1.111   .     S
C70    C71     1.525   .     S
C70    H246    1.111   .     S
C71    H249    1.111   .     S
C71    H248    1.110   .     S
C71    H250    1.111   .     S
C72    C73     1.527   .     S
C72    O585    1.412   .     S
C72    H251    1.111   .     S
C72    H252    1.117   .     S
C73    H254    1.111   .     S
C73    C74     1.527   .     S
C73    H253    1.112   .     S
C74    H258    1.111   .     S
C74    H255    1.111   .     S
C74    H257    1.109   .     S
C75    O586    1.415   .     S
C75    H259    1.111   .     S
C75    C76     1.536   .     S
C75    H260    1.109   .     S
C76    H262    1.111   .     S
C76    H261    1.112   .     S
C76    C77     1.526   .     S
C77    H263    1.111   .     S
C77    H265    1.111   .     S
C77    H264    1.111   .     S
C78    H266    1.116   .     S
C78    H268    1.112   .     S
C78    C80     1.521   .     S
C78    O587    1.414   .     S
C79    H233    1.082   .     S
C79    C1289   1.392   1_545 S
C80    H269    1.111   .     S
C80    H271    1.111   .     S
C80    H1542   1.111   .     S
C81    O589    1.414   .     S
C81    H272    1.112   .     S
C81    H273    1.116   .     S
C81    C82     1.522   .     S
C82    H274    1.110   .     S
C82    H275    1.111   .     S
C82    H276    1.111   .     S
C83    H279    1.112   .     S
C83    O590    1.414   .     S
C83    H277    1.116   .     S
C83    C84     1.522   .     S
C84    H282    1.111   .     S
C84    H280    1.111   .     S
C84    H917    1.111   1_455 S
C85    C86     1.522   .     S
C85    H283    1.113   .     S
C85    H284    1.116   .     S
C85    O591    1.414   .     S
C86    H287    1.111   .     S
C86    H285    1.111   .     S
C86    H922    1.111   .     S
C87    H290    1.112   .     S
C87    O592    1.414   .     S
C87    H288    1.116   .     S
C87    C88     1.521   .     S
C88    H293    1.111   .     S
C88    H291    1.111   .     S
C88    H1564   1.111   1_545 S
C89    H295    1.116   .     S
C89    H294    1.112   .     S
C89    O593    1.414   .     S
C89    C91     1.522   .     S
C90    H344    1.083   .     S
C90    C112    1.390   .     A
C90    C1290   1.398   1_545 S
C91    H296    1.111   .     S
C91    H298    1.111   .     S
C91    H1569   1.111   .     S
C92    H299    1.116   .     S
C92    H301    1.112   .     S
C92    O594    1.414   .     S
C92    C93     1.521   .     S
C93    H304    1.111   .     S
C93    H303    1.111   .     S
C93    H938    1.111   .     S
C94    C95     1.522   .     S
C94    H306    1.116   .     S
C94    O595    1.414   .     S
C94    H305    1.112   .     S
C95    H307    1.111   .     S
C95    H309    1.111   .     S
C95    H944    1.111   1_455 S
C96    O596    1.412   .     S
C96    H310    1.114   .     S
C96    C97     1.520   .     S
C96    H312    1.114   .     S
C97    H314    1.111   .     S
C97    H313    1.109   .     S
C97    H315    1.111   .     S
C98    H317    1.116   .     S
C98    O597    1.413   .     S
C98    C99     1.521   .     S
C98    H316    1.112   .     S
C99    H319    1.110   .     S
C99    H320    1.110   .     S
C99    H318    1.111   .     S
C100   H321    1.114   .     S
C100   H323    1.114   .     S
C100   C102    1.521   .     S
C100   O598    1.413   .     S
C101   C156    1.391   .     A
C101   H444    1.081   .     S
C101   C655    1.395   .     S
C102   H324    1.109   .     S
C102   H325    1.110   .     S
C102   H326    1.111   .     S
C103   H327    1.112   .     S
C103   O600    1.413   .     S
C103   H328    1.116   .     S
C103   C104    1.521   .     S
C104   H329    1.111   .     S
C104   H331    1.110   .     S
C104   H330    1.110   .     S
C105   H334    1.115   .     S
C105   O601    1.412   .     S
C105   C106    1.520   .     S
C105   H332    1.114   .     S
C106   H335    1.108   .     S
C106   H337    1.111   .     S
C106   H336    1.111   .     S
C107   C108    1.521   .     S
C107   O602    1.413   .     S
C107   H338    1.112   .     S
C107   H339    1.116   .     S
C108   H341    1.110   .     S
C108   H340    1.111   .     S
C108   H342    1.110   .     S
C109   C110    1.521   .     S
C109   O603    1.412   .     S
C109   H343    1.114   .     S
C109   H346    1.114   .     S
C110   H348    1.110   .     S
C110   H349    1.111   .     S
C110   H347    1.109   .     S
C111   O604    1.413   .     S
C111   H350    1.112   .     S
C111   C114    1.521   .     S
C111   H351    1.116   .     S
C112   O571    1.386   .     S
C112   C1433   1.416   1_545 S
C113   C167    1.392   .     A
C113   H455    1.084   .     S
C113   C656    1.399   .     S
C114   H353    1.110   .     S
C114   H352    1.111   .     S
C114   H354    1.110   .     S
C115   H357    1.112   .     S
C115   H355    1.116   .     S
C115   O605    1.414   .     S
C115   C116    1.521   .     S
C116   H359    1.111   .     S
C116   H358    1.111   .     S
C116   H360    1.111   .     S
C117   C118    1.522   .     S
C117   H362    1.116   .     S
C117   O606    1.414   .     S
C117   H361    1.112   .     S
C118   H364    1.111   .     S
C118   H365    1.111   .     S
C118   H363    1.111   .     S
C119   O607    1.414   .     S
C119   H368    1.113   .     S
C119   H366    1.116   .     S
C119   C120    1.521   .     S
C120   H369    1.111   .     S
C120   H371    1.111   .     S
C120   H370    1.111   .     S
C121   H373    1.116   .     S
C121   O608    1.414   .     S
C121   C122    1.522   .     S
C121   H372    1.112   .     S
C122   H375    1.111   .     S
C122   H376    1.111   .     S
C122   H374    1.111   .     S
C123   H379    1.112   .     S
C123   H377    1.116   .     S
C123   C125    1.521   .     S
C123   O609    1.414   .     S
C124   H466    1.082   .     S
C124   C178    1.391   .     A
C125   H382    1.111   .     S
C125   H381    1.111   .     S
C125   H380    1.111   .     S
C126   C127    1.522   .     S
C126   H383    1.112   .     S
C126   H384    1.116   .     S
C126   O611    1.414   .     S
C127   H386    1.111   .     S
C127   H387    1.111   .     S
C127   H385    1.111   .     S
C128   C129    1.521   .     S
C128   H388    1.116   .     S
C128   O612    1.414   .     S
C128   H390    1.112   .     S
C129   H392    1.111   .     S
C129   H393    1.111   .     S
C129   H391    1.111   .     S
C130   C131    1.522   .     S
C130   H394    1.112   .     S
C130   O613    1.414   .     S
C130   H395    1.116   .     S
C131   H398    1.111   .     S
C131   H396    1.111   .     S
C131   H397    1.111   .     S
C132   H401    1.114   .     S
C132   O614    1.412   .     S
C132   C133    1.521   .     S
C132   H399    1.114   .     S
C133   H403    1.111   .     S
C133   H404    1.111   .     S
C133   H402    1.109   .     S
C134   H406    1.116   .     S
C134   O615    1.413   .     S
C134   C136    1.521   .     S
C134   H405    1.112   .     S
C135   C189    1.390   .     A
C135   H477    1.083   .     S
C136   H408    1.109   .     S
C136   H407    1.111   .     S
C136   H409    1.109   .     S
C137   H410    1.114   .     S
C137   O616    1.412   .     S
C137   C138    1.521   .     S
C137   H412    1.114   .     S
C138   H415    1.111   .     S
C138   H413    1.109   .     S
C138   H414    1.110   .     S
C139   H416    1.112   .     S
C139   C140    1.521   .     S
C139   O617    1.413   .     S
C139   H417    1.116   .     S
C140   H419    1.110   .     S
C140   H418    1.111   .     S
C140   H420    1.110   .     S
C141   O618    1.412   .     S
C141   H421    1.114   .     S
C141   C142    1.521   .     S
C141   H423    1.114   .     S
C142   H424    1.109   .     S
C142   H425    1.111   .     S
C142   H426    1.111   .     S
C143   C144    1.521   .     S
C143   H427    1.112   .     S
C143   O619    1.414   .     S
C143   H428    1.116   .     S
C144   H429    1.111   .     S
C144   H431    1.109   .     S
C144   H430    1.110   .     S
C145   H434    1.114   .     S
C145   H432    1.114   .     S
C145   C147    1.521   .     S
C145   O620    1.412   .     S
C146   C200    1.392   .     A
C146   H488    1.081   .     S
C147   H436    1.111   .     S
C147   H435    1.109   .     S
C147   H437    1.111   .     S
C148   H438    1.112   .     S
C148   C149    1.521   .     S
C148   O523    1.413   .     S
C148   H439    1.116   .     S
C149   H442    1.110   .     S
C149   H440    1.111   .     S
C149   H441    1.110   .     S
C150   C211    1.391   .     A
C150   H499    1.084   .     S
C151   C222    1.391   .     A
C151   H510    1.082   .     S
C151   C657    1.393   .     S
C152   H234    1.083   .     S
C152   C658    1.398   1_455 S
C153   H245    1.082   .     S
C154   H256    1.083   .     S
C154   C1297   1.398   1_545 S
C155   H267    1.082   .     S
C156   O572    1.384   .     S
C156   C798    1.414   .     S
C157   H278    1.083   .     S
C158   H289    1.081   .     S
C158   C1295   1.393   1_545 S
C159   H300    1.084   .     S
C160   C178    1.421   .     A
C160   C1273   1.421   .     S
C160   C161    1.470   1_554 S
C161   C189    1.416   .     A
C161   C160    1.470   1_556 S
C161   C1384   1.416   .     S
C162   C200    1.416   .     A
C162   C792    1.414   1_455 S
C162   C163    1.468   1_554 S
C163   C211    1.415   .     A
C163   C162    1.468   1_556 S
C163   C803    1.414   1_455 S
C164   C801    1.470   1_455 S
C164   C858    1.421   1_455 S
C165   C638    1.416   .     S
C165   C800    1.470   .     S
C166   C1285   1.419   1_545 S
C166   C1440   1.469   1_545 S
C167   O573    1.384   .     S
C167   C799    1.414   .     S
C168   C1296   1.416   .     S
C168   C1438   1.469   .     S
C169   O1838   1.283   1_545 A
C169   C1297   1.459   1_545 S
C169   O610    1.283   .     S
C170   O522    1.281   .     A
C170   O1849   1.281   .     S
C171   O1160   1.283   1_455 A
C171   C658    1.458   1_455 S
C171   O588    1.282   .     S
C172   O525    1.280   .     A
C172   O1235   1.280   1_455 S
C173   C656    1.461   .     S
C173   O1162   1.283   .     S
C173   O1166   1.284   .     S
C174   O527    1.281   .     S
C174   O531    1.281   .     S
C175   O528    1.283   .     A
C175   O532    1.283   .     A
C175   C1290   1.460   1_545 S
C176   O534    1.280   .     A
C176   O529    1.280   .     A
C176   C1289   1.449   1_545 S
C177   O535    1.279   .     A
C177   O563    1.281   .     A
C177   C232    1.460   .     S
C178   O574    1.387   .     S
C179   O564    1.282   .     A
C179   O536    1.278   .     A
C180   O561    1.281   .     A
C180   O537    1.279   .     A
C181   O562    1.281   .     A
C181   O538    1.278   .     A
C182   O539    1.279   .     A
C182   O568    1.281   .     A
C183   O569    1.282   .     A
C183   O540    1.278   .     A
C184   O565    1.281   .     A
C184   C230    1.460   .     S
C184   O541    1.279   .     A
C185   O542    1.278   .     A
C185   O567    1.282   .     A
C185   C231    1.460   .     S
C186   O554    1.279   .     A
C186   O543    1.281   .     A
C187   O545    1.281   .     A
C187   O556    1.278   .     A
C188   O546    1.281   .     A
C188   O552    1.279   .     A
C189   O575    1.386   .     S
C190   O553    1.278   .     A
C190   O547    1.282   .     A
C191   O548    1.281   .     A
C191   O559    1.279   .     A
C192   O549    1.282   .     A
C192   O560    1.278   .     A
C193   O550    1.281   .     A
C193   O557    1.279   .     A
C194   O558    1.278   .     A
C194   O551    1.282   .     A
C195   O587    1.385   .     S
C195   C212    1.394   .     A
C196   C210    1.396   .     A
C196   O589    1.385   .     S
C197   O590    1.386   .     S
C197   C209    1.394   .     A
C198   O591    1.385   .     S
C198   C208    1.395   .     A
C199   O592    1.386   .     S
C199   C207    1.394   .     A
C200   O576    1.385   .     S
C201   C206    1.395   .     A
C201   O593    1.386   .     S
C202   O594    1.386   .     S
C202   C205    1.395   .     A
C203   O595    1.386   .     S
C203   C204    1.395   .     A
C204   O596    1.384   .     S
C205   O597    1.385   .     S
C206   O598    1.385   .     S
C207   O600    1.384   .     S
C208   O601    1.384   .     S
C209   C232    1.410   .     A
C209   O602    1.384   .     S
C210   C231    1.410   .     A
C210   O603    1.384   .     S
C211   O578    1.386   .     S
C212   O604    1.384   .     S
C212   C230    1.410   .     A
C213   C229    1.394   .     A
C213   C231    1.410   .     A
C213   O605    1.385   .     S
C214   O606    1.386   .     S
C214   C228    1.396   .     A
C214   C230    1.412   .     A
C215   C227    1.394   .     A
C215   O607    1.385   .     S
C216   C226    1.396   .     A
C216   O608    1.386   .     S
C216   C232    1.412   .     A
C217   O609    1.385   .     S
C217   C225    1.394   .     A
C218   O611    1.386   .     S
C218   C224    1.396   .     A
C219   C223    1.394   .     A
C219   O612    1.385   .     S
C220   C221    1.396   .     A
C220   O613    1.386   .     S
C221   O614    1.384   .     S
C222   O579    1.388   .     S
C222   C800    1.421   .     S
C223   O615    1.384   .     S
C224   O616    1.385   .     S
C225   O617    1.384   .     S
C226   O618    1.385   .     S
C227   O619    1.385   .     S
C228   O620    1.384   .     S
C229   O523    1.384   .     S
H240   C703    1.111   .     S
H270   C1352   1.111   1_545 S
H281   C720    1.111   .     S
H286   C722    1.111   1_455 S
H292   C1360   1.111   .     S
H297   C1363   1.111   1_545 S
H302   C729    1.111   1_455 S
H308   C731    1.111   .     S
H311   C26     1.111   1_556 S
H322   C26     1.108   1_556 S
H389   C29     1.111   1_554 S
H400   C29     1.110   1_554 S
H446   C32     1.111   1_556 S
H449   C33     1.111   1_554 S
H450   C34     1.111   1_554 S
H453   C36     1.112   1_554 S
H457   C37     1.112   1_556 S
H458   C38     1.111   1_556 S
H461   C39     1.111   1_556 S
H462   C39     1.108   1_556 S
H469   C42     1.111   1_554 S
H470   C42     1.110   1_554 S
H476   C45     1.111   1_556 S
H480   C47     1.111   1_554 S
H481   C48     1.111   1_554 S
H484   C49     1.111   1_554 S
H485   C49     1.109   1_554 S
H495   C689    1.111   1_455 S
H496   C690    1.110   1_455 S
H512   C1333   1.111   1_545 S
O521   Zn621   1.947   .     S
O521   Zn624   1.947   .     S
O521   Zn632   1.946   .     S
O521   Zn1900  1.948   1_545 S
O522   Zn623   1.933   .     S
O524   C807    1.283   .     A
O524   Zn626   1.933   .     S
O525   Zn625   1.933   .     S
O526   C809    1.283   1_455 S
O526   Zn635   1.933   .     S
O527   Zn634   1.933   .     S
O528   Zn629   1.933   .     S
O529   Zn621   1.933   .     S
O530   C809    1.284   1_455 S
O530   Zn631   1.933   .     S
O531   Zn630   1.933   .     S
O532   Zn633   1.933   .     S
O533   Zn627   1.948   .     S
O533   Zn633   1.946   .     S
O533   Zn629   1.947   .     S
O533   Zn1895  1.947   1_545 S
O534   Zn632   1.933   .     S
O535   Zn624   1.942   .     S
O536   Zn623   1.942   .     S
O537   Zn626   1.942   .     S
O538   Zn625   1.942   .     S
O539   Zn628   1.942   .     S
O540   Zn627   1.942   .     S
O541   Zn622   1.942   .     S
O542   Zn636   1.942   .     S
O543   Zn623   1.942   .     S
O544   Zn622   1.947   .     S
O544   Zn1262  1.946   1_455 S
O544   Zn630   1.947   .     S
O544   Zn634   1.948   .     S
O545   Zn624   1.942   .     S
O546   Zn636   1.942   .     S
O547   Zn622   1.942   .     S
O548   Zn627   1.942   .     S
O549   Zn628   1.942   .     S
O550   Zn625   1.943   .     S
O551   Zn626   1.943   .     S
O552   Zn1267  1.942   .     S
O553   Zn630   1.942   .     S
O554   Zn1905  1.942   .     S
O555   Zn625   1.946   .     S
O555   Zn631   1.947   .     S
O555   Zn635   1.948   .     S
O555   Zn1272  1.947   1_455 S
O556   Zn632   1.942   .     S
O557   Zn635   1.942   .     S
O558   Zn1270  1.942   .     S
O559   Zn629   1.942   .     S
O560   Zn1893  1.942   .     S
O561   Zn1266  1.942   .     S
O562   Zn631   1.942   .     S
O563   Zn621   1.942   .     S
O564   Zn1901  1.942   .     S
O565   Zn634   1.942   .     S
O566   Zn628   1.933   .     S
O566   C1441   1.283   .     A
O567   Zn1271  1.942   .     S
O568   Zn1904  1.943   .     S
O569   Zn633   1.943   .     S
O577   Zn627   1.933   .     S
O577   C1442   1.281   1_545 S
O588   Zn622   1.933   .     S
O599   Zn636   1.933   .     S
O599   C808    1.280   .     S
O610   Zn624   1.933   .     S
Zn621  O1832   1.942   1_545 S
Zn623  O1805   1.947   .     S
Zn626  O1180   1.946   .     S
Zn628  O1793   1.948   .     S
Zn629  O1836   1.942   1_545 S
Zn630  O1197   1.942   1_455 S
Zn631  O1188   1.942   1_455 S
Zn632  O1840   1.943   1_545 S
Zn633  O1826   1.942   1_545 S
Zn634  O1194   1.942   1_455 S
Zn635  O1203   1.942   1_455 S
Zn636  O1191   1.947   .     S
C637   C715    1.391   .     A
C637   O1206   1.388   .     S
C637   C2068   1.421   1_545 S
C638   O1216   1.386   .     S
C638   C788    1.391   .     A
C639   C851    1.411   .     A
C639   C844    1.409   .     A
C639   C815    1.461   .     S
C640   C854    1.412   .     A
C640   C816    1.460   .     S
C640   C843    1.410   .     A
C641   C853    1.411   .     A
C641   C842    1.410   .     A
C641   C817    1.460   .     S
C642   C841    1.410   .     A
C642   C818    1.460   .     S
C642   C856    1.412   .     A
C643   C819    1.461   .     S
C643   C840    1.409   .     A
C643   C855    1.411   .     A
C644   C829    1.460   .     S
C644   C839    1.412   .     A
C644   C859    1.410   .     A
C645   C838    1.411   .     A
C645   C830    1.460   .     S
C645   C857    1.409   .     A
C646   C822    1.460   .     S
C646   C861    1.410   .     A
C646   C837    1.412   .     A
C647   C860    1.410   .     A
C647   C835    1.410   .     A
C647   C823    1.460   .     S
C648   C863    1.410   .     A
C648   C834    1.412   .     A
C648   C824    1.460   .     S
C649   C789    1.392   .     A
C649   O1217   1.388   .     S
C649   C2074   1.419   .     S
C650   C833    1.411   .     A
C650   C862    1.410   .     A
C650   C826    1.460   .     S
C651   C827    1.460   .     S
C651   C832    1.412   .     A
C651   C865    1.409   .     A
C652   C864    1.410   .     A
C652   C831    1.411   .     A
C652   C828    1.460   .     S
C653   C760    1.392   .     A
C653   C1987   1.392   .     S
C653   C2084   1.449   .     S
C654   C771    1.398   .     A
C654   C1998   1.398   .     S
C654   C2083   1.460   .     S
C655   C810    1.451   .     S
C655   C782    1.395   .     A
C656   C786    1.399   .     A
C657   C808    1.451   .     S
C657   C791    1.393   .     A
C658   C793    1.398   .     A
C658   C171    1.458   1_655 S
C658   C152    1.398   1_655 S
C659   C789    1.395   .     A
C659   C806    1.451   .     S
C659   C2066   1.393   .     S
C660   C790    1.390   .     A
C660   O1218   1.386   .     S
C660   C2076   1.416   1_545 S
C661   C795    1.398   .     A
C661   C2077   1.459   .     S
C661   C2062   1.398   .     S
C662   C663    1.536   .     S
C662   O1206   1.415   .     S
C662   H947    1.111   1_554 S
C662   H958    1.108   1_554 S
C663   H981    1.111   .     S
C663   H969    1.111   .     S
C663   C664    1.526   .     S
C664   H992    1.110   .     S
C664   H1003   1.110   .     S
C664   H1014   1.111   .     S
C665   O1207   1.414   .     S
C665   C666    1.535   .     S
C665   H1025   1.111   1_556 S
C665   H1036   1.110   1_556 S
C666   C667    1.525   .     S
C666   H1058   1.111   .     S
C666   H1047   1.111   .     S
C667   H1079   1.111   .     S
C667   H1081   1.111   .     S
C667   H1069   1.110   .     S
C668   O1208   1.411   .     S
C668   H1083   1.116   .     S
C668   C669    1.527   1_554 S
C668   H1082   1.111   1_554 S
C669   C670    1.527   .     S
C669   H1084   1.111   .     S
C669   C668    1.527   1_556 S
C669   H1085   1.111   1_556 S
C670   H1088   1.111   .     S
C670   H1087   1.109   .     S
C670   H1086   1.111   1_556 S
C671   C791    1.391   .     A
C671   C800    1.421   .     A
C671   O1219   1.388   .     S
C672   H1090   1.116   .     S
C672   O1209   1.411   .     S
C672   C673    1.528   1_556 S
C672   H1089   1.112   1_556 S
C673   C674    1.527   .     S
C673   H1092   1.112   .     S
C673   C672    1.528   1_554 S
C673   H1093   1.112   1_554 S
C674   H1095   1.111   .     S
C674   H1096   1.111   .     S
C674   H1094   1.111   1_554 S
C675   O1210   1.415   .     S
C675   C676    1.537   .     S
C675   H1097   1.111   1_554 S
C675   H1098   1.108   1_554 S
C676   H1099   1.111   .     S
C676   H1100   1.111   .     S
C676   C677    1.526   .     S
C677   H1104   1.111   .     S
C677   H1101   1.110   .     S
C677   H1103   1.110   .     S
C678   C679    1.535   .     S
C678   O1211   1.414   .     S
C678   H1105   1.111   1_556 S
C678   H1106   1.110   1_556 S
C679   C680    1.525   .     S
C679   H1107   1.112   .     S
C679   H1108   1.111   .     S
C680   H1109   1.110   .     S
C680   H1111   1.111   .     S
C680   H1110   1.111   .     S
C681   O1212   1.412   .     S
C681   H1114   1.117   .     S
C681   C683    1.527   1_554 S
C681   H1112   1.111   1_554 S
C682   C801    1.416   .     A
C682   O1220   1.385   .     S
C682   C793    1.390   .     A
C683   H1115   1.112   .     S
C683   C684    1.527   .     S
C683   C681    1.527   1_556 S
C683   H1116   1.111   1_556 S
C684   H1119   1.111   .     S
C684   H1118   1.109   .     S
C684   H1117   1.111   1_556 S
C685   C686    1.536   .     S
C685   O1214   1.415   .     S
C685   H1120   1.111   1_556 S
C685   H1121   1.109   1_556 S
C686   H1123   1.111   .     S
C686   C687    1.526   .     S
C686   H1122   1.112   .     S
C687   H1126   1.111   .     S
C687   H1127   1.111   .     S
C687   H1125   1.111   .     S
C688   O1215   1.415   .     S
C688   H1129   1.107   .     S
C688   C689    1.537   .     S
C688   H1128   1.111   .     S
C689   H1130   1.111   .     S
C689   C690    1.526   .     S
C689   H495    1.111   1_655 S
C690   H1133   1.110   .     S
C690   H1134   1.111   .     S
C690   H496    1.110   1_655 S
C691   O1216   1.414   .     S
C691   H1137   1.110   .     S
C691   H1136   1.111   .     S
C691   C692    1.535   .     S
C692   H1139   1.111   .     S
C692   C694    1.527   .     S
C692   H1138   1.112   .     S
C693   O1221   1.385   .     S
C693   C802    1.418   .     A
C693   C794    1.390   .     A
C694   H1142   1.111   .     S
C694   H1140   1.110   .     S
C694   H1141   1.111   .     S
C695   H1144   1.107   .     S
C695   C696    1.537   .     S
C695   H1143   1.111   .     S
C695   O1217   1.415   .     S
C696   H1145   1.110   .     S
C696   H1147   1.111   .     S
C696   C697    1.526   .     S
C697   H1150   1.111   .     S
C697   H1149   1.110   .     S
C697   H2420   1.111   .     S
C698   H1152   1.111   .     S
C698   C699    1.535   .     S
C698   H1151   1.111   .     S
C698   O1218   1.414   .     S
C699   H1154   1.111   .     S
C699   H1153   1.112   .     S
C699   C700    1.527   .     S
C700   H871    1.111   .     S
C700   H1155   1.110   .     S
C700   H1156   1.111   .     S
C701   O1219   1.416   .     S
C701   H872    1.111   .     S
C701   H873    1.108   .     S
C701   C702    1.537   .     S
C702   C703    1.526   .     S
C702   H874    1.110   .     S
C702   H875    1.111   .     S
C703   H878    1.111   .     S
C703   H877    1.110   .     S
C704   O1222   1.387   .     S
C704   C804    1.417   .     A
C704   C795    1.391   .     A
C705   H880    1.111   .     S
C705   C706    1.534   .     S
C705   H879    1.111   .     S
C705   O1220   1.414   .     S
C706   H883    1.111   .     S
C706   C707    1.525   .     S
C706   H882    1.111   .     S
C707   H885    1.111   .     S
C707   H884    1.110   .     S
C707   H886    1.111   .     S
C708   C709    1.527   .     S
C708   O1221   1.412   .     S
C708   H887    1.111   .     S
C708   H888    1.117   .     S
C709   H890    1.111   .     S
C709   C710    1.527   .     S
C709   H889    1.112   .     S
C710   H894    1.111   .     S
C710   H891    1.111   .     S
C710   H893    1.109   .     S
C711   O1222   1.415   .     S
C711   H895    1.111   .     S
C711   C712    1.536   .     S
C711   H896    1.109   .     S
C712   H898    1.111   .     S
C712   H897    1.112   .     S
C712   C713    1.526   .     S
C713   H899    1.111   .     S
C713   H901    1.111   .     S
C713   H900    1.111   .     S
C714   H902    1.116   .     S
C714   H904    1.112   .     S
C714   C716    1.521   .     S
C714   O1223   1.414   .     S
C715   H869    1.082   .     S
C715   C1925   1.392   1_545 S
C716   H905    1.111   .     S
C716   H907    1.111   .     S
C716   H2178   1.111   .     S
C717   O1225   1.414   .     S
C717   H908    1.112   .     S
C717   H909    1.116   .     S
C717   C718    1.522   .     S
C718   H910    1.110   .     S
C718   H911    1.111   .     S
C718   H912    1.111   .     S
C719   H915    1.112   .     S
C719   O1226   1.414   .     S
C719   H913    1.116   .     S
C719   C720    1.522   .     S
C720   H918    1.111   .     S
C720   H916    1.111   .     S
C721   C722    1.522   .     S
C721   H919    1.113   .     S
C721   H920    1.116   .     S
C721   O1227   1.414   .     S
C722   H923    1.111   .     S
C722   H921    1.111   .     S
C722   H286    1.111   1_655 S
C723   H926    1.112   .     S
C723   O1228   1.414   .     S
C723   H924    1.116   .     S
C723   C724    1.521   .     S
C724   H929    1.111   .     S
C724   H927    1.111   .     S
C724   H2200   1.111   1_545 S
C725   H931    1.116   .     S
C725   H930    1.112   .     S
C725   O1229   1.414   .     S
C725   C727    1.522   .     S
C726   H980    1.083   .     S
C726   C748    1.390   .     A
C726   C1926   1.398   1_545 S
C727   H932    1.111   .     S
C727   H934    1.111   .     S
C727   H2205   1.111   .     S
C728   H935    1.116   .     S
C728   H937    1.112   .     S
C728   O1230   1.414   .     S
C728   C729    1.521   .     S
C729   H940    1.111   .     S
C729   H939    1.111   .     S
C729   H302    1.111   1_655 S
C730   C731    1.522   .     S
C730   H942    1.116   .     S
C730   O1231   1.414   .     S
C730   H941    1.112   .     S
C731   H943    1.111   .     S
C731   H945    1.111   .     S
C732   O1232   1.412   .     S
C732   H946    1.114   .     S
C732   C733    1.520   .     S
C732   H948    1.114   .     S
C733   H950    1.111   .     S
C733   H949    1.109   .     S
C733   H951    1.111   .     S
C734   H953    1.116   .     S
C734   O1233   1.413   .     S
C734   C735    1.521   .     S
C734   H952    1.112   .     S
C735   H955    1.110   .     S
C735   H956    1.110   .     S
C735   H954    1.111   .     S
C736   H957    1.114   .     S
C736   H959    1.114   .     S
C736   C738    1.521   .     S
C736   O1234   1.413   .     S
C737   C792    1.391   .     A
C737   H1080   1.081   .     S
C737   C19     1.395   1_655 S
C738   H960    1.109   .     S
C738   H961    1.110   .     S
C738   H962    1.111   .     S
C739   H963    1.112   .     S
C739   O1236   1.413   .     S
C739   H964    1.116   .     S
C739   C740    1.521   .     S
C740   H965    1.111   .     S
C740   H967    1.110   .     S
C740   H966    1.110   .     S
C741   H970    1.115   .     S
C741   O1237   1.412   .     S
C741   C742    1.520   .     S
C741   H968    1.114   .     S
C742   H971    1.108   .     S
C742   H973    1.111   .     S
C742   H972    1.111   .     S
C743   C744    1.521   .     S
C743   O1238   1.413   .     S
C743   H974    1.112   .     S
C743   H975    1.116   .     S
C744   H977    1.110   .     S
C744   H976    1.111   .     S
C744   H978    1.110   .     S
C745   C746    1.521   .     S
C745   O1239   1.412   .     S
C745   H979    1.114   .     S
C745   H982    1.114   .     S
C746   H984    1.110   .     S
C746   H985    1.111   .     S
C746   H983    1.109   .     S
C747   O1240   1.413   .     S
C747   H986    1.112   .     S
C747   C750    1.521   .     S
C747   H987    1.116   .     S
C748   O1207   1.386   .     S
C748   C2069   1.416   1_545 S
C749   C803    1.392   .     A
C749   H1091   1.084   .     S
C749   C20     1.399   1_655 S
C750   H989    1.110   .     S
C750   H988    1.111   .     S
C750   H990    1.110   .     S
C751   H993    1.112   .     S
C751   H991    1.116   .     S
C751   O1241   1.414   .     S
C751   C752    1.521   .     S
C752   H995    1.111   .     S
C752   H994    1.111   .     S
C752   H996    1.111   .     S
C753   C754    1.522   .     S
C753   H998    1.116   .     S
C753   O1242   1.414   .     S
C753   H997    1.112   .     S
C754   H1000   1.111   .     S
C754   H1001   1.111   .     S
C754   H999    1.111   .     S
C755   O1243   1.414   .     S
C755   H1004   1.113   .     S
C755   H1002   1.116   .     S
C755   C756    1.521   .     S
C756   H1005   1.111   .     S
C756   H1007   1.111   .     S
C756   H1006   1.111   .     S
C757   H1009   1.116   .     S
C757   O1244   1.414   .     S
C757   C758    1.522   .     S
C757   H1008   1.112   .     S
C758   H1011   1.111   .     S
C758   H1012   1.111   .     S
C758   H1010   1.111   .     S
C759   H1015   1.112   .     S
C759   H1013   1.116   .     S
C759   C761    1.521   .     S
C759   O1245   1.414   .     S
C760   H1102   1.082   .     S
C760   C814    1.391   .     A
C761   H1018   1.111   .     S
C761   H1017   1.111   .     S
C761   H1016   1.111   .     S
C762   C763    1.522   .     S
C762   H1019   1.112   .     S
C762   H1020   1.116   .     S
C762   O1247   1.414   .     S
C763   H1022   1.111   .     S
C763   H1023   1.111   .     S
C763   H1021   1.111   .     S
C764   C765    1.521   .     S
C764   H1024   1.116   .     S
C764   O1248   1.414   .     S
C764   H1026   1.112   .     S
C765   H1028   1.111   .     S
C765   H1029   1.111   .     S
C765   H1027   1.111   .     S
C766   C767    1.522   .     S
C766   H1030   1.112   .     S
C766   O1249   1.414   .     S
C766   H1031   1.116   .     S
C767   H1034   1.111   .     S
C767   H1032   1.111   .     S
C767   H1033   1.111   .     S
C768   H1037   1.114   .     S
C768   O1250   1.412   .     S
C768   C769    1.521   .     S
C768   H1035   1.114   .     S
C769   H1039   1.111   .     S
C769   H1040   1.111   .     S
C769   H1038   1.109   .     S
C770   H1042   1.116   .     S
C770   O1251   1.413   .     S
C770   C772    1.521   .     S
C770   H1041   1.112   .     S
C771   C825    1.390   .     A
C771   H1113   1.083   .     S
C772   H1044   1.109   .     S
C772   H1043   1.111   .     S
C772   H1045   1.109   .     S
C773   H1046   1.114   .     S
C773   O1252   1.412   .     S
C773   C774    1.521   .     S
C773   H1048   1.114   .     S
C774   H1051   1.111   .     S
C774   H1049   1.109   .     S
C774   H1050   1.110   .     S
C775   H1052   1.112   .     S
C775   C776    1.521   .     S
C775   O1253   1.413   .     S
C775   H1053   1.116   .     S
C776   H1055   1.110   .     S
C776   H1054   1.111   .     S
C776   H1056   1.110   .     S
C777   O1254   1.412   .     S
C777   H1057   1.114   .     S
C777   C778    1.521   .     S
C777   H1059   1.114   .     S
C778   H1060   1.109   .     S
C778   H1061   1.111   .     S
C778   H1062   1.111   .     S
C779   C780    1.521   .     S
C779   H1063   1.112   .     S
C779   O1255   1.414   .     S
C779   H1064   1.116   .     S
C780   H1065   1.111   .     S
C780   H1067   1.109   .     S
C780   H1066   1.110   .     S
C781   H1070   1.114   .     S
C781   H1068   1.114   .     S
C781   C783    1.521   .     S
C781   O1256   1.412   .     S
C782   C836    1.392   .     A
C782   H1124   1.081   .     S
C783   H1072   1.111   .     S
C783   H1071   1.109   .     S
C783   H1073   1.111   .     S
C784   H1074   1.112   .     S
C784   C785    1.521   .     S
C784   O1159   1.413   .     S
C784   H1075   1.116   .     S
C785   H1078   1.110   .     S
C785   H1076   1.111   .     S
C785   H1077   1.110   .     S
C786   C847    1.391   .     A
C786   H1135   1.084   .     S
C787   C858    1.391   .     A
C787   H1146   1.082   .     S
C787   C21     1.393   1_655 S
C788   H870    1.083   .     S
C789   H881    1.082   .     S
C790   H892    1.083   .     S
C790   C1933   1.398   1_545 S
C791   H903    1.082   .     S
C792   O1208   1.384   .     S
C792   C162    1.414   1_655 S
C793   H914    1.083   .     S
C794   H925    1.081   .     S
C794   C1931   1.393   1_545 S
C795   H936    1.084   .     S
C796   C814    1.421   .     A
C796   C1909   1.421   .     S
C796   C797    1.470   1_554 S
C797   C825    1.416   .     A
C797   C796    1.470   1_556 S
C797   C2020   1.416   .     S
C798   C836    1.416   .     A
C798   C799    1.468   1_554 S
C799   C847    1.415   .     A
C799   C798    1.468   1_556 S
C801   C2      1.416   1_655 S
C801   C164    1.470   1_655 S
C802   C1921   1.419   1_545 S
C802   C2076   1.469   1_545 S
C803   O1209   1.384   .     S
C803   C163    1.414   1_655 S
C804   C1932   1.416   .     S
C804   C2074   1.469   .     S
C805   O2474   1.283   1_545 A
C805   C1933   1.459   1_545 S
C805   O1246   1.283   .     S
C806   O1158   1.281   .     A
C806   O2485   1.281   .     S
C807   O1224   1.282   .     S
C808   O1161   1.280   .     A
C809   C20     1.461   1_655 S
C809   O526    1.283   1_655 S
C809   O530    1.284   1_655 S
C810   O1163   1.281   .     S
C810   O1167   1.281   .     S
C811   O1164   1.283   .     A
C811   O1168   1.283   .     A
C811   C1926   1.460   1_545 S
C812   O1170   1.280   .     A
C812   O1165   1.280   .     A
C812   C1925   1.449   1_545 S
C813   O1171   1.279   .     A
C813   O1199   1.281   .     A
C813   C868    1.460   .     S
C814   O1210   1.387   .     S
C815   O1200   1.282   .     A
C815   O1172   1.278   .     A
C816   O1197   1.281   .     A
C816   O1173   1.279   .     A
C817   O1198   1.281   .     A
C817   O1174   1.278   .     A
C818   O1175   1.279   .     A
C818   O1204   1.281   .     A
C819   O1205   1.282   .     A
C819   O1176   1.278   .     A
C820   O1201   1.281   .     A
C820   C866    1.460   .     S
C820   O1177   1.279   .     A
C821   O1178   1.278   .     A
C821   O1203   1.282   .     A
C821   C867    1.460   .     S
C822   O1190   1.279   .     A
C822   O1179   1.281   .     A
C823   O1181   1.281   .     A
C823   O1192   1.278   .     A
C824   O1182   1.281   .     A
C824   O1188   1.279   .     A
C825   O1211   1.386   .     S
C826   O1189   1.278   .     A
C826   O1183   1.282   .     A
C827   O1184   1.281   .     A
C827   O1195   1.279   .     A
C828   O1185   1.282   .     A
C828   O1196   1.278   .     A
C829   O1186   1.281   .     A
C829   O1193   1.279   .     A
C830   O1194   1.278   .     A
C830   O1187   1.282   .     A
C831   O1223   1.385   .     S
C831   C848    1.394   .     A
C832   C846    1.396   .     A
C832   O1225   1.385   .     S
C833   O1226   1.386   .     S
C833   C845    1.394   .     A
C834   O1227   1.385   .     S
C834   C844    1.395   .     A
C835   O1228   1.386   .     S
C835   C843    1.394   .     A
C836   O1212   1.385   .     S
C837   C842    1.395   .     A
C837   O1229   1.386   .     S
C838   O1230   1.386   .     S
C838   C841    1.395   .     A
C839   O1231   1.386   .     S
C839   C840    1.395   .     A
C840   O1232   1.384   .     S
C841   O1233   1.385   .     S
C842   O1234   1.385   .     S
C843   O1236   1.384   .     S
C844   O1237   1.384   .     S
C845   C868    1.410   .     A
C845   O1238   1.384   .     S
C846   C867    1.410   .     A
C846   O1239   1.384   .     S
C847   O1214   1.386   .     S
C848   O1240   1.384   .     S
C848   C866    1.410   .     A
C849   C865    1.394   .     A
C849   C867    1.410   .     A
C849   O1241   1.385   .     S
C850   O1242   1.386   .     S
C850   C864    1.396   .     A
C850   C866    1.412   .     A
C851   C863    1.394   .     A
C851   O1243   1.385   .     S
C852   C862    1.396   .     A
C852   O1244   1.386   .     S
C852   C868    1.412   .     A
C853   O1245   1.385   .     S
C853   C861    1.394   .     A
C854   O1247   1.386   .     S
C854   C860    1.396   .     A
C855   C859    1.394   .     A
C855   O1248   1.385   .     S
C856   C857    1.396   .     A
C856   O1249   1.386   .     S
C857   O1250   1.384   .     S
C858   O1215   1.388   .     S
C858   C164    1.421   1_655 S
C859   O1251   1.384   .     S
C860   O1252   1.385   .     S
C861   O1253   1.384   .     S
C862   O1254   1.385   .     S
C863   O1255   1.385   .     S
C864   O1256   1.384   .     S
C865   O1159   1.384   .     S
H876   C67     1.111   1_655 S
H906   C1988   1.111   1_545 S
H917   C84     1.111   1_655 S
H928   C1996   1.111   .     S
H933   C1999   1.111   1_545 S
H944   C95     1.111   1_655 S
H947   C662    1.111   1_556 S
H958   C662    1.108   1_556 S
H1025  C665    1.111   1_554 S
H1036  C665    1.110   1_554 S
H1082  C668    1.111   1_556 S
H1085  C669    1.111   1_554 S
H1086  C670    1.111   1_554 S
H1089  C672    1.112   1_554 S
H1093  C673    1.112   1_556 S
H1094  C674    1.111   1_556 S
H1097  C675    1.111   1_556 S
H1098  C675    1.108   1_556 S
H1105  C678    1.111   1_554 S
H1106  C678    1.110   1_554 S
H1112  C681    1.111   1_556 S
H1116  C683    1.111   1_554 S
H1117  C684    1.111   1_554 S
H1120  C685    1.111   1_554 S
H1121  C685    1.109   1_554 S
H1148  C1969   1.111   1_545 S
O1157  Zn1257  1.947   .     S
O1157  Zn1260  1.947   .     S
O1157  Zn1268  1.946   .     S
O1157  Zn2536  1.948   1_545 S
O1158  Zn1259  1.933   .     S
O1160  C171    1.283   1_655 A
O1160  Zn1262  1.933   .     S
O1161  Zn1261  1.933   .     S
O1162  Zn1271  1.933   .     S
O1163  Zn1270  1.933   .     S
O1164  Zn1265  1.933   .     S
O1165  Zn1257  1.933   .     S
O1166  Zn1267  1.933   .     S
O1167  Zn1266  1.933   .     S
O1168  Zn1269  1.933   .     S
O1169  Zn1263  1.948   .     S
O1169  Zn1269  1.946   .     S
O1169  Zn1265  1.947   .     S
O1169  Zn2531  1.947   1_545 S
O1170  Zn1268  1.933   .     S
O1171  Zn1260  1.942   .     S
O1172  Zn1259  1.942   .     S
O1173  Zn1262  1.942   .     S
O1174  Zn1261  1.942   .     S
O1175  Zn1264  1.942   .     S
O1176  Zn1263  1.942   .     S
O1177  Zn1258  1.942   .     S
O1178  Zn1272  1.942   .     S
O1179  Zn1259  1.942   .     S
O1180  Zn1258  1.947   .     S
O1180  Zn1266  1.947   .     S
O1180  Zn1270  1.948   .     S
O1181  Zn1260  1.942   .     S
O1182  Zn1272  1.942   .     S
O1183  Zn1258  1.942   .     S
O1184  Zn1263  1.942   .     S
O1185  Zn1264  1.942   .     S
O1186  Zn1261  1.943   .     S
O1187  Zn1262  1.943   .     S
O1188  Zn631   1.942   1_655 S
O1189  Zn1266  1.942   .     S
O1190  Zn2541  1.942   .     S
O1191  Zn1261  1.946   .     S
O1191  Zn1267  1.947   .     S
O1191  Zn1271  1.948   .     S
O1192  Zn1268  1.942   .     S
O1193  Zn1271  1.942   .     S
O1194  Zn634   1.942   1_655 S
O1195  Zn1265  1.942   .     S
O1196  Zn2529  1.942   .     S
O1197  Zn630   1.942   1_655 S
O1198  Zn1267  1.942   .     S
O1199  Zn1257  1.942   .     S
O1200  Zn2537  1.942   .     S
O1201  Zn1270  1.942   .     S
O1202  Zn1264  1.933   .     S
O1202  C2077   1.283   .     A
O1203  Zn635   1.942   1_655 S
O1204  Zn2540  1.943   .     S
O1205  Zn1269  1.943   .     S
O1213  Zn1263  1.933   .     S
O1213  C2078   1.281   1_545 S
O1224  Zn1258  1.933   .     S
O1235  Zn1272  1.933   .     S
O1235  C172    1.280   1_655 S
O1246  Zn1260  1.933   .     S
Zn1257 O2468   1.942   1_545 S
Zn1259 O2441   1.947   .     S
Zn1262 O544    1.946   1_655 S
Zn1264 O2429   1.948   .     S
Zn1265 O2472   1.942   1_545 S
Zn1268 O2476   1.943   1_545 S
Zn1269 O2462   1.942   1_545 S
Zn1272 O555    1.947   1_655 S
C1273  C1351   1.391   .     A
C1273  O1842   1.388   .     S
C1274  O1852   1.386   .     S
C1274  C1424   1.391   .     A
C1274  C2073   1.416   1_455 S
C1275  C1487   1.411   .     A
C1275  C1480   1.409   .     A
C1275  C1451   1.461   .     S
C1276  C1490   1.412   .     A
C1276  C1452   1.460   .     S
C1276  C1479   1.410   .     A
C1277  C1489   1.411   .     A
C1277  C1478   1.410   .     A
C1277  C1453   1.460   .     S
C1278  C1477   1.410   .     A
C1278  C1454   1.460   .     S
C1278  C1492   1.412   .     A
C1279  C1455   1.461   .     S
C1279  C1476   1.409   .     A
C1279  C1491   1.411   .     A
C1280  C1465   1.460   .     S
C1280  C1475   1.412   .     A
C1280  C1495   1.410   .     A
C1281  C1474   1.411   .     A
C1281  C1466   1.460   .     S
C1281  C1493   1.409   .     A
C1282  C1458   1.460   .     S
C1282  C1497   1.410   .     A
C1282  C1473   1.412   .     A
C1283  C1496   1.410   .     A
C1283  C1471   1.410   .     A
C1283  C1459   1.460   .     S
C1284  C1499   1.410   .     A
C1284  C1470   1.412   .     A
C1284  C1460   1.460   .     S
C1285  C1425   1.392   .     A
C1285  O1853   1.388   .     S
C1285  C166    1.419   1_565 S
C1286  C1469   1.411   .     A
C1286  C1498   1.410   .     A
C1286  C1462   1.460   .     S
C1287  C1463   1.460   .     S
C1287  C1468   1.412   .     A
C1287  C1501   1.409   .     A
C1288  C1500   1.410   .     A
C1288  C1467   1.411   .     A
C1288  C1464   1.460   .     S
C1289  C1396   1.392   .     A
C1289  C79     1.392   1_565 S
C1289  C176    1.449   1_565 S
C1290  C1407   1.398   .     A
C1290  C90     1.398   1_565 S
C1290  C175    1.460   1_565 S
C1291  C1446   1.451   .     S
C1291  C1418   1.395   .     A
C1291  C2009   1.395   1_455 S
C1292  C1422   1.399   .     A
C1292  C2021   1.399   1_455 S
C1292  C2081   1.461   1_455 S
C1293  C1444   1.451   .     S
C1293  C1427   1.393   .     A
C1293  C2059   1.393   1_455 S
C1294  C1429   1.398   .     A
C1294  C2079   1.458   .     S
C1294  C2060   1.398   .     S
C1295  C1425   1.395   .     A
C1295  C1442   1.451   .     S
C1295  C158    1.393   1_565 S
C1296  C1426   1.390   .     A
C1296  O1854   1.386   .     S
C1297  C1431   1.398   .     A
C1297  C169    1.459   1_565 S
C1297  C154    1.398   1_565 S
C1298  C1299   1.536   .     S
C1298  O1842   1.415   .     S
C1298  H1583   1.111   1_554 S
C1298  H1594   1.108   1_554 S
C1299  H1617   1.111   .     S
C1299  H1605   1.111   .     S
C1299  C1300   1.526   .     S
C1300  H1628   1.110   .     S
C1300  H1639   1.110   .     S
C1300  H1650   1.111   .     S
C1301  O1843   1.414   .     S
C1301  C1302   1.535   .     S
C1301  H1661   1.111   1_556 S
C1301  H1672   1.110   1_556 S
C1302  C1303   1.525   .     S
C1302  H1694   1.111   .     S
C1302  H1683   1.111   .     S
C1303  H1715   1.111   .     S
C1303  H1717   1.111   .     S
C1303  H1705   1.110   .     S
C1304  O1844   1.411   .     S
C1304  H1719   1.116   .     S
C1304  C1305   1.527   1_554 S
C1304  H1718   1.111   1_554 S
C1305  C1306   1.527   .     S
C1305  H1720   1.111   .     S
C1305  C1304   1.527   1_556 S
C1305  H1721   1.111   1_556 S
C1306  H1724   1.111   .     S
C1306  H1723   1.109   .     S
C1306  H1722   1.111   1_556 S
C1307  C1427   1.391   .     A
C1307  C1436   1.421   .     A
C1307  O1855   1.388   .     S
C1308  H1726   1.116   .     S
C1308  O1845   1.411   .     S
C1308  C1309   1.528   1_556 S
C1308  H1725   1.112   1_556 S
C1309  C1310   1.527   .     S
C1309  H1728   1.112   .     S
C1309  C1308   1.528   1_554 S
C1309  H1729   1.112   1_554 S
C1310  H1731   1.111   .     S
C1310  H1732   1.111   .     S
C1310  H1730   1.111   1_554 S
C1311  O1846   1.415   .     S
C1311  C1312   1.537   .     S
C1311  H1733   1.111   1_554 S
C1311  H1734   1.108   1_554 S
C1312  H1735   1.111   .     S
C1312  H1736   1.111   .     S
C1312  C1313   1.526   .     S
C1313  H1740   1.111   .     S
C1313  H1737   1.110   .     S
C1313  H1739   1.110   .     S
C1314  C1315   1.535   .     S
C1314  O1847   1.414   .     S
C1314  H1741   1.111   1_556 S
C1314  H1742   1.110   1_556 S
C1315  C1316   1.525   .     S
C1315  H1743   1.112   .     S
C1315  H1744   1.111   .     S
C1316  H1745   1.110   .     S
C1316  H1747   1.111   .     S
C1316  H1746   1.111   .     S
C1317  O1848   1.412   .     S
C1317  H1750   1.117   .     S
C1317  C1319   1.527   1_554 S
C1317  H1748   1.111   1_554 S
C1318  C1437   1.416   .     A
C1318  O1856   1.385   .     S
C1318  C1429   1.390   .     A
C1319  H1751   1.112   .     S
C1319  C1320   1.527   .     S
C1319  C1317   1.527   1_556 S
C1319  H1752   1.111   1_556 S
C1320  H1755   1.111   .     S
C1320  H1754   1.109   .     S
C1320  H1753   1.111   1_556 S
C1321  C1322   1.536   .     S
C1321  O1850   1.415   .     S
C1321  H1756   1.111   1_556 S
C1321  H1757   1.109   1_556 S
C1322  H1759   1.111   .     S
C1322  C1323   1.526   .     S
C1322  H1758   1.112   .     S
C1323  H1762   1.111   .     S
C1323  H1763   1.111   .     S
C1323  H1761   1.111   .     S
C1324  O1851   1.415   .     S
C1324  H1765   1.107   .     S
C1324  C1325   1.537   .     S
C1324  H1764   1.111   .     S
C1325  H1766   1.111   .     S
C1325  C1326   1.526   .     S
C1325  H2403   1.111   .     S
C1326  H1769   1.110   .     S
C1326  H1770   1.111   .     S
C1326  H2404   1.110   .     S
C1327  O1852   1.414   .     S
C1327  H1773   1.110   .     S
C1327  H1772   1.111   .     S
C1327  C1328   1.535   .     S
C1328  H1775   1.111   .     S
C1328  C1330   1.527   .     S
C1328  H1774   1.112   .     S
C1329  O1857   1.385   .     S
C1329  C1438   1.418   .     A
C1329  C1430   1.390   .     A
C1330  H1778   1.111   .     S
C1330  H1776   1.110   .     S
C1330  H1777   1.111   .     S
C1331  H1780   1.107   .     S
C1331  C1332   1.537   .     S
C1331  H1779   1.111   .     S
C1331  O1853   1.415   .     S
C1332  H1781   1.110   .     S
C1332  H1783   1.111   .     S
C1332  C1333   1.526   .     S
C1333  H1786   1.111   .     S
C1333  H1785   1.110   .     S
C1333  H512    1.111   1_565 S
C1334  H1788   1.111   .     S
C1334  C1335   1.535   .     S
C1334  H1787   1.111   .     S
C1334  O1854   1.414   .     S
C1335  H1790   1.111   .     S
C1335  H1789   1.112   .     S
C1335  C1336   1.527   .     S
C1336  H1507   1.111   .     S
C1336  H1791   1.110   .     S
C1336  H1792   1.111   .     S
C1337  O1855   1.416   .     S
C1337  H1508   1.111   .     S
C1337  H1509   1.108   .     S
C1337  C1338   1.537   .     S
C1338  C1339   1.526   .     S
C1338  H1510   1.110   .     S
C1338  H1511   1.111   .     S
C1339  H1514   1.111   .     S
C1339  H1513   1.110   .     S
C1339  H2148   1.111   1_455 S
C1340  O1858   1.387   .     S
C1340  C1440   1.417   .     A
C1340  C1431   1.391   .     A
C1341  H1516   1.111   .     S
C1341  C1342   1.534   .     S
C1341  H1515   1.111   .     S
C1341  O1856   1.414   .     S
C1342  H1519   1.111   .     S
C1342  C1343   1.525   .     S
C1342  H1518   1.111   .     S
C1343  H1521   1.111   .     S
C1343  H1520   1.110   .     S
C1343  H1522   1.111   .     S
C1344  C1345   1.527   .     S
C1344  O1857   1.412   .     S
C1344  H1523   1.111   .     S
C1344  H1524   1.117   .     S
C1345  H1526   1.111   .     S
C1345  C1346   1.527   .     S
C1345  H1525   1.112   .     S
C1346  H1530   1.111   .     S
C1346  H1527   1.111   .     S
C1346  H1529   1.109   .     S
C1347  O1858   1.415   .     S
C1347  H1531   1.111   .     S
C1347  C1348   1.536   .     S
C1347  H1532   1.109   .     S
C1348  H1534   1.111   .     S
C1348  H1533   1.112   .     S
C1348  C1349   1.526   .     S
C1349  H1535   1.111   .     S
C1349  H1537   1.111   .     S
C1349  H1536   1.111   .     S
C1350  H1538   1.116   .     S
C1350  H1540   1.112   .     S
C1350  C1352   1.521   .     S
C1350  O1859   1.414   .     S
C1351  H1505   1.082   .     S
C1352  H1541   1.111   .     S
C1352  H1543   1.111   .     S
C1352  H270    1.111   1_565 S
C1353  O1861   1.414   .     S
C1353  H1544   1.112   .     S
C1353  H1545   1.116   .     S
C1353  C1354   1.522   .     S
C1354  H1546   1.110   .     S
C1354  H1547   1.111   .     S
C1354  H1548   1.111   .     S
C1355  H1551   1.112   .     S
C1355  O1862   1.414   .     S
C1355  H1549   1.116   .     S
C1355  C1356   1.522   .     S
C1356  H1554   1.111   .     S
C1356  H1552   1.111   .     S
C1356  H2189   1.111   1_455 S
C1357  C1358   1.522   .     S
C1357  H1555   1.113   .     S
C1357  H1556   1.116   .     S
C1357  O1863   1.414   .     S
C1358  H1559   1.111   .     S
C1358  H1557   1.111   .     S
C1358  H2194   1.111   .     S
C1359  H1562   1.112   .     S
C1359  O1864   1.414   .     S
C1359  H1560   1.116   .     S
C1359  C1360   1.521   .     S
C1360  H1565   1.111   .     S
C1360  H1563   1.111   .     S
C1361  H1567   1.116   .     S
C1361  H1566   1.112   .     S
C1361  O1865   1.414   .     S
C1361  C1363   1.522   .     S
C1362  H1616   1.083   .     S
C1362  C1384   1.390   .     A
C1363  H1568   1.111   .     S
C1363  H1570   1.111   .     S
C1363  H297    1.111   1_565 S
C1364  H1571   1.116   .     S
C1364  H1573   1.112   .     S
C1364  O1866   1.414   .     S
C1364  C1365   1.521   .     S
C1365  H1576   1.111   .     S
C1365  H1575   1.111   .     S
C1365  H2210   1.111   .     S
C1366  C1367   1.522   .     S
C1366  H1578   1.116   .     S
C1366  O1867   1.414   .     S
C1366  H1577   1.112   .     S
C1367  H1579   1.111   .     S
C1367  H1581   1.111   .     S
C1367  H2216   1.111   1_455 S
C1368  O1868   1.412   .     S
C1368  H1582   1.114   .     S
C1368  C1369   1.520   .     S
C1368  H1584   1.114   .     S
C1369  H1586   1.111   .     S
C1369  H1585   1.109   .     S
C1369  H1587   1.111   .     S
C1370  H1589   1.116   .     S
C1370  O1869   1.413   .     S
C1370  C1371   1.521   .     S
C1370  H1588   1.112   .     S
C1371  H1591   1.110   .     S
C1371  H1592   1.110   .     S
C1371  H1590   1.111   .     S
C1372  H1593   1.114   .     S
C1372  H1595   1.114   .     S
C1372  C1374   1.521   .     S
C1372  O1870   1.413   .     S
C1373  C1428   1.391   .     A
C1373  H1716   1.081   .     S
C1373  C1927   1.395   .     S
C1374  H1596   1.109   .     S
C1374  H1597   1.110   .     S
C1374  H1598   1.111   .     S
C1375  H1599   1.112   .     S
C1375  O1872   1.413   .     S
C1375  H1600   1.116   .     S
C1375  C1376   1.521   .     S
C1376  H1601   1.111   .     S
C1376  H1603   1.110   .     S
C1376  H1602   1.110   .     S
C1377  H1606   1.115   .     S
C1377  O1873   1.412   .     S
C1377  C1378   1.520   .     S
C1377  H1604   1.114   .     S
C1378  H1607   1.108   .     S
C1378  H1609   1.111   .     S
C1378  H1608   1.111   .     S
C1379  C1380   1.521   .     S
C1379  O1874   1.413   .     S
C1379  H1610   1.112   .     S
C1379  H1611   1.116   .     S
C1380  H1613   1.110   .     S
C1380  H1612   1.111   .     S
C1380  H1614   1.110   .     S
C1381  C1382   1.521   .     S
C1381  O1875   1.412   .     S
C1381  H1615   1.114   .     S
C1381  H1618   1.114   .     S
C1382  H1620   1.110   .     S
C1382  H1621   1.111   .     S
C1382  H1619   1.109   .     S
C1383  O1876   1.413   .     S
C1383  H1622   1.112   .     S
C1383  C1386   1.521   .     S
C1383  H1623   1.116   .     S
C1384  O1843   1.386   .     S
C1385  C1439   1.392   .     A
C1385  H1727   1.084   .     S
C1385  C1928   1.399   .     S
C1386  H1625   1.110   .     S
C1386  H1624   1.111   .     S
C1386  H1626   1.110   .     S
C1387  H1629   1.112   .     S
C1387  H1627   1.116   .     S
C1387  O1877   1.414   .     S
C1387  C1388   1.521   .     S
C1388  H1631   1.111   .     S
C1388  H1630   1.111   .     S
C1388  H1632   1.111   .     S
C1389  C1390   1.522   .     S
C1389  H1634   1.116   .     S
C1389  O1878   1.414   .     S
C1389  H1633   1.112   .     S
C1390  H1636   1.111   .     S
C1390  H1637   1.111   .     S
C1390  H1635   1.111   .     S
C1391  O1879   1.414   .     S
C1391  H1640   1.113   .     S
C1391  H1638   1.116   .     S
C1391  C1392   1.521   .     S
C1392  H1641   1.111   .     S
C1392  H1643   1.111   .     S
C1392  H1642   1.111   .     S
C1393  H1645   1.116   .     S
C1393  O1880   1.414   .     S
C1393  C1394   1.522   .     S
C1393  H1644   1.112   .     S
C1394  H1647   1.111   .     S
C1394  H1648   1.111   .     S
C1394  H1646   1.111   .     S
C1395  H1651   1.112   .     S
C1395  H1649   1.116   .     S
C1395  C1397   1.521   .     S
C1395  O1881   1.414   .     S
C1396  H1738   1.082   .     S
C1396  C1450   1.391   .     A
C1397  H1654   1.111   .     S
C1397  H1653   1.111   .     S
C1397  H1652   1.111   .     S
C1398  C1399   1.522   .     S
C1398  H1655   1.112   .     S
C1398  H1656   1.116   .     S
C1398  O1883   1.414   .     S
C1399  H1658   1.111   .     S
C1399  H1659   1.111   .     S
C1399  H1657   1.111   .     S
C1400  C1401   1.521   .     S
C1400  H1660   1.116   .     S
C1400  O1884   1.414   .     S
C1400  H1662   1.112   .     S
C1401  H1664   1.111   .     S
C1401  H1665   1.111   .     S
C1401  H1663   1.111   .     S
C1402  C1403   1.522   .     S
C1402  H1666   1.112   .     S
C1402  O1885   1.414   .     S
C1402  H1667   1.116   .     S
C1403  H1670   1.111   .     S
C1403  H1668   1.111   .     S
C1403  H1669   1.111   .     S
C1404  H1673   1.114   .     S
C1404  O1886   1.412   .     S
C1404  C1405   1.521   .     S
C1404  H1671   1.114   .     S
C1405  H1675   1.111   .     S
C1405  H1676   1.111   .     S
C1405  H1674   1.109   .     S
C1406  H1678   1.116   .     S
C1406  O1887   1.413   .     S
C1406  C1408   1.521   .     S
C1406  H1677   1.112   .     S
C1407  C1461   1.390   .     A
C1407  H1749   1.083   .     S
C1408  H1680   1.109   .     S
C1408  H1679   1.111   .     S
C1408  H1681   1.109   .     S
C1409  H1682   1.114   .     S
C1409  O1888   1.412   .     S
C1409  C1410   1.521   .     S
C1409  H1684   1.114   .     S
C1410  H1687   1.111   .     S
C1410  H1685   1.109   .     S
C1410  H1686   1.110   .     S
C1411  H1688   1.112   .     S
C1411  C1412   1.521   .     S
C1411  O1889   1.413   .     S
C1411  H1689   1.116   .     S
C1412  H1691   1.110   .     S
C1412  H1690   1.111   .     S
C1412  H1692   1.110   .     S
C1413  O1890   1.412   .     S
C1413  H1693   1.114   .     S
C1413  C1414   1.521   .     S
C1413  H1695   1.114   .     S
C1414  H1696   1.109   .     S
C1414  H1697   1.111   .     S
C1414  H1698   1.111   .     S
C1415  C1416   1.521   .     S
C1415  H1699   1.112   .     S
C1415  O1891   1.414   .     S
C1415  H1700   1.116   .     S
C1416  H1701   1.111   .     S
C1416  H1703   1.109   .     S
C1416  H1702   1.110   .     S
C1417  H1706   1.114   .     S
C1417  H1704   1.114   .     S
C1417  C1419   1.521   .     S
C1417  O1892   1.412   .     S
C1418  C1472   1.392   .     A
C1418  H1760   1.081   .     S
C1419  H1708   1.111   .     S
C1419  H1707   1.109   .     S
C1419  H1709   1.111   .     S
C1420  H1710   1.112   .     S
C1420  C1421   1.521   .     S
C1420  O1795   1.413   .     S
C1420  H1711   1.116   .     S
C1421  H1714   1.110   .     S
C1421  H1712   1.111   .     S
C1421  H1713   1.110   .     S
C1422  C1483   1.391   .     A
C1422  H1771   1.084   .     S
C1423  C1494   1.391   .     A
C1423  H1782   1.082   .     S
C1423  C1929   1.393   .     S
C1424  H1506   1.083   .     S
C1424  C1930   1.398   1_455 S
C1425  H1517   1.082   .     S
C1426  H1528   1.083   .     S
C1427  H1539   1.082   .     S
C1428  O1844   1.384   .     S
C1428  C2070   1.414   .     S
C1429  H1550   1.083   .     S
C1430  H1561   1.081   .     S
C1431  H1572   1.084   .     S
C1432  C1450   1.421   .     A
C1432  C1      1.421   1_565 S
C1432  C1433   1.470   1_554 S
C1433  C1461   1.416   .     A
C1433  C1432   1.470   1_556 S
C1433  C112    1.416   1_565 S
C1434  C1472   1.416   .     A
C1434  C2064   1.414   1_455 S
C1434  C1435   1.468   1_554 S
C1435  C1483   1.415   .     A
C1435  C1434   1.468   1_556 S
C1435  C2075   1.414   1_455 S
C1436  C2073   1.470   1_455 S
C1436  C2130   1.421   1_455 S
C1437  C1910   1.416   .     S
C1437  C2072   1.470   .     S
C1439  O1845   1.384   .     S
C1439  C2071   1.414   .     S
C1440  C24     1.416   1_565 S
C1440  C166    1.469   1_565 S
C1441  O1882   1.283   .     S
C1442  O1794   1.281   .     A
C1442  O577    1.281   1_565 S
C1443  O2432   1.283   1_455 A
C1443  C1930   1.458   1_455 S
C1443  O1860   1.282   .     S
C1444  O1797   1.280   .     A
C1444  O2507   1.280   1_455 S
C1445  C1928   1.461   .     S
C1445  O2434   1.283   .     S
C1445  O2438   1.284   .     S
C1446  O1799   1.281   .     S
C1446  O1803   1.281   .     S
C1447  O1800   1.283   .     A
C1447  O1804   1.283   .     A
C1448  O1806   1.280   .     A
C1448  O1801   1.280   .     A
C1449  O1807   1.279   .     A
C1449  O1835   1.281   .     A
C1449  C1504   1.460   .     S
C1450  O1846   1.387   .     S
C1451  O1836   1.282   .     A
C1451  O1808   1.278   .     A
C1452  O1833   1.281   .     A
C1452  O1809   1.279   .     A
C1453  O1834   1.281   .     A
C1453  O1810   1.278   .     A
C1454  O1811   1.279   .     A
C1454  O1840   1.281   .     A
C1455  O1841   1.282   .     A
C1455  O1812   1.278   .     A
C1456  O1837   1.281   .     A
C1456  C1502   1.460   .     S
C1456  O1813   1.279   .     A
C1457  O1814   1.278   .     A
C1457  O1839   1.282   .     A
C1457  C1503   1.460   .     S
C1458  O1826   1.279   .     A
C1458  O1815   1.281   .     A
C1459  O1817   1.281   .     A
C1459  O1828   1.278   .     A
C1460  O1818   1.281   .     A
C1460  O1824   1.279   .     A
C1461  O1847   1.386   .     S
C1462  O1825   1.278   .     A
C1462  O1819   1.282   .     A
C1463  O1820   1.281   .     A
C1463  O1831   1.279   .     A
C1464  O1821   1.282   .     A
C1464  O1832   1.278   .     A
C1465  O1822   1.281   .     A
C1465  O1829   1.279   .     A
C1466  O1830   1.278   .     A
C1466  O1823   1.282   .     A
C1467  O1859   1.385   .     S
C1467  C1484   1.394   .     A
C1468  C1482   1.396   .     A
C1468  O1861   1.385   .     S
C1469  O1862   1.386   .     S
C1469  C1481   1.394   .     A
C1470  O1863   1.385   .     S
C1470  C1480   1.395   .     A
C1471  O1864   1.386   .     S
C1471  C1479   1.394   .     A
C1472  O1848   1.385   .     S
C1473  C1478   1.395   .     A
C1473  O1865   1.386   .     S
C1474  O1866   1.386   .     S
C1474  C1477   1.395   .     A
C1475  O1867   1.386   .     S
C1475  C1476   1.395   .     A
C1476  O1868   1.384   .     S
C1477  O1869   1.385   .     S
C1478  O1870   1.385   .     S
C1479  O1872   1.384   .     S
C1480  O1873   1.384   .     S
C1481  C1504   1.410   .     A
C1481  O1874   1.384   .     S
C1482  C1503   1.410   .     A
C1482  O1875   1.384   .     S
C1483  O1850   1.386   .     S
C1484  O1876   1.384   .     S
C1484  C1502   1.410   .     A
C1485  C1501   1.394   .     A
C1485  C1503   1.410   .     A
C1485  O1877   1.385   .     S
C1486  O1878   1.386   .     S
C1486  C1500   1.396   .     A
C1486  C1502   1.412   .     A
C1487  C1499   1.394   .     A
C1487  O1879   1.385   .     S
C1488  C1498   1.396   .     A
C1488  O1880   1.386   .     S
C1488  C1504   1.412   .     A
C1489  O1881   1.385   .     S
C1489  C1497   1.394   .     A
C1490  O1883   1.386   .     S
C1490  C1496   1.396   .     A
C1491  C1495   1.394   .     A
C1491  O1884   1.385   .     S
C1492  C1493   1.396   .     A
C1492  O1885   1.386   .     S
C1493  O1886   1.384   .     S
C1494  O1851   1.388   .     S
C1494  C2072   1.421   .     S
C1495  O1887   1.384   .     S
C1496  O1888   1.385   .     S
C1497  O1889   1.384   .     S
C1498  O1890   1.385   .     S
C1499  O1891   1.385   .     S
C1500  O1892   1.384   .     S
C1501  O1795   1.384   .     S
H1512  C1975   1.111   .     S
H1553  C1992   1.111   .     S
H1558  C1994   1.111   1_455 S
H1564  C88     1.111   1_565 S
H1574  C2001   1.111   1_455 S
H1580  C2003   1.111   .     S
H1583  C1298   1.111   1_556 S
H1594  C1298   1.108   1_556 S
H1661  C1301   1.111   1_554 S
H1672  C1301   1.110   1_554 S
H1718  C1304   1.111   1_556 S
H1721  C1305   1.111   1_554 S
H1722  C1306   1.111   1_554 S
H1725  C1308   1.112   1_554 S
H1729  C1309   1.112   1_556 S
H1730  C1310   1.111   1_556 S
H1733  C1311   1.111   1_556 S
H1734  C1311   1.108   1_556 S
H1741  C1314   1.111   1_554 S
H1742  C1314   1.110   1_554 S
H1748  C1317   1.111   1_556 S
H1752  C1319   1.111   1_554 S
H1753  C1320   1.111   1_554 S
H1756  C1321   1.111   1_554 S
H1757  C1321   1.109   1_554 S
H1767  C1961   1.111   1_455 S
H1768  C1962   1.110   1_455 S
O1793  Zn1893  1.947   .     S
O1793  Zn1896  1.947   .     S
O1793  Zn1904  1.946   .     S
O1794  Zn1895  1.933   .     S
O1796  C2079   1.283   .     A
O1796  Zn1898  1.933   .     S
O1797  Zn1897  1.933   .     S
O1798  C2081   1.283   1_455 S
O1798  Zn1907  1.933   .     S
O1799  Zn1906  1.933   .     S
O1800  Zn1901  1.933   .     S
O1801  Zn1893  1.933   .     S
O1802  C2081   1.284   1_455 S
O1802  Zn1903  1.933   .     S
O1803  Zn1902  1.933   .     S
O1804  Zn1905  1.933   .     S
O1805  Zn1899  1.948   .     S
O1805  Zn1905  1.946   .     S
O1805  Zn1901  1.947   .     S
O1806  Zn1904  1.933   .     S
O1807  Zn1896  1.942   .     S
O1808  Zn1895  1.942   .     S
O1809  Zn1898  1.942   .     S
O1810  Zn1897  1.942   .     S
O1811  Zn1900  1.942   .     S
O1812  Zn1899  1.942   .     S
O1813  Zn1894  1.942   .     S
O1814  Zn1908  1.942   .     S
O1815  Zn1895  1.942   .     S
O1816  Zn1894  1.947   .     S
O1816  Zn2534  1.946   1_455 S
O1816  Zn1902  1.947   .     S
O1816  Zn1906  1.948   .     S
O1817  Zn1896  1.942   .     S
O1818  Zn1908  1.942   .     S
O1819  Zn1894  1.942   .     S
O1820  Zn1899  1.942   .     S
O1821  Zn1900  1.942   .     S
O1822  Zn1897  1.943   .     S
O1823  Zn1898  1.943   .     S
O1824  Zn2539  1.942   .     S
O1825  Zn1902  1.942   .     S
O1826  Zn633   1.942   1_565 S
O1827  Zn1897  1.946   .     S
O1827  Zn1903  1.947   .     S
O1827  Zn1907  1.948   .     S
O1827  Zn2544  1.947   1_455 S
O1828  Zn1904  1.942   .     S
O1829  Zn1907  1.942   .     S
O1830  Zn2542  1.942   .     S
O1831  Zn1901  1.942   .     S
O1832  Zn621   1.942   1_565 S
O1833  Zn2538  1.942   .     S
O1834  Zn1903  1.942   .     S
O1835  Zn1893  1.942   .     S
O1836  Zn629   1.942   1_565 S
O1837  Zn1906  1.942   .     S
O1838  Zn1900  1.933   .     S
O1838  C169    1.283   1_565 A
O1839  Zn2543  1.942   .     S
O1840  Zn632   1.943   1_565 S
O1841  Zn1905  1.943   .     S
O1849  Zn1899  1.933   .     S
O1860  Zn1894  1.933   .     S
O1871  Zn1908  1.933   .     S
O1871  C2080   1.280   .     S
O1882  Zn1896  1.933   .     S
Zn1895 O533    1.947   1_565 S
Zn1898 O2452   1.946   .     S
Zn1900 O521    1.948   1_565 S
Zn1902 O2469   1.942   1_455 S
Zn1903 O2460   1.942   1_455 S
Zn1906 O2466   1.942   1_455 S
Zn1907 O2475   1.942   1_455 S
Zn1908 O2463   1.947   .     S
C1909  C1987   1.391   .     A
C1909  O2478   1.388   .     S
C1910  O2488   1.386   .     S
C1910  C2060   1.391   .     A
C1911  C2123   1.411   .     A
C1911  C2116   1.409   .     A
C1911  C2087   1.461   .     S
C1912  C2126   1.412   .     A
C1912  C2088   1.460   .     S
C1912  C2115   1.410   .     A
C1913  C2125   1.411   .     A
C1913  C2114   1.410   .     A
C1913  C2089   1.460   .     S
C1914  C2113   1.410   .     A
C1914  C2090   1.460   .     S
C1914  C2128   1.412   .     A
C1915  C2091   1.461   .     S
C1915  C2112   1.409   .     A
C1915  C2127   1.411   .     A
C1916  C2101   1.460   .     S
C1916  C2111   1.412   .     A
C1916  C2131   1.410   .     A
C1917  C2110   1.411   .     A
C1917  C2102   1.460   .     S
C1917  C2129   1.409   .     A
C1918  C2094   1.460   .     S
C1918  C2133   1.410   .     A
C1918  C2109   1.412   .     A
C1919  C2132   1.410   .     A
C1919  C2107   1.410   .     A
C1919  C2095   1.460   .     S
C1920  C2135   1.410   .     A
C1920  C2106   1.412   .     A
C1920  C2096   1.460   .     S
C1921  C2061   1.392   .     A
C1921  O2489   1.388   .     S
C1921  C802    1.419   1_565 S
C1922  C2105   1.411   .     A
C1922  C2134   1.410   .     A
C1922  C2098   1.460   .     S
C1923  C2099   1.460   .     S
C1923  C2104   1.412   .     A
C1923  C2137   1.409   .     A
C1924  C2136   1.410   .     A
C1924  C2103   1.411   .     A
C1924  C2100   1.460   .     S
C1925  C2032   1.392   .     A
C1925  C715    1.392   1_565 S
C1925  C812    1.449   1_565 S
C1926  C2043   1.398   .     A
C1926  C726    1.398   1_565 S
C1926  C811    1.460   1_565 S
C1927  C2082   1.451   .     S
C1927  C2054   1.395   .     A
C1928  C2058   1.399   .     A
C1929  C2080   1.451   .     S
C1929  C2063   1.393   .     A
C1930  C2065   1.398   .     A
C1930  C1443   1.458   1_655 S
C1930  C1424   1.398   1_655 S
C1931  C2061   1.395   .     A
C1931  C2078   1.451   .     S
C1931  C794    1.393   1_565 S
C1932  C2062   1.390   .     A
C1932  O2490   1.386   .     S
C1933  C2067   1.398   .     A
C1933  C805    1.459   1_565 S
C1933  C790    1.398   1_565 S
C1934  C1935   1.536   .     S
C1934  O2478   1.415   .     S
C1934  H2219   1.111   1_554 S
C1934  H2230   1.108   1_554 S
C1935  H2253   1.111   .     S
C1935  H2241   1.111   .     S
C1935  C1936   1.526   .     S
C1936  H2264   1.110   .     S
C1936  H2275   1.110   .     S
C1936  H2286   1.111   .     S
C1937  O2479   1.414   .     S
C1937  C1938   1.535   .     S
C1937  H2297   1.111   1_556 S
C1937  H2308   1.110   1_556 S
C1938  C1939   1.525   .     S
C1938  H2330   1.111   .     S
C1938  H2319   1.111   .     S
C1939  H2351   1.111   .     S
C1939  H2353   1.111   .     S
C1939  H2341   1.110   .     S
C1940  O2480   1.411   .     S
C1940  H2355   1.116   .     S
C1940  C1941   1.527   1_554 S
C1940  H2354   1.111   1_554 S
C1941  C1942   1.527   .     S
C1941  H2356   1.111   .     S
C1941  C1940   1.527   1_556 S
C1941  H2357   1.111   1_556 S
C1942  H2360   1.111   .     S
C1942  H2359   1.109   .     S
C1942  H2358   1.111   1_556 S
C1943  C2063   1.391   .     A
C1943  C2072   1.421   .     A
C1943  O2491   1.388   .     S
C1944  H2362   1.116   .     S
C1944  O2481   1.411   .     S
C1944  C1945   1.528   1_556 S
C1944  H2361   1.112   1_556 S
C1945  C1946   1.527   .     S
C1945  H2364   1.112   .     S
C1945  C1944   1.528   1_554 S
C1945  H2365   1.112   1_554 S
C1946  H2367   1.111   .     S
C1946  H2368   1.111   .     S
C1946  H2366   1.111   1_554 S
C1947  O2482   1.415   .     S
C1947  C1948   1.537   .     S
C1947  H2369   1.111   1_554 S
C1947  H2370   1.108   1_554 S
C1948  H2371   1.111   .     S
C1948  H2372   1.111   .     S
C1948  C1949   1.526   .     S
C1949  H2376   1.111   .     S
C1949  H2373   1.110   .     S
C1949  H2375   1.110   .     S
C1950  C1951   1.535   .     S
C1950  O2483   1.414   .     S
C1950  H2377   1.111   1_556 S
C1950  H2378   1.110   1_556 S
C1951  C1952   1.525   .     S
C1951  H2379   1.112   .     S
C1951  H2380   1.111   .     S
C1952  H2381   1.110   .     S
C1952  H2383   1.111   .     S
C1952  H2382   1.111   .     S
C1953  O2484   1.412   .     S
C1953  H2386   1.117   .     S
C1953  C1955   1.527   1_554 S
C1953  H2384   1.111   1_554 S
C1954  C2073   1.416   .     A
C1954  O2492   1.385   .     S
C1954  C2065   1.390   .     A
C1955  H2387   1.112   .     S
C1955  C1956   1.527   .     S
C1955  C1953   1.527   1_556 S
C1955  H2388   1.111   1_556 S
C1956  H2391   1.111   .     S
C1956  H2390   1.109   .     S
C1956  H2389   1.111   1_556 S
C1957  C1958   1.536   .     S
C1957  O2486   1.415   .     S
C1957  H2392   1.111   1_556 S
C1957  H2393   1.109   1_556 S
C1958  H2395   1.111   .     S
C1958  C1959   1.526   .     S
C1958  H2394   1.112   .     S
C1959  H2398   1.111   .     S
C1959  H2399   1.111   .     S
C1959  H2397   1.111   .     S
C1960  O2487   1.415   .     S
C1960  H2401   1.107   .     S
C1960  C1961   1.537   .     S
C1960  H2400   1.111   .     S
C1961  H2402   1.111   .     S
C1961  C1962   1.526   .     S
C1961  H1767   1.111   1_655 S
C1962  H2405   1.110   .     S
C1962  H2406   1.111   .     S
C1962  H1768   1.110   1_655 S
C1963  O2488   1.414   .     S
C1963  H2409   1.110   .     S
C1963  H2408   1.111   .     S
C1963  C1964   1.535   .     S
C1964  H2411   1.111   .     S
C1964  C1966   1.527   .     S
C1964  H2410   1.112   .     S
C1965  O2493   1.385   .     S
C1965  C2074   1.418   .     A
C1965  C2066   1.390   .     A
C1966  H2414   1.111   .     S
C1966  H2412   1.110   .     S
C1966  H2413   1.111   .     S
C1967  H2416   1.107   .     S
C1967  C1968   1.537   .     S
C1967  H2415   1.111   .     S
C1967  O2489   1.415   .     S
C1968  H2417   1.110   .     S
C1968  H2419   1.111   .     S
C1968  C1969   1.526   .     S
C1969  H2422   1.111   .     S
C1969  H2421   1.110   .     S
C1969  H1148   1.111   1_565 S
C1970  H2424   1.111   .     S
C1970  C1971   1.535   .     S
C1970  H2423   1.111   .     S
C1970  O2490   1.414   .     S
C1971  H2426   1.111   .     S
C1971  H2425   1.112   .     S
C1971  C1972   1.527   .     S
C1972  H2143   1.111   .     S
C1972  H2427   1.110   .     S
C1972  H2428   1.111   .     S
C1973  O2491   1.416   .     S
C1973  H2144   1.111   .     S
C1973  H2145   1.108   .     S
C1973  C1974   1.537   .     S
C1974  C1975   1.526   .     S
C1974  H2146   1.110   .     S
C1974  H2147   1.111   .     S
C1975  H2150   1.111   .     S
C1975  H2149   1.110   .     S
C1976  O2494   1.387   .     S
C1976  C2076   1.417   .     A
C1976  C2067   1.391   .     A
C1977  H2152   1.111   .     S
C1977  C1978   1.534   .     S
C1977  H2151   1.111   .     S
C1977  O2492   1.414   .     S
C1978  H2155   1.111   .     S
C1978  C1979   1.525   .     S
C1978  H2154   1.111   .     S
C1979  H2157   1.111   .     S
C1979  H2156   1.110   .     S
C1979  H2158   1.111   .     S
C1980  C1981   1.527   .     S
C1980  O2493   1.412   .     S
C1980  H2159   1.111   .     S
C1980  H2160   1.117   .     S
C1981  H2162   1.111   .     S
C1981  C1982   1.527   .     S
C1981  H2161   1.112   .     S
C1982  H2166   1.111   .     S
C1982  H2163   1.111   .     S
C1982  H2165   1.109   .     S
C1983  O2494   1.415   .     S
C1983  H2167   1.111   .     S
C1983  C1984   1.536   .     S
C1983  H2168   1.109   .     S
C1984  H2170   1.111   .     S
C1984  H2169   1.112   .     S
C1984  C1985   1.526   .     S
C1985  H2171   1.111   .     S
C1985  H2173   1.111   .     S
C1985  H2172   1.111   .     S
C1986  H2174   1.116   .     S
C1986  H2176   1.112   .     S
C1986  C1988   1.521   .     S
C1986  O2495   1.414   .     S
C1987  H2141   1.082   .     S
C1988  H2177   1.111   .     S
C1988  H2179   1.111   .     S
C1988  H906    1.111   1_565 S
C1989  O2497   1.414   .     S
C1989  H2180   1.112   .     S
C1989  H2181   1.116   .     S
C1989  C1990   1.522   .     S
C1990  H2182   1.110   .     S
C1990  H2183   1.111   .     S
C1990  H2184   1.111   .     S
C1991  H2187   1.112   .     S
C1991  O2498   1.414   .     S
C1991  H2185   1.116   .     S
C1991  C1992   1.522   .     S
C1992  H2190   1.111   .     S
C1992  H2188   1.111   .     S
C1993  C1994   1.522   .     S
C1993  H2191   1.113   .     S
C1993  H2192   1.116   .     S
C1993  O2499   1.414   .     S
C1994  H2195   1.111   .     S
C1994  H2193   1.111   .     S
C1994  H1558   1.111   1_655 S
C1995  H2198   1.112   .     S
C1995  O2500   1.414   .     S
C1995  H2196   1.116   .     S
C1995  C1996   1.521   .     S
C1996  H2201   1.111   .     S
C1996  H2199   1.111   .     S
C1997  H2203   1.116   .     S
C1997  H2202   1.112   .     S
C1997  O2501   1.414   .     S
C1997  C1999   1.522   .     S
C1998  H2252   1.083   .     S
C1998  C2020   1.390   .     A
C1999  H2204   1.111   .     S
C1999  H2206   1.111   .     S
C1999  H933    1.111   1_565 S
C2000  H2207   1.116   .     S
C2000  H2209   1.112   .     S
C2000  O2502   1.414   .     S
C2000  C2001   1.521   .     S
C2001  H2212   1.111   .     S
C2001  H2211   1.111   .     S
C2001  H1574   1.111   1_655 S
C2002  C2003   1.522   .     S
C2002  H2214   1.116   .     S
C2002  O2503   1.414   .     S
C2002  H2213   1.112   .     S
C2003  H2215   1.111   .     S
C2003  H2217   1.111   .     S
C2004  O2504   1.412   .     S
C2004  H2218   1.114   .     S
C2004  C2005   1.520   .     S
C2004  H2220   1.114   .     S
C2005  H2222   1.111   .     S
C2005  H2221   1.109   .     S
C2005  H2223   1.111   .     S
C2006  H2225   1.116   .     S
C2006  O2505   1.413   .     S
C2006  C2007   1.521   .     S
C2006  H2224   1.112   .     S
C2007  H2227   1.110   .     S
C2007  H2228   1.110   .     S
C2007  H2226   1.111   .     S
C2008  H2229   1.114   .     S
C2008  H2231   1.114   .     S
C2008  C2010   1.521   .     S
C2008  O2506   1.413   .     S
C2009  C2064   1.391   .     A
C2009  H2352   1.081   .     S
C2009  C1291   1.395   1_655 S
C2010  H2232   1.109   .     S
C2010  H2233   1.110   .     S
C2010  H2234   1.111   .     S
C2011  H2235   1.112   .     S
C2011  O2508   1.413   .     S
C2011  H2236   1.116   .     S
C2011  C2012   1.521   .     S
C2012  H2237   1.111   .     S
C2012  H2239   1.110   .     S
C2012  H2238   1.110   .     S
C2013  H2242   1.115   .     S
C2013  O2509   1.412   .     S
C2013  C2014   1.520   .     S
C2013  H2240   1.114   .     S
C2014  H2243   1.108   .     S
C2014  H2245   1.111   .     S
C2014  H2244   1.111   .     S
C2015  C2016   1.521   .     S
C2015  O2510   1.413   .     S
C2015  H2246   1.112   .     S
C2015  H2247   1.116   .     S
C2016  H2249   1.110   .     S
C2016  H2248   1.111   .     S
C2016  H2250   1.110   .     S
C2017  C2018   1.521   .     S
C2017  O2511   1.412   .     S
C2017  H2251   1.114   .     S
C2017  H2254   1.114   .     S
C2018  H2256   1.110   .     S
C2018  H2257   1.111   .     S
C2018  H2255   1.109   .     S
C2019  O2512   1.413   .     S
C2019  H2258   1.112   .     S
C2019  C2022   1.521   .     S
C2019  H2259   1.116   .     S
C2020  O2479   1.386   .     S
C2021  C2075   1.392   .     A
C2021  H2363   1.084   .     S
C2021  C1292   1.399   1_655 S
C2022  H2261   1.110   .     S
C2022  H2260   1.111   .     S
C2022  H2262   1.110   .     S
C2023  H2265   1.112   .     S
C2023  H2263   1.116   .     S
C2023  O2513   1.414   .     S
C2023  C2024   1.521   .     S
C2024  H2267   1.111   .     S
C2024  H2266   1.111   .     S
C2024  H2268   1.111   .     S
C2025  C2026   1.522   .     S
C2025  H2270   1.116   .     S
C2025  O2514   1.414   .     S
C2025  H2269   1.112   .     S
C2026  H2272   1.111   .     S
C2026  H2273   1.111   .     S
C2026  H2271   1.111   .     S
C2027  O2515   1.414   .     S
C2027  H2276   1.113   .     S
C2027  H2274   1.116   .     S
C2027  C2028   1.521   .     S
C2028  H2277   1.111   .     S
C2028  H2279   1.111   .     S
C2028  H2278   1.111   .     S
C2029  H2281   1.116   .     S
C2029  O2516   1.414   .     S
C2029  C2030   1.522   .     S
C2029  H2280   1.112   .     S
C2030  H2283   1.111   .     S
C2030  H2284   1.111   .     S
C2030  H2282   1.111   .     S
C2031  H2287   1.112   .     S
C2031  H2285   1.116   .     S
C2031  C2033   1.521   .     S
C2031  O2517   1.414   .     S
C2032  H2374   1.082   .     S
C2032  C2086   1.391   .     A
C2033  H2290   1.111   .     S
C2033  H2289   1.111   .     S
C2033  H2288   1.111   .     S
C2034  C2035   1.522   .     S
C2034  H2291   1.112   .     S
C2034  H2292   1.116   .     S
C2034  O2519   1.414   .     S
C2035  H2294   1.111   .     S
C2035  H2295   1.111   .     S
C2035  H2293   1.111   .     S
C2036  C2037   1.521   .     S
C2036  H2296   1.116   .     S
C2036  O2520   1.414   .     S
C2036  H2298   1.112   .     S
C2037  H2300   1.111   .     S
C2037  H2301   1.111   .     S
C2037  H2299   1.111   .     S
C2038  C2039   1.522   .     S
C2038  H2302   1.112   .     S
C2038  O2521   1.414   .     S
C2038  H2303   1.116   .     S
C2039  H2306   1.111   .     S
C2039  H2304   1.111   .     S
C2039  H2305   1.111   .     S
C2040  H2309   1.114   .     S
C2040  O2522   1.412   .     S
C2040  C2041   1.521   .     S
C2040  H2307   1.114   .     S
C2041  H2311   1.111   .     S
C2041  H2312   1.111   .     S
C2041  H2310   1.109   .     S
C2042  H2314   1.116   .     S
C2042  O2523   1.413   .     S
C2042  C2044   1.521   .     S
C2042  H2313   1.112   .     S
C2043  C2097   1.390   .     A
C2043  H2385   1.083   .     S
C2044  H2316   1.109   .     S
C2044  H2315   1.111   .     S
C2044  H2317   1.109   .     S
C2045  H2318   1.114   .     S
C2045  O2524   1.412   .     S
C2045  C2046   1.521   .     S
C2045  H2320   1.114   .     S
C2046  H2323   1.111   .     S
C2046  H2321   1.109   .     S
C2046  H2322   1.110   .     S
C2047  H2324   1.112   .     S
C2047  C2048   1.521   .     S
C2047  O2525   1.413   .     S
C2047  H2325   1.116   .     S
C2048  H2327   1.110   .     S
C2048  H2326   1.111   .     S
C2048  H2328   1.110   .     S
C2049  O2526   1.412   .     S
C2049  H2329   1.114   .     S
C2049  C2050   1.521   .     S
C2049  H2331   1.114   .     S
C2050  H2332   1.109   .     S
C2050  H2333   1.111   .     S
C2050  H2334   1.111   .     S
C2051  C2052   1.521   .     S
C2051  H2335   1.112   .     S
C2051  O2527   1.414   .     S
C2051  H2336   1.116   .     S
C2052  H2337   1.111   .     S
C2052  H2339   1.109   .     S
C2052  H2338   1.110   .     S
C2053  H2342   1.114   .     S
C2053  H2340   1.114   .     S
C2053  C2055   1.521   .     S
C2053  O2528   1.412   .     S
C2054  C2108   1.392   .     A
C2054  H2396   1.081   .     S
C2055  H2344   1.111   .     S
C2055  H2343   1.109   .     S
C2055  H2345   1.111   .     S
C2056  H2346   1.112   .     S
C2056  C2057   1.521   .     S
C2056  O2431   1.413   .     S
C2056  H2347   1.116   .     S
C2057  H2350   1.110   .     S
C2057  H2348   1.111   .     S
C2057  H2349   1.110   .     S
C2058  C2119   1.391   .     A
C2058  H2407   1.084   .     S
C2059  C2130   1.391   .     A
C2059  H2418   1.082   .     S
C2059  C1293   1.393   1_655 S
C2060  H2142   1.083   .     S
C2061  H2153   1.082   .     S
C2062  H2164   1.083   .     S
C2063  H2175   1.082   .     S
C2064  O2480   1.384   .     S
C2064  C1434   1.414   1_655 S
C2065  H2186   1.083   .     S
C2066  H2197   1.081   .     S
C2067  H2208   1.084   .     S
C2068  C2086   1.421   .     A
C2068  C637    1.421   1_565 S
C2068  C2069   1.470   1_554 S
C2069  C2097   1.416   .     A
C2069  C2068   1.470   1_556 S
C2069  C748    1.416   1_565 S
C2070  C2108   1.416   .     A
C2070  C2071   1.468   1_554 S
C2071  C2119   1.415   .     A
C2071  C2070   1.468   1_556 S
C2073  C1274   1.416   1_655 S
C2073  C1436   1.470   1_655 S
C2075  O2481   1.384   .     S
C2075  C1435   1.414   1_655 S
C2076  C660    1.416   1_565 S
C2076  C802    1.469   1_565 S
C2077  O2518   1.283   .     S
C2078  O2430   1.281   .     A
C2078  O1213   1.281   1_565 S
C2079  O2496   1.282   .     S
C2080  O2433   1.280   .     A
C2081  C1292   1.461   1_655 S
C2081  O1798   1.283   1_655 S
C2081  O1802   1.284   1_655 S
C2082  O2435   1.281   .     S
C2082  O2439   1.281   .     S
C2083  O2436   1.283   .     A
C2083  O2440   1.283   .     A
C2084  O2442   1.280   .     A
C2084  O2437   1.280   .     A
C2085  O2443   1.279   .     A
C2085  O2471   1.281   .     A
C2085  C2140   1.460   .     S
C2086  O2482   1.387   .     S
C2087  O2472   1.282   .     A
C2087  O2444   1.278   .     A
C2088  O2469   1.281   .     A
C2088  O2445   1.279   .     A
C2089  O2470   1.281   .     A
C2089  O2446   1.278   .     A
C2090  O2447   1.279   .     A
C2090  O2476   1.281   .     A
C2091  O2477   1.282   .     A
C2091  O2448   1.278   .     A
C2092  O2473   1.281   .     A
C2092  C2138   1.460   .     S
C2092  O2449   1.279   .     A
C2093  O2450   1.278   .     A
C2093  O2475   1.282   .     A
C2093  C2139   1.460   .     S
C2094  O2462   1.279   .     A
C2094  O2451   1.281   .     A
C2095  O2453   1.281   .     A
C2095  O2464   1.278   .     A
C2096  O2454   1.281   .     A
C2096  O2460   1.279   .     A
C2097  O2483   1.386   .     S
C2098  O2461   1.278   .     A
C2098  O2455   1.282   .     A
C2099  O2456   1.281   .     A
C2099  O2467   1.279   .     A
C2100  O2457   1.282   .     A
C2100  O2468   1.278   .     A
C2101  O2458   1.281   .     A
C2101  O2465   1.279   .     A
C2102  O2466   1.278   .     A
C2102  O2459   1.282   .     A
C2103  O2495   1.385   .     S
C2103  C2120   1.394   .     A
C2104  C2118   1.396   .     A
C2104  O2497   1.385   .     S
C2105  O2498   1.386   .     S
C2105  C2117   1.394   .     A
C2106  O2499   1.385   .     S
C2106  C2116   1.395   .     A
C2107  O2500   1.386   .     S
C2107  C2115   1.394   .     A
C2108  O2484   1.385   .     S
C2109  C2114   1.395   .     A
C2109  O2501   1.386   .     S
C2110  O2502   1.386   .     S
C2110  C2113   1.395   .     A
C2111  O2503   1.386   .     S
C2111  C2112   1.395   .     A
C2112  O2504   1.384   .     S
C2113  O2505   1.385   .     S
C2114  O2506   1.385   .     S
C2115  O2508   1.384   .     S
C2116  O2509   1.384   .     S
C2117  C2140   1.410   .     A
C2117  O2510   1.384   .     S
C2118  C2139   1.410   .     A
C2118  O2511   1.384   .     S
C2119  O2486   1.386   .     S
C2120  O2512   1.384   .     S
C2120  C2138   1.410   .     A
C2121  C2137   1.394   .     A
C2121  C2139   1.410   .     A
C2121  O2513   1.385   .     S
C2122  O2514   1.386   .     S
C2122  C2136   1.396   .     A
C2122  C2138   1.412   .     A
C2123  C2135   1.394   .     A
C2123  O2515   1.385   .     S
C2124  C2134   1.396   .     A
C2124  O2516   1.386   .     S
C2124  C2140   1.412   .     A
C2125  O2517   1.385   .     S
C2125  C2133   1.394   .     A
C2126  O2519   1.386   .     S
C2126  C2132   1.396   .     A
C2127  C2131   1.394   .     A
C2127  O2520   1.385   .     S
C2128  C2129   1.396   .     A
C2128  O2521   1.386   .     S
C2129  O2522   1.384   .     S
C2130  O2487   1.388   .     S
C2130  C1436   1.421   1_655 S
C2131  O2523   1.384   .     S
C2132  O2524   1.385   .     S
C2133  O2525   1.384   .     S
C2134  O2526   1.385   .     S
C2135  O2527   1.385   .     S
C2136  O2528   1.384   .     S
C2137  O2431   1.384   .     S
H2148  C1339   1.111   1_655 S
H2189  C1356   1.111   1_655 S
H2200  C724    1.111   1_565 S
H2216  C1367   1.111   1_655 S
H2219  C1934   1.111   1_556 S
H2230  C1934   1.108   1_556 S
H2297  C1937   1.111   1_554 S
H2308  C1937   1.110   1_554 S
H2354  C1940   1.111   1_556 S
H2357  C1941   1.111   1_554 S
H2358  C1942   1.111   1_554 S
H2361  C1944   1.112   1_554 S
H2365  C1945   1.112   1_556 S
H2366  C1946   1.111   1_556 S
H2369  C1947   1.111   1_556 S
H2370  C1947   1.108   1_556 S
H2377  C1950   1.111   1_554 S
H2378  C1950   1.110   1_554 S
H2384  C1953   1.111   1_556 S
H2388  C1955   1.111   1_554 S
H2389  C1956   1.111   1_554 S
H2392  C1957   1.111   1_554 S
H2393  C1957   1.109   1_554 S
O2429  Zn2529  1.947   .     S
O2429  Zn2532  1.947   .     S
O2429  Zn2540  1.946   .     S
O2430  Zn2531  1.933   .     S
O2432  C1443   1.283   1_655 A
O2432  Zn2534  1.933   .     S
O2433  Zn2533  1.933   .     S
O2434  Zn2543  1.933   .     S
O2435  Zn2542  1.933   .     S
O2436  Zn2537  1.933   .     S
O2437  Zn2529  1.933   .     S
O2438  Zn2539  1.933   .     S
O2439  Zn2538  1.933   .     S
O2440  Zn2541  1.933   .     S
O2441  Zn2535  1.948   .     S
O2441  Zn2541  1.946   .     S
O2441  Zn2537  1.947   .     S
O2442  Zn2540  1.933   .     S
O2443  Zn2532  1.942   .     S
O2444  Zn2531  1.942   .     S
O2445  Zn2534  1.942   .     S
O2446  Zn2533  1.942   .     S
O2447  Zn2536  1.942   .     S
O2448  Zn2535  1.942   .     S
O2449  Zn2530  1.942   .     S
O2450  Zn2544  1.942   .     S
O2451  Zn2531  1.942   .     S
O2452  Zn2530  1.947   .     S
O2452  Zn2538  1.947   .     S
O2452  Zn2542  1.948   .     S
O2453  Zn2532  1.942   .     S
O2454  Zn2544  1.942   .     S
O2455  Zn2530  1.942   .     S
O2456  Zn2535  1.942   .     S
O2457  Zn2536  1.942   .     S
O2458  Zn2533  1.943   .     S
O2459  Zn2534  1.943   .     S
O2460  Zn1903  1.942   1_655 S
O2461  Zn2538  1.942   .     S
O2462  Zn1269  1.942   1_565 S
O2463  Zn2533  1.946   .     S
O2463  Zn2539  1.947   .     S
O2463  Zn2543  1.948   .     S
O2464  Zn2540  1.942   .     S
O2465  Zn2543  1.942   .     S
O2466  Zn1906  1.942   1_655 S
O2467  Zn2537  1.942   .     S
O2468  Zn1257  1.942   1_565 S
O2469  Zn1902  1.942   1_655 S
O2470  Zn2539  1.942   .     S
O2471  Zn2529  1.942   .     S
O2472  Zn1265  1.942   1_565 S
O2473  Zn2542  1.942   .     S
O2474  Zn2536  1.933   .     S
O2474  C805    1.283   1_565 A
O2475  Zn1907  1.942   1_655 S
O2476  Zn1268  1.943   1_565 S
O2477  Zn2541  1.943   .     S
O2485  Zn2535  1.933   .     S
O2496  Zn2530  1.933   .     S
O2507  Zn2544  1.933   .     S
O2507  C1444   1.280   1_655 S
O2518  Zn2532  1.933   .     S
Zn2531 O1169   1.947   1_565 S
Zn2534 O1816   1.946   1_655 S
Zn2536 O1157   1.948   1_565 S
Zn2544 O1827   1.947   1_655 S
