data_str_m1_o1_o2_pcu_sym.90
_audit_creation_date              2020-01-03
_audit_creation_method            'Materials Studio'
_symmetry_space_group_name_H-M    'P1'
_symmetry_Int_Tables_number       1
_symmetry_cell_setting            triclinic
loop_
_symmetry_equiv_pos_as_xyz
  x,y,z
_cell_length_a                    36.6786
_cell_length_b                    36.6782
_cell_length_c                    34.5476
_cell_angle_alpha                 89.9995
_cell_angle_beta                  90.0004
_cell_angle_gamma                 90.0005
loop_
_atom_site_label
_atom_site_type_symbol
_atom_site_fract_x
_atom_site_fract_y
_atom_site_fract_z
_atom_site_U_iso_or_equiv
_atom_site_adp_type
_atom_site_occupancy
C1     C     0.22240   0.48176   0.04126   0.00000  Uiso   1.00
C2     C     0.02767   0.23184   0.45874   0.00000  Uiso   1.00
C3     C     0.34813   0.40185   0.75002   0.00000  Uiso   1.00
C4     C     0.40185   0.15187   0.24998   0.00000  Uiso   1.00
C5     C     0.09812   0.34815   0.74998   0.00000  Uiso   1.00
C6     C     0.34815   0.40187   0.25002   0.00000  Uiso   1.00
C7     C     0.15187   0.09815   0.75002   0.00000  Uiso   1.00
C8     C     0.09815   0.15187   0.75002   0.00000  Uiso   1.00
C9     C     0.40188   0.34815   0.25002   0.00000  Uiso   1.00
C10    C     0.15185   0.40187   0.74998   0.00000  Uiso   1.00
C11    C     0.34813   0.09815   0.24998   0.00000  Uiso   1.00
C12    C     0.40185   0.34812   0.75002   0.00000  Uiso   1.00
C13    C     0.26817   0.47238   0.54125   0.00000  Uiso   1.00
C14    C     0.09812   0.15185   0.25002   0.00000  Uiso   1.00
C15    C     0.34815   0.09813   0.74998   0.00000  Uiso   1.00
C16    C     0.15187   0.40185   0.24998   0.00000  Uiso   1.00
C17    C     0.25000  -0.00000   0.10223   0.00000  Uiso   1.00
C18    C     0.25000  -0.00000   0.89777   0.00000  Uiso   1.00
C19    C     0.49999   0.25000   0.10223   0.00000  Uiso   1.00
C20    C    -0.00000   0.25000   0.89777   0.00000  Uiso   1.00
C21    C     0.00000   0.25000   0.60223   0.00000  Uiso   1.00
C22    C     0.00000   0.24999   0.39778   0.00000  Uiso   1.00
C23    C     0.24998   0.00000   0.60222   0.00000  Uiso   1.00
C24    C     0.26827   0.02757   0.45874   0.00000  Uiso   1.00
C25    C     0.24999  -0.00000   0.39777   0.00000  Uiso   1.00
C26    C     0.02754   0.26833   0.54127   0.00000  Uiso   1.00
C27    C     0.47234   0.26813   0.45875   0.00000  Uiso   1.00
C28    C     0.23174   0.02762   0.54127   0.00000  Uiso   1.00
C29    C     0.23164   0.47245   0.45873   0.00000  Uiso   1.00
C30    C     0.22226   0.48152   0.08172   0.00000  Uiso   1.00
C31    C     0.27772   0.48148   0.91827   0.00000  Uiso   1.00
C32    C     0.48160   0.22220   0.08173   0.00000  Uiso   1.00
C33    C     0.27759   0.48173   0.95873   0.00000  Uiso   1.00
C34    C     0.48155   0.27776   0.91827   0.00000  Uiso   1.00
C35    C     0.27774   0.01847   0.08172   0.00000  Uiso   1.00
C36    C     0.22228   0.01850   0.91828   0.00000  Uiso   1.00
C37    C     0.01838   0.27780   0.08172   0.00000  Uiso   1.00
C38    C     0.01843   0.22223   0.91828   0.00000  Uiso   1.00
C39    C     0.47234   0.23140   0.58174   0.00000  Uiso   1.00
C40    C     0.02780   0.23159   0.41828   0.00000  Uiso   1.00
C41    C     0.26844   0.47225   0.58171   0.00000  Uiso   1.00
C42    C     0.26853   0.02769   0.41828   0.00000  Uiso   1.00
C43    C     0.02767   0.26858   0.58173   0.00000  Uiso   1.00
C44    C     0.48184   0.22233   0.04127   0.00000  Uiso   1.00
C45    C     0.47220   0.26838   0.41829   0.00000  Uiso   1.00
C46    C     0.23151   0.02775   0.58173   0.00000  Uiso   1.00
C47    C     0.23142   0.47232   0.41827   0.00000  Uiso   1.00
C48    C     0.25001   0.49999   0.02115   0.00000  Uiso   1.00
C49    C     0.25000   0.49999   0.97885   0.00000  Uiso   1.00
C50    C     0.49998   0.25000   0.02115   0.00000  Uiso   1.00
C51    C     0.49998   0.24999   0.97885   0.00000  Uiso   1.00
C52    C     0.00001   0.24998   0.52116   0.00000  Uiso   1.00
C53    C     0.00000   0.24998   0.47886   0.00000  Uiso   1.00
C54    C     0.24995  -0.00000   0.52115   0.00000  Uiso   1.00
C55    C     0.48179   0.27763   0.95873   0.00000  Uiso   1.00
C56    C     0.24995   0.00001   0.47885   0.00000  Uiso   1.00
C57    C     0.25000  -0.00000   0.35523   0.00000  Uiso   1.00
C58    C     0.25000   0.00000   0.64476   0.00000  Uiso   1.00
C59    C     0.00000   0.25000   0.35524   0.00000  Uiso   1.00
C60    C     0.00000   0.25000   0.64477   0.00000  Uiso   1.00
C61    C     0.00000   0.25000   0.85523   0.00000  Uiso   1.00
C62    C    -0.00000   0.25000   0.14477   0.00000  Uiso   1.00
C63    C     0.25000  -0.00000   0.85523   0.00000  Uiso   1.00
C64    C     0.25000   0.00000   0.14477   0.00000  Uiso   1.00
C65    C     0.17992   0.07007   0.25000   0.00000  Uiso   1.00
C66    C     0.27762   0.01822   0.04126   0.00000  Uiso   1.00
C67    C     0.32007   0.42992   0.75000   0.00000  Uiso   1.00
C68    C     0.42992   0.17993   0.24999   0.00000  Uiso   1.00
C69    C     0.07007   0.32008   0.74999   0.00000  Uiso   1.00
C70    C     0.32008   0.42993   0.25000   0.00000  Uiso   1.00
C71    C     0.17993   0.07008   0.75000   0.00000  Uiso   1.00
C72    C     0.07008   0.32007   0.24999   0.00000  Uiso   1.00
C73    C     0.42993   0.17992   0.74999   0.00000  Uiso   1.00
C74    C     0.17992   0.42993   0.75000   0.00000  Uiso   1.00
C75    C     0.32007   0.07008   0.25000   0.00000  Uiso   1.00
C76    C     0.42992   0.32007   0.75001   0.00000  Uiso   1.00
C77    C     0.22242   0.01825   0.95874   0.00000  Uiso   1.00
C78    C     0.07007   0.17992   0.25001   0.00000  Uiso   1.00
C79    C     0.32008   0.07007   0.75000   0.00000  Uiso   1.00
C80    C     0.17993   0.42992   0.25000   0.00000  Uiso   1.00
C81    C     0.07008   0.17993   0.75001   0.00000  Uiso   1.00
C82    C     0.42993   0.32008   0.25001   0.00000  Uiso   1.00
C83    C     0.12213   0.40460   0.22467   0.00000  Uiso   1.00
C84    C     0.37809   0.09518   0.77500   0.00000  Uiso   1.00
C85    C     0.09518   0.12191   0.22501   0.00000  Uiso   1.00
C86    C     0.40459   0.37787   0.77533   0.00000  Uiso   1.00
C87    C     0.37787   0.09540   0.22467   0.00000  Uiso   1.00
C88    C     0.01813   0.27766   0.04126   0.00000  Uiso   1.00
C89    C     0.12191   0.40482   0.77500   0.00000  Uiso   1.00
C90    C     0.40482   0.37809   0.22501   0.00000  Uiso   1.00
C91    C     0.09541   0.12213   0.77533   0.00000  Uiso   1.00
C92    C     0.12213   0.09540   0.77533   0.00000  Uiso   1.00
C93    C     0.37809   0.40482   0.22500   0.00000  Uiso   1.00
C94    C     0.09518   0.37809   0.77499   0.00000  Uiso   1.00
C95    C     0.40459   0.12213   0.22467   0.00000  Uiso   1.00
C96    C     0.37787   0.40460   0.77533   0.00000  Uiso   1.00
C97    C     0.12191   0.09518   0.22500   0.00000  Uiso   1.00
C98    C     0.40482   0.12191   0.77499   0.00000  Uiso   1.00
C99    C     0.01818   0.22236   0.95874   0.00000  Uiso   1.00
C100   C     0.09541   0.37787   0.22467   0.00000  Uiso   1.00
C101   C     0.37194   0.15479   0.72495   0.00000  Uiso   1.00
C102   C     0.12790   0.34537   0.27527   0.00000  Uiso   1.00
C103   C     0.34537   0.37210   0.72472   0.00000  Uiso   1.00
C104   C     0.15479   0.12806   0.27505   0.00000  Uiso   1.00
C105   C     0.12806   0.34521   0.72495   0.00000  Uiso   1.00
C106   C     0.37210   0.15463   0.27527   0.00000  Uiso   1.00
C107   C     0.15463   0.12790   0.72472   0.00000  Uiso   1.00
C108   C     0.34521   0.37193   0.27505   0.00000  Uiso   1.00
C109   C     0.37194   0.34521   0.27505   0.00000  Uiso   1.00
C110   C     0.47247   0.23164   0.54127   0.00000  Uiso   1.00
C111   C     0.12790   0.15463   0.72473   0.00000  Uiso   1.00
C112   C     0.34537   0.12790   0.27528   0.00000  Uiso   1.00
C113   C     0.15479   0.37194   0.72495   0.00000  Uiso   1.00
C114   C     0.12806   0.15479   0.27505   0.00000  Uiso   1.00
C115   C     0.37210   0.34537   0.72473   0.00000  Uiso   1.00
C116   C     0.15463   0.37210   0.27528   0.00000  Uiso   1.00
C117   C     0.34521   0.12806   0.72495   0.00000  Uiso   1.00
C118   C     0.09815   0.34812   0.24998   0.00000  Uiso   1.00
C119   C     0.40188   0.15185   0.74998   0.00000  Uiso   1.00
C120   C     0.15185   0.09813   0.25002   0.00000  Uiso   1.00
F121   F     0.19595   0.46363   0.02154   0.00000  Uiso   1.00
F122   F     0.05416   0.21378   0.47847   0.00000  Uiso   1.00
F123   F     0.28629   0.44593   0.52152   0.00000  Uiso   1.00
F124   F     0.28647   0.05396   0.47847   0.00000  Uiso   1.00
F125   F     0.05391   0.28657   0.52155   0.00000  Uiso   1.00
F126   F     0.44584   0.28618   0.47848   0.00000  Uiso   1.00
F127   F     0.21362   0.05407   0.52155   0.00000  Uiso   1.00
F128   F     0.21342   0.44607   0.47845   0.00000  Uiso   1.00
F129   F     0.30401   0.46356   0.97846   0.00000  Uiso   1.00
F130   F     0.46378   0.19584   0.02155   0.00000  Uiso   1.00
F131   F     0.46368   0.30409   0.97845   0.00000  Uiso   1.00
F132   F     0.30407   0.03634   0.02154   0.00000  Uiso   1.00
F133   F     0.19600   0.03642   0.97847   0.00000  Uiso   1.00
F134   F     0.03619   0.30416   0.02153   0.00000  Uiso   1.00
F135   F     0.03627   0.19589   0.97846   0.00000  Uiso   1.00
F136   F     0.44611   0.21339   0.52155   0.00000  Uiso   1.00
H137   H     0.11948   0.42734   0.20486   0.00000  Uiso   1.00
H138   H     0.38090   0.42772   0.20543   0.00000  Uiso   1.00
H139   H     0.07228   0.38090   0.79457   0.00000  Uiso   1.00
H140   H     0.42733   0.11948   0.20486   0.00000  Uiso   1.00
H141   H     0.38052   0.42734   0.79514   0.00000  Uiso   1.00
H142   H     0.11910   0.07228   0.20543   0.00000  Uiso   1.00
H143   H     0.42772   0.11910   0.79457   0.00000  Uiso   1.00
H144   H     0.07267   0.38052   0.20486   0.00000  Uiso   1.00
H145   H     0.36914   0.17768   0.70537   0.00000  Uiso   1.00
H146   H     0.13056   0.32263   0.29507   0.00000  Uiso   1.00
H147   H     0.32264   0.36945   0.70492   0.00000  Uiso   1.00
H148   H     0.38090   0.07228   0.79457   0.00000  Uiso   1.00
H149   H     0.17769   0.13087   0.29462   0.00000  Uiso   1.00
H150   H     0.13086   0.32232   0.70537   0.00000  Uiso   1.00
H151   H     0.36944   0.17737   0.29507   0.00000  Uiso   1.00
H152   H     0.17736   0.13055   0.70491   0.00000  Uiso   1.00
H153   H     0.32231   0.36912   0.29462   0.00000  Uiso   1.00
H154   H     0.36914   0.32232   0.29463   0.00000  Uiso   1.00
H155   H     0.13056   0.17737   0.70493   0.00000  Uiso   1.00
H156   H     0.32264   0.13055   0.29509   0.00000  Uiso   1.00
H157   H     0.17769   0.36913   0.70538   0.00000  Uiso   1.00
H158   H     0.13086   0.17768   0.29463   0.00000  Uiso   1.00
H159   H     0.07228   0.11910   0.20543   0.00000  Uiso   1.00
H160   H     0.36944   0.32263   0.70493   0.00000  Uiso   1.00
H161   H     0.17736   0.36945   0.29509   0.00000  Uiso   1.00
H162   H     0.32231   0.13087   0.70538   0.00000  Uiso   1.00
H163   H     0.19569   0.43441   0.09313   0.00000  Uiso   1.00
H164   H     0.16914   0.47214   0.09375   0.00000  Uiso   1.00
H165   H     0.30425   0.43435   0.90687   0.00000  Uiso   1.00
H166   H     0.33083   0.47206   0.90624   0.00000  Uiso   1.00
H167   H     0.43458   0.19546   0.09312   0.00000  Uiso   1.00
H168   H     0.47240   0.16905   0.09376   0.00000  Uiso   1.00
H169   H     0.43449   0.30441   0.90687   0.00000  Uiso   1.00
H170   H     0.42733   0.38052   0.79514   0.00000  Uiso   1.00
H171   H     0.47226   0.33090   0.90624   0.00000  Uiso   1.00
H172   H     0.33087   0.02782   0.09376   0.00000  Uiso   1.00
H173   H     0.30435   0.06557   0.09311   0.00000  Uiso   1.00
H174   H     0.16917   0.02793   0.90625   0.00000  Uiso   1.00
H175   H     0.19576   0.06564   0.90687   0.00000  Uiso   1.00
H176   H     0.02757   0.33095   0.09374   0.00000  Uiso   1.00
H177   H     0.06540   0.30454   0.09310   0.00000  Uiso   1.00
H178   H     0.02765   0.16909   0.90621   0.00000  Uiso   1.00
H179   H     0.06547   0.19551   0.90692   0.00000  Uiso   1.00
H180   H     0.41925   0.22178   0.59375   0.00000  Uiso   1.00
H181   H     0.38052   0.07266   0.20486   0.00000  Uiso   1.00
H182   H     0.44599   0.18418   0.59318   0.00000  Uiso   1.00
H183   H     0.08095   0.22237   0.40626   0.00000  Uiso   1.00
H184   H     0.05450   0.18456   0.40688   0.00000  Uiso   1.00
H185   H     0.31553   0.44564   0.59309   0.00000  Uiso   1.00
H186   H     0.27778   0.41912   0.59374   0.00000  Uiso   1.00
H187   H     0.31571   0.05415   0.40690   0.00000  Uiso   1.00
H188   H     0.27804   0.08079   0.40624   0.00000  Uiso   1.00
H189   H     0.05407   0.31579   0.59313   0.00000  Uiso   1.00
H190   H     0.08076   0.27815   0.59378   0.00000  Uiso   1.00
H191   H     0.44546   0.31540   0.40690   0.00000  Uiso   1.00
H192   H     0.11910   0.42771   0.79457   0.00000  Uiso   1.00
H193   H     0.41904   0.27757   0.40627   0.00000  Uiso   1.00
H194   H     0.22215   0.08088   0.59375   0.00000  Uiso   1.00
H195   H     0.18442   0.05433   0.59315   0.00000  Uiso   1.00
H196   H     0.22182   0.41922   0.40627   0.00000  Uiso   1.00
H197   H     0.18421   0.44595   0.40680   0.00000  Uiso   1.00
H198   H     0.42772   0.38090   0.20543   0.00000  Uiso   1.00
H199   H     0.07267   0.11948   0.79514   0.00000  Uiso   1.00
H200   H     0.11948   0.07266   0.79514   0.00000  Uiso   1.00
N201   N     0.19450   0.46166   0.10195   0.00000  Uiso   1.00
N202   N     0.05562   0.21181   0.39806   0.00000  Uiso   1.00
N203   N     0.28829   0.44447   0.60193   0.00000  Uiso   1.00
N204   N     0.28847   0.05540   0.39806   0.00000  Uiso   1.00
N205   N     0.05536   0.28855   0.60196   0.00000  Uiso   1.00
N206   N     0.44437   0.28816   0.39808   0.00000  Uiso   1.00
N207   N     0.21166   0.05552   0.60196   0.00000  Uiso   1.00
N208   N     0.21146   0.44462   0.39803   0.00000  Uiso   1.00
N209   N     0.30547   0.46160   0.89804   0.00000  Uiso   1.00
N210   N     0.46182   0.19437   0.10195   0.00000  Uiso   1.00
N211   N     0.46173   0.30556   0.89805   0.00000  Uiso   1.00
N212   N     0.30552   0.03833   0.10195   0.00000  Uiso   1.00
N213   N     0.19454   0.03840   0.89805   0.00000  Uiso   1.00
N214   N     0.03815   0.30563   0.10194   0.00000  Uiso   1.00
N215   N     0.03823   0.19442   0.89806   0.00000  Uiso   1.00
N216   N     0.44466   0.21143   0.60197   0.00000  Uiso   1.00
O217   O     0.25000  -0.00000   0.25000   0.00000  Uiso   1.00
O218   O     0.25000   0.46964   0.66317   0.00000  Uiso   1.00
O219   O     0.46964   0.25000   0.33683   0.00000  Uiso   1.00
O220   O     0.03036   0.25000   0.66317   0.00000  Uiso   1.00
O221   O     0.00000   0.21964   0.83683   0.00000  Uiso   1.00
O222   O     0.00000   0.28036   0.16317   0.00000  Uiso   1.00
O223   O     0.28036  -0.00000   0.83683   0.00000  Uiso   1.00
O224   O     0.21964  -0.00000   0.16317   0.00000  Uiso   1.00
O225   O     0.00000   0.28036   0.83683   0.00000  Uiso   1.00
O226   O     0.00000   0.21964   0.16317   0.00000  Uiso   1.00
O227   O     0.21964  -0.00000   0.83683   0.00000  Uiso   1.00
O228   O     0.25000  -0.00000   0.75000   0.00000  Uiso   1.00
O229   O     0.28036  -0.00000   0.16317   0.00000  Uiso   1.00
O230   O     0.20726   0.07307   0.27282   0.00000  Uiso   1.00
O231   O     0.29275   0.42693   0.72718   0.00000  Uiso   1.00
O232   O     0.42693   0.20725   0.27282   0.00000  Uiso   1.00
O233   O     0.07307   0.29274   0.72718   0.00000  Uiso   1.00
O234   O     0.29275   0.42693   0.27282   0.00000  Uiso   1.00
O235   O     0.20726   0.07307   0.72718   0.00000  Uiso   1.00
O236   O     0.07307   0.29274   0.27282   0.00000  Uiso   1.00
O237   O     0.42693   0.20725   0.72718   0.00000  Uiso   1.00
O238   O     0.20726   0.42693   0.72718   0.00000  Uiso   1.00
O239   O     0.00000   0.25000   0.25000   0.00000  Uiso   1.00
O240   O     0.29275   0.07307   0.27282   0.00000  Uiso   1.00
O241   O     0.42693   0.29274   0.72718   0.00000  Uiso   1.00
O242   O     0.07307   0.20725   0.27282   0.00000  Uiso   1.00
O243   O     0.29275   0.07307   0.72718   0.00000  Uiso   1.00
O244   O     0.20726   0.42693   0.27282   0.00000  Uiso   1.00
O245   O     0.07307   0.20725   0.72718   0.00000  Uiso   1.00
O246   O     0.42693   0.29274   0.27282   0.00000  Uiso   1.00
O247   O     0.45726   0.32307   0.77282   0.00000  Uiso   1.00
O248   O     0.04275   0.17693   0.22718   0.00000  Uiso   1.00
O249   O     0.17693   0.45725   0.77282   0.00000  Uiso   1.00
O250   O     0.00000   0.25000   0.75000   0.00000  Uiso   1.00
O251   O     0.32307   0.04274   0.22718   0.00000  Uiso   1.00
O252   O     0.04275   0.17693   0.77282   0.00000  Uiso   1.00
O253   O     0.45726   0.32307   0.22718   0.00000  Uiso   1.00
O254   O     0.32307   0.04274   0.77282   0.00000  Uiso   1.00
O255   O     0.17693   0.45725   0.22718   0.00000  Uiso   1.00
O256   O     0.45726   0.17693   0.22718   0.00000  Uiso   1.00
O257   O     0.04275   0.32307   0.77282   0.00000  Uiso   1.00
O258   O     0.17693   0.04274   0.22718   0.00000  Uiso   1.00
O259   O     0.32307   0.45725   0.77282   0.00000  Uiso   1.00
O260   O     0.04275   0.32307   0.22718   0.00000  Uiso   1.00
O261   O     0.25000   0.46964   0.33683   0.00000  Uiso   1.00
O262   O     0.45726   0.17693   0.77282   0.00000  Uiso   1.00
O263   O     0.32307   0.45725   0.22718   0.00000  Uiso   1.00
O264   O     0.17693   0.04274   0.77282   0.00000  Uiso   1.00
O265   O     0.25000   0.03036   0.66317   0.00000  Uiso   1.00
O266   O     0.03036   0.25000   0.33683   0.00000  Uiso   1.00
O267   O     0.46964   0.25000   0.66317   0.00000  Uiso   1.00
O268   O     0.25000   0.03036   0.33683   0.00000  Uiso   1.00
Zn269  Zn    0.20660  -0.00000   0.21760   0.00000  Uiso   1.00
Zn270  Zn    0.04340   0.25000   0.28240   0.00000  Uiso   1.00
Zn271  Zn    0.25000   0.45660   0.71760   0.00000  Uiso   1.00
Zn272  Zn    0.25000   0.04340   0.28240   0.00000  Uiso   1.00
Zn273  Zn    0.04340   0.25000   0.71760   0.00000  Uiso   1.00
Zn274  Zn    0.45660   0.25000   0.28240   0.00000  Uiso   1.00
Zn275  Zn    0.25000   0.04340   0.71760   0.00000  Uiso   1.00
Zn276  Zn    0.25000   0.45660   0.28240   0.00000  Uiso   1.00
Zn277  Zn    0.29340  -0.00000   0.78240   0.00000  Uiso   1.00
Zn278  Zn    0.00000   0.20660   0.21760   0.00000  Uiso   1.00
Zn279  Zn    0.00000   0.29340   0.78240   0.00000  Uiso   1.00
Zn280  Zn    0.29340  -0.00000   0.21760   0.00000  Uiso   1.00
Zn281  Zn    0.20660  -0.00000   0.78240   0.00000  Uiso   1.00
Zn282  Zn    0.00000   0.29340   0.21760   0.00000  Uiso   1.00
Zn283  Zn    0.00000   0.20660   0.78240   0.00000  Uiso   1.00
Zn284  Zn    0.45660   0.25000   0.71760   0.00000  Uiso   1.00
C285   C     0.72240   0.48176   0.04126   0.00000  Uiso   1.00
C286   C     0.52767   0.23184   0.45874   0.00000  Uiso   1.00
C287   C     0.84813   0.40185   0.75002   0.00000  Uiso   1.00
C288   C     0.90185   0.15187   0.24998   0.00000  Uiso   1.00
C289   C     0.59812   0.34815   0.74998   0.00000  Uiso   1.00
C290   C     0.84815   0.40187   0.25002   0.00000  Uiso   1.00
C291   C     0.65187   0.09815   0.75002   0.00000  Uiso   1.00
C292   C     0.59815   0.15187   0.75002   0.00000  Uiso   1.00
C293   C     0.90188   0.34815   0.25002   0.00000  Uiso   1.00
C294   C     0.65185   0.40187   0.74998   0.00000  Uiso   1.00
C295   C     0.84813   0.09815   0.24998   0.00000  Uiso   1.00
C296   C     0.90185   0.34812   0.75002   0.00000  Uiso   1.00
C297   C     0.76817   0.47238   0.54125   0.00000  Uiso   1.00
C298   C     0.59812   0.15185   0.25002   0.00000  Uiso   1.00
C299   C     0.84815   0.09813   0.74998   0.00000  Uiso   1.00
C300   C     0.65187   0.40185   0.24998   0.00000  Uiso   1.00
C301   C     0.75000  -0.00000   0.10223   0.00000  Uiso   1.00
C302   C     0.75000  -0.00000   0.89777   0.00000  Uiso   1.00
C303   C     0.99999   0.25000   0.10223   0.00000  Uiso   1.00
C304   C     0.50000   0.25000   0.89777   0.00000  Uiso   1.00
C305   C     0.50000   0.25000   0.60223   0.00000  Uiso   1.00
C306   C     0.50000   0.24999   0.39778   0.00000  Uiso   1.00
C307   C     0.74998   0.00000   0.60222   0.00000  Uiso   1.00
C308   C     0.76827   0.02757   0.45874   0.00000  Uiso   1.00
C309   C     0.74999  -0.00000   0.39777   0.00000  Uiso   1.00
C310   C     0.52754   0.26833   0.54127   0.00000  Uiso   1.00
C311   C     0.97234   0.26813   0.45875   0.00000  Uiso   1.00
C312   C     0.73174   0.02762   0.54127   0.00000  Uiso   1.00
C313   C     0.73164   0.47245   0.45873   0.00000  Uiso   1.00
C314   C     0.72226   0.48152   0.08172   0.00000  Uiso   1.00
C315   C     0.77772   0.48148   0.91827   0.00000  Uiso   1.00
C316   C     0.98160   0.22220   0.08173   0.00000  Uiso   1.00
C317   C     0.77759   0.48173   0.95873   0.00000  Uiso   1.00
C318   C     0.98155   0.27776   0.91827   0.00000  Uiso   1.00
C319   C     0.77774   0.01847   0.08172   0.00000  Uiso   1.00
C320   C     0.72228   0.01850   0.91828   0.00000  Uiso   1.00
C321   C     0.51838   0.27780   0.08172   0.00000  Uiso   1.00
C322   C     0.51843   0.22223   0.91828   0.00000  Uiso   1.00
C323   C     0.97234   0.23140   0.58174   0.00000  Uiso   1.00
C324   C     0.52780   0.23159   0.41828   0.00000  Uiso   1.00
C325   C     0.76844   0.47225   0.58171   0.00000  Uiso   1.00
C326   C     0.76853   0.02769   0.41828   0.00000  Uiso   1.00
C327   C     0.52767   0.26858   0.58173   0.00000  Uiso   1.00
C328   C     0.98184   0.22233   0.04127   0.00000  Uiso   1.00
C329   C     0.97220   0.26838   0.41829   0.00000  Uiso   1.00
C330   C     0.73151   0.02775   0.58173   0.00000  Uiso   1.00
C331   C     0.73142   0.47232   0.41827   0.00000  Uiso   1.00
C332   C     0.75001   0.49999   0.02115   0.00000  Uiso   1.00
C333   C     0.75000   0.49999   0.97885   0.00000  Uiso   1.00
C334   C     0.99998   0.25000   0.02115   0.00000  Uiso   1.00
C335   C     0.99998   0.24999   0.97885   0.00000  Uiso   1.00
C336   C     0.50001   0.24998   0.52116   0.00000  Uiso   1.00
C337   C     0.50000   0.24998   0.47886   0.00000  Uiso   1.00
C338   C     0.74995  -0.00000   0.52115   0.00000  Uiso   1.00
C339   C     0.98179   0.27763   0.95873   0.00000  Uiso   1.00
C340   C     0.74995   0.00001   0.47885   0.00000  Uiso   1.00
C341   C     0.75000  -0.00000   0.35523   0.00000  Uiso   1.00
C342   C     0.75000   0.00000   0.64476   0.00000  Uiso   1.00
C343   C     0.50000   0.25000   0.35524   0.00000  Uiso   1.00
C344   C     0.50000   0.25000   0.64477   0.00000  Uiso   1.00
C345   C     0.50000   0.25000   0.85523   0.00000  Uiso   1.00
C346   C     0.50000   0.25000   0.14477   0.00000  Uiso   1.00
C347   C     0.75000  -0.00000   0.85523   0.00000  Uiso   1.00
C348   C     0.75000   0.00000   0.14477   0.00000  Uiso   1.00
C349   C     0.67992   0.07007   0.25000   0.00000  Uiso   1.00
C350   C     0.77762   0.01822   0.04126   0.00000  Uiso   1.00
C351   C     0.82007   0.42992   0.75000   0.00000  Uiso   1.00
C352   C     0.92992   0.17993   0.24999   0.00000  Uiso   1.00
C353   C     0.57007   0.32008   0.74999   0.00000  Uiso   1.00
C354   C     0.82008   0.42993   0.25000   0.00000  Uiso   1.00
C355   C     0.67993   0.07008   0.75000   0.00000  Uiso   1.00
C356   C     0.57008   0.32007   0.24999   0.00000  Uiso   1.00
C357   C     0.92993   0.17992   0.74999   0.00000  Uiso   1.00
C358   C     0.67992   0.42993   0.75000   0.00000  Uiso   1.00
C359   C     0.82007   0.07008   0.25000   0.00000  Uiso   1.00
C360   C     0.92992   0.32007   0.75001   0.00000  Uiso   1.00
C361   C     0.72242   0.01825   0.95874   0.00000  Uiso   1.00
C362   C     0.57007   0.17992   0.25001   0.00000  Uiso   1.00
C363   C     0.82008   0.07007   0.75000   0.00000  Uiso   1.00
C364   C     0.67993   0.42992   0.25000   0.00000  Uiso   1.00
C365   C     0.57008   0.17993   0.75001   0.00000  Uiso   1.00
C366   C     0.92993   0.32008   0.25001   0.00000  Uiso   1.00
C367   C     0.62213   0.40460   0.22467   0.00000  Uiso   1.00
C368   C     0.87809   0.09518   0.77500   0.00000  Uiso   1.00
C369   C     0.59518   0.12191   0.22501   0.00000  Uiso   1.00
C370   C     0.90459   0.37787   0.77533   0.00000  Uiso   1.00
C371   C     0.87787   0.09540   0.22467   0.00000  Uiso   1.00
C372   C     0.51813   0.27766   0.04126   0.00000  Uiso   1.00
C373   C     0.62191   0.40482   0.77500   0.00000  Uiso   1.00
C374   C     0.90482   0.37809   0.22501   0.00000  Uiso   1.00
C375   C     0.59541   0.12213   0.77533   0.00000  Uiso   1.00
C376   C     0.62213   0.09540   0.77533   0.00000  Uiso   1.00
C377   C     0.87809   0.40482   0.22500   0.00000  Uiso   1.00
C378   C     0.59518   0.37809   0.77499   0.00000  Uiso   1.00
C379   C     0.90459   0.12213   0.22467   0.00000  Uiso   1.00
C380   C     0.87787   0.40460   0.77533   0.00000  Uiso   1.00
C381   C     0.62191   0.09518   0.22500   0.00000  Uiso   1.00
C382   C     0.90482   0.12191   0.77499   0.00000  Uiso   1.00
C383   C     0.51818   0.22236   0.95874   0.00000  Uiso   1.00
C384   C     0.59541   0.37787   0.22467   0.00000  Uiso   1.00
C385   C     0.87194   0.15479   0.72495   0.00000  Uiso   1.00
C386   C     0.62790   0.34537   0.27527   0.00000  Uiso   1.00
C387   C     0.84537   0.37210   0.72472   0.00000  Uiso   1.00
C388   C     0.65479   0.12806   0.27505   0.00000  Uiso   1.00
C389   C     0.62806   0.34521   0.72495   0.00000  Uiso   1.00
C390   C     0.87210   0.15463   0.27527   0.00000  Uiso   1.00
C391   C     0.65463   0.12790   0.72472   0.00000  Uiso   1.00
C392   C     0.84521   0.37193   0.27505   0.00000  Uiso   1.00
C393   C     0.87194   0.34521   0.27505   0.00000  Uiso   1.00
C394   C     0.97247   0.23164   0.54127   0.00000  Uiso   1.00
C395   C     0.62790   0.15463   0.72473   0.00000  Uiso   1.00
C396   C     0.84537   0.12790   0.27528   0.00000  Uiso   1.00
C397   C     0.65479   0.37194   0.72495   0.00000  Uiso   1.00
C398   C     0.62806   0.15479   0.27505   0.00000  Uiso   1.00
C399   C     0.87210   0.34537   0.72473   0.00000  Uiso   1.00
C400   C     0.65463   0.37210   0.27528   0.00000  Uiso   1.00
C401   C     0.84521   0.12806   0.72495   0.00000  Uiso   1.00
C402   C     0.59815   0.34812   0.24998   0.00000  Uiso   1.00
C403   C     0.90188   0.15185   0.74998   0.00000  Uiso   1.00
C404   C     0.65185   0.09813   0.25002   0.00000  Uiso   1.00
F405   F     0.69595   0.46363   0.02154   0.00000  Uiso   1.00
F406   F     0.55416   0.21378   0.47847   0.00000  Uiso   1.00
F407   F     0.78629   0.44593   0.52152   0.00000  Uiso   1.00
F408   F     0.78647   0.05396   0.47847   0.00000  Uiso   1.00
F409   F     0.55391   0.28657   0.52155   0.00000  Uiso   1.00
F410   F     0.94584   0.28618   0.47848   0.00000  Uiso   1.00
F411   F     0.71362   0.05407   0.52155   0.00000  Uiso   1.00
F412   F     0.71342   0.44607   0.47845   0.00000  Uiso   1.00
F413   F     0.80401   0.46356   0.97846   0.00000  Uiso   1.00
F414   F     0.96378   0.19584   0.02155   0.00000  Uiso   1.00
F415   F     0.96368   0.30409   0.97845   0.00000  Uiso   1.00
F416   F     0.80407   0.03634   0.02154   0.00000  Uiso   1.00
F417   F     0.69600   0.03642   0.97847   0.00000  Uiso   1.00
F418   F     0.53619   0.30416   0.02153   0.00000  Uiso   1.00
F419   F     0.53627   0.19589   0.97846   0.00000  Uiso   1.00
F420   F     0.94611   0.21339   0.52155   0.00000  Uiso   1.00
H421   H     0.61948   0.42734   0.20486   0.00000  Uiso   1.00
H422   H     0.88090   0.42772   0.20543   0.00000  Uiso   1.00
H423   H     0.57228   0.38090   0.79457   0.00000  Uiso   1.00
H424   H     0.92733   0.11948   0.20486   0.00000  Uiso   1.00
H425   H     0.88052   0.42734   0.79514   0.00000  Uiso   1.00
H426   H     0.61910   0.07228   0.20543   0.00000  Uiso   1.00
H427   H     0.92772   0.11910   0.79457   0.00000  Uiso   1.00
H428   H     0.57267   0.38052   0.20486   0.00000  Uiso   1.00
H429   H     0.86914   0.17768   0.70537   0.00000  Uiso   1.00
H430   H     0.63056   0.32263   0.29507   0.00000  Uiso   1.00
H431   H     0.82264   0.36945   0.70492   0.00000  Uiso   1.00
H432   H     0.88090   0.07228   0.79457   0.00000  Uiso   1.00
H433   H     0.67769   0.13087   0.29462   0.00000  Uiso   1.00
H434   H     0.63086   0.32232   0.70537   0.00000  Uiso   1.00
H435   H     0.86944   0.17737   0.29507   0.00000  Uiso   1.00
H436   H     0.67736   0.13055   0.70491   0.00000  Uiso   1.00
H437   H     0.82231   0.36912   0.29462   0.00000  Uiso   1.00
H438   H     0.86914   0.32232   0.29463   0.00000  Uiso   1.00
H439   H     0.63056   0.17737   0.70493   0.00000  Uiso   1.00
H440   H     0.82264   0.13055   0.29509   0.00000  Uiso   1.00
H441   H     0.67769   0.36913   0.70538   0.00000  Uiso   1.00
H442   H     0.63086   0.17768   0.29463   0.00000  Uiso   1.00
H443   H     0.57228   0.11910   0.20543   0.00000  Uiso   1.00
H444   H     0.86944   0.32263   0.70493   0.00000  Uiso   1.00
H445   H     0.67736   0.36945   0.29509   0.00000  Uiso   1.00
H446   H     0.82231   0.13087   0.70538   0.00000  Uiso   1.00
H447   H     0.69569   0.43441   0.09313   0.00000  Uiso   1.00
H448   H     0.66914   0.47214   0.09375   0.00000  Uiso   1.00
H449   H     0.80425   0.43435   0.90687   0.00000  Uiso   1.00
H450   H     0.83083   0.47206   0.90624   0.00000  Uiso   1.00
H451   H     0.93458   0.19546   0.09312   0.00000  Uiso   1.00
H452   H     0.97240   0.16905   0.09376   0.00000  Uiso   1.00
H453   H     0.93449   0.30441   0.90687   0.00000  Uiso   1.00
H454   H     0.92733   0.38052   0.79514   0.00000  Uiso   1.00
H455   H     0.97226   0.33090   0.90624   0.00000  Uiso   1.00
H456   H     0.83087   0.02782   0.09376   0.00000  Uiso   1.00
H457   H     0.80435   0.06557   0.09311   0.00000  Uiso   1.00
H458   H     0.66917   0.02793   0.90625   0.00000  Uiso   1.00
H459   H     0.69576   0.06564   0.90687   0.00000  Uiso   1.00
H460   H     0.52757   0.33095   0.09374   0.00000  Uiso   1.00
H461   H     0.56540   0.30454   0.09310   0.00000  Uiso   1.00
H462   H     0.52765   0.16909   0.90621   0.00000  Uiso   1.00
H463   H     0.56547   0.19551   0.90692   0.00000  Uiso   1.00
H464   H     0.91925   0.22178   0.59375   0.00000  Uiso   1.00
H465   H     0.88052   0.07266   0.20486   0.00000  Uiso   1.00
H466   H     0.94599   0.18418   0.59318   0.00000  Uiso   1.00
H467   H     0.58095   0.22237   0.40626   0.00000  Uiso   1.00
H468   H     0.55450   0.18456   0.40688   0.00000  Uiso   1.00
H469   H     0.81553   0.44564   0.59309   0.00000  Uiso   1.00
H470   H     0.77778   0.41912   0.59374   0.00000  Uiso   1.00
H471   H     0.81571   0.05415   0.40690   0.00000  Uiso   1.00
H472   H     0.77804   0.08079   0.40624   0.00000  Uiso   1.00
H473   H     0.55407   0.31579   0.59313   0.00000  Uiso   1.00
H474   H     0.58076   0.27815   0.59378   0.00000  Uiso   1.00
H475   H     0.94546   0.31540   0.40690   0.00000  Uiso   1.00
H476   H     0.61910   0.42771   0.79457   0.00000  Uiso   1.00
H477   H     0.91904   0.27757   0.40627   0.00000  Uiso   1.00
H478   H     0.72215   0.08088   0.59375   0.00000  Uiso   1.00
H479   H     0.68442   0.05433   0.59315   0.00000  Uiso   1.00
H480   H     0.72182   0.41922   0.40627   0.00000  Uiso   1.00
H481   H     0.68421   0.44595   0.40680   0.00000  Uiso   1.00
H482   H     0.92772   0.38090   0.20543   0.00000  Uiso   1.00
H483   H     0.57267   0.11948   0.79514   0.00000  Uiso   1.00
H484   H     0.61948   0.07266   0.79514   0.00000  Uiso   1.00
N485   N     0.69450   0.46166   0.10195   0.00000  Uiso   1.00
N486   N     0.55562   0.21181   0.39806   0.00000  Uiso   1.00
N487   N     0.78829   0.44447   0.60193   0.00000  Uiso   1.00
N488   N     0.78847   0.05540   0.39806   0.00000  Uiso   1.00
N489   N     0.55536   0.28855   0.60196   0.00000  Uiso   1.00
N490   N     0.94437   0.28816   0.39808   0.00000  Uiso   1.00
N491   N     0.71166   0.05552   0.60196   0.00000  Uiso   1.00
N492   N     0.71146   0.44462   0.39803   0.00000  Uiso   1.00
N493   N     0.80547   0.46160   0.89804   0.00000  Uiso   1.00
N494   N     0.96182   0.19437   0.10195   0.00000  Uiso   1.00
N495   N     0.96173   0.30556   0.89805   0.00000  Uiso   1.00
N496   N     0.80552   0.03833   0.10195   0.00000  Uiso   1.00
N497   N     0.69454   0.03840   0.89805   0.00000  Uiso   1.00
N498   N     0.53815   0.30563   0.10194   0.00000  Uiso   1.00
N499   N     0.53823   0.19442   0.89806   0.00000  Uiso   1.00
N500   N     0.94466   0.21143   0.60197   0.00000  Uiso   1.00
O501   O     0.75000  -0.00000   0.25000   0.00000  Uiso   1.00
O502   O     0.75000   0.46964   0.66317   0.00000  Uiso   1.00
O503   O     0.96964   0.25000   0.33683   0.00000  Uiso   1.00
O504   O     0.53036   0.25000   0.66317   0.00000  Uiso   1.00
O505   O     0.50000   0.21964   0.83683   0.00000  Uiso   1.00
O506   O     0.50000   0.28036   0.16317   0.00000  Uiso   1.00
O507   O     0.78036  -0.00000   0.83683   0.00000  Uiso   1.00
O508   O     0.71964  -0.00000   0.16317   0.00000  Uiso   1.00
O509   O     0.50000   0.28036   0.83683   0.00000  Uiso   1.00
O510   O     0.50000   0.21964   0.16317   0.00000  Uiso   1.00
O511   O     0.71964  -0.00000   0.83683   0.00000  Uiso   1.00
O512   O     0.75000  -0.00000   0.75000   0.00000  Uiso   1.00
O513   O     0.78036  -0.00000   0.16317   0.00000  Uiso   1.00
O514   O     0.70726   0.07307   0.27282   0.00000  Uiso   1.00
O515   O     0.79275   0.42693   0.72718   0.00000  Uiso   1.00
O516   O     0.92693   0.20725   0.27282   0.00000  Uiso   1.00
O517   O     0.57307   0.29274   0.72718   0.00000  Uiso   1.00
O518   O     0.79275   0.42693   0.27282   0.00000  Uiso   1.00
O519   O     0.70726   0.07307   0.72718   0.00000  Uiso   1.00
O520   O     0.57307   0.29274   0.27282   0.00000  Uiso   1.00
O521   O     0.92693   0.20725   0.72718   0.00000  Uiso   1.00
O522   O     0.70726   0.42693   0.72718   0.00000  Uiso   1.00
O523   O     0.50000   0.25000   0.25000   0.00000  Uiso   1.00
O524   O     0.79275   0.07307   0.27282   0.00000  Uiso   1.00
O525   O     0.92693   0.29274   0.72718   0.00000  Uiso   1.00
O526   O     0.57307   0.20725   0.27282   0.00000  Uiso   1.00
O527   O     0.79275   0.07307   0.72718   0.00000  Uiso   1.00
O528   O     0.70726   0.42693   0.27282   0.00000  Uiso   1.00
O529   O     0.57307   0.20725   0.72718   0.00000  Uiso   1.00
O530   O     0.92693   0.29274   0.27282   0.00000  Uiso   1.00
O531   O     0.95726   0.32307   0.77282   0.00000  Uiso   1.00
O532   O     0.54275   0.17693   0.22718   0.00000  Uiso   1.00
O533   O     0.67693   0.45725   0.77282   0.00000  Uiso   1.00
O534   O     0.50000   0.25000   0.75000   0.00000  Uiso   1.00
O535   O     0.82307   0.04274   0.22718   0.00000  Uiso   1.00
O536   O     0.54275   0.17693   0.77282   0.00000  Uiso   1.00
O537   O     0.95726   0.32307   0.22718   0.00000  Uiso   1.00
O538   O     0.82307   0.04274   0.77282   0.00000  Uiso   1.00
O539   O     0.67693   0.45725   0.22718   0.00000  Uiso   1.00
O540   O     0.95726   0.17693   0.22718   0.00000  Uiso   1.00
O541   O     0.54275   0.32307   0.77282   0.00000  Uiso   1.00
O542   O     0.67693   0.04274   0.22718   0.00000  Uiso   1.00
O543   O     0.82307   0.45725   0.77282   0.00000  Uiso   1.00
O544   O     0.54275   0.32307   0.22718   0.00000  Uiso   1.00
O545   O     0.75000   0.46964   0.33683   0.00000  Uiso   1.00
O546   O     0.95726   0.17693   0.77282   0.00000  Uiso   1.00
O547   O     0.82307   0.45725   0.22718   0.00000  Uiso   1.00
O548   O     0.67693   0.04274   0.77282   0.00000  Uiso   1.00
O549   O     0.75000   0.03036   0.66317   0.00000  Uiso   1.00
O550   O     0.53036   0.25000   0.33683   0.00000  Uiso   1.00
O551   O     0.96964   0.25000   0.66317   0.00000  Uiso   1.00
O552   O     0.75000   0.03036   0.33683   0.00000  Uiso   1.00
Zn553  Zn    0.70660  -0.00000   0.21760   0.00000  Uiso   1.00
Zn554  Zn    0.54340   0.25000   0.28240   0.00000  Uiso   1.00
Zn555  Zn    0.75000   0.45660   0.71760   0.00000  Uiso   1.00
Zn556  Zn    0.75000   0.04340   0.28240   0.00000  Uiso   1.00
Zn557  Zn    0.54340   0.25000   0.71760   0.00000  Uiso   1.00
Zn558  Zn    0.95660   0.25000   0.28240   0.00000  Uiso   1.00
Zn559  Zn    0.75000   0.04340   0.71760   0.00000  Uiso   1.00
Zn560  Zn    0.75000   0.45660   0.28240   0.00000  Uiso   1.00
Zn561  Zn    0.79340  -0.00000   0.78240   0.00000  Uiso   1.00
Zn562  Zn    0.50000   0.20660   0.21760   0.00000  Uiso   1.00
Zn563  Zn    0.50000   0.29340   0.78240   0.00000  Uiso   1.00
Zn564  Zn    0.79340  -0.00000   0.21760   0.00000  Uiso   1.00
Zn565  Zn    0.70660  -0.00000   0.78240   0.00000  Uiso   1.00
Zn566  Zn    0.50000   0.29340   0.21760   0.00000  Uiso   1.00
Zn567  Zn    0.50000   0.20660   0.78240   0.00000  Uiso   1.00
Zn568  Zn    0.95660   0.25000   0.71760   0.00000  Uiso   1.00
C569   C     0.22240   0.98176   0.04126   0.00000  Uiso   1.00
C570   C     0.02767   0.73184   0.45874   0.00000  Uiso   1.00
C571   C     0.34813   0.90185   0.75002   0.00000  Uiso   1.00
C572   C     0.40185   0.65187   0.24998   0.00000  Uiso   1.00
C573   C     0.09812   0.84815   0.74998   0.00000  Uiso   1.00
C574   C     0.34815   0.90187   0.25002   0.00000  Uiso   1.00
C575   C     0.15187   0.59815   0.75002   0.00000  Uiso   1.00
C576   C     0.09815   0.65187   0.75002   0.00000  Uiso   1.00
C577   C     0.40188   0.84815   0.25002   0.00000  Uiso   1.00
C578   C     0.15185   0.90187   0.74998   0.00000  Uiso   1.00
C579   C     0.34813   0.59815   0.24998   0.00000  Uiso   1.00
C580   C     0.40185   0.84812   0.75002   0.00000  Uiso   1.00
C581   C     0.26817   0.97238   0.54125   0.00000  Uiso   1.00
C582   C     0.09812   0.65185   0.25002   0.00000  Uiso   1.00
C583   C     0.34815   0.59813   0.74998   0.00000  Uiso   1.00
C584   C     0.15187   0.90185   0.24998   0.00000  Uiso   1.00
C585   C     0.25000   0.50000   0.10223   0.00000  Uiso   1.00
C586   C     0.25000   0.50000   0.89777   0.00000  Uiso   1.00
C587   C     0.49999   0.75000   0.10223   0.00000  Uiso   1.00
C588   C    -0.00000   0.75000   0.89777   0.00000  Uiso   1.00
C589   C     0.00000   0.75000   0.60223   0.00000  Uiso   1.00
C590   C     0.00000   0.74999   0.39778   0.00000  Uiso   1.00
C591   C     0.24998   0.50000   0.60222   0.00000  Uiso   1.00
C592   C     0.26827   0.52757   0.45874   0.00000  Uiso   1.00
C593   C     0.24999   0.50000   0.39777   0.00000  Uiso   1.00
C594   C     0.02754   0.76833   0.54127   0.00000  Uiso   1.00
C595   C     0.47234   0.76813   0.45875   0.00000  Uiso   1.00
C596   C     0.23174   0.52762   0.54127   0.00000  Uiso   1.00
C597   C     0.23164   0.97245   0.45873   0.00000  Uiso   1.00
C598   C     0.22226   0.98152   0.08172   0.00000  Uiso   1.00
C599   C     0.27772   0.98148   0.91827   0.00000  Uiso   1.00
C600   C     0.48160   0.72220   0.08173   0.00000  Uiso   1.00
C601   C     0.27759   0.98173   0.95873   0.00000  Uiso   1.00
C602   C     0.48155   0.77776   0.91827   0.00000  Uiso   1.00
C603   C     0.27774   0.51847   0.08172   0.00000  Uiso   1.00
C604   C     0.22228   0.51850   0.91828   0.00000  Uiso   1.00
C605   C     0.01838   0.77780   0.08172   0.00000  Uiso   1.00
C606   C     0.01843   0.72223   0.91828   0.00000  Uiso   1.00
C607   C     0.47234   0.73140   0.58174   0.00000  Uiso   1.00
C608   C     0.02780   0.73159   0.41828   0.00000  Uiso   1.00
C609   C     0.26844   0.97225   0.58171   0.00000  Uiso   1.00
C610   C     0.26853   0.52769   0.41828   0.00000  Uiso   1.00
C611   C     0.02767   0.76858   0.58173   0.00000  Uiso   1.00
C612   C     0.48184   0.72233   0.04127   0.00000  Uiso   1.00
C613   C     0.47220   0.76838   0.41829   0.00000  Uiso   1.00
C614   C     0.23151   0.52775   0.58173   0.00000  Uiso   1.00
C615   C     0.23142   0.97232   0.41827   0.00000  Uiso   1.00
C616   C     0.25001   0.99999   0.02115   0.00000  Uiso   1.00
C617   C     0.25000   0.99999   0.97885   0.00000  Uiso   1.00
C618   C     0.49998   0.75000   0.02115   0.00000  Uiso   1.00
C619   C     0.49998   0.74999   0.97885   0.00000  Uiso   1.00
C620   C     0.00001   0.74998   0.52116   0.00000  Uiso   1.00
C621   C     0.00000   0.74998   0.47886   0.00000  Uiso   1.00
C622   C     0.24995   0.50000   0.52115   0.00000  Uiso   1.00
C623   C     0.48179   0.77763   0.95873   0.00000  Uiso   1.00
C624   C     0.24995   0.50001   0.47885   0.00000  Uiso   1.00
C625   C     0.25000   0.50000   0.35523   0.00000  Uiso   1.00
C626   C     0.25000   0.50000   0.64476   0.00000  Uiso   1.00
C627   C     0.00000   0.75000   0.35524   0.00000  Uiso   1.00
C628   C     0.00000   0.75000   0.64477   0.00000  Uiso   1.00
C629   C     0.00000   0.75000   0.85523   0.00000  Uiso   1.00
C630   C    -0.00000   0.75000   0.14477   0.00000  Uiso   1.00
C631   C     0.25000   0.50000   0.85523   0.00000  Uiso   1.00
C632   C     0.25000   0.50000   0.14477   0.00000  Uiso   1.00
C633   C     0.17992   0.57007   0.25000   0.00000  Uiso   1.00
C634   C     0.27762   0.51822   0.04126   0.00000  Uiso   1.00
C635   C     0.32007   0.92992   0.75000   0.00000  Uiso   1.00
C636   C     0.42992   0.67993   0.24999   0.00000  Uiso   1.00
C637   C     0.07007   0.82008   0.74999   0.00000  Uiso   1.00
C638   C     0.32008   0.92993   0.25000   0.00000  Uiso   1.00
C639   C     0.17993   0.57008   0.75000   0.00000  Uiso   1.00
C640   C     0.07008   0.82007   0.24999   0.00000  Uiso   1.00
C641   C     0.42993   0.67992   0.74999   0.00000  Uiso   1.00
C642   C     0.17992   0.92993   0.75000   0.00000  Uiso   1.00
C643   C     0.32007   0.57008   0.25000   0.00000  Uiso   1.00
C644   C     0.42992   0.82007   0.75001   0.00000  Uiso   1.00
C645   C     0.22242   0.51825   0.95874   0.00000  Uiso   1.00
C646   C     0.07007   0.67992   0.25001   0.00000  Uiso   1.00
C647   C     0.32008   0.57007   0.75000   0.00000  Uiso   1.00
C648   C     0.17993   0.92992   0.25000   0.00000  Uiso   1.00
C649   C     0.07008   0.67993   0.75001   0.00000  Uiso   1.00
C650   C     0.42993   0.82008   0.25001   0.00000  Uiso   1.00
C651   C     0.12213   0.90460   0.22467   0.00000  Uiso   1.00
C652   C     0.37809   0.59518   0.77500   0.00000  Uiso   1.00
C653   C     0.09518   0.62191   0.22501   0.00000  Uiso   1.00
C654   C     0.40459   0.87787   0.77533   0.00000  Uiso   1.00
C655   C     0.37787   0.59540   0.22467   0.00000  Uiso   1.00
C656   C     0.01813   0.77766   0.04126   0.00000  Uiso   1.00
C657   C     0.12191   0.90482   0.77500   0.00000  Uiso   1.00
C658   C     0.40482   0.87809   0.22501   0.00000  Uiso   1.00
C659   C     0.09541   0.62213   0.77533   0.00000  Uiso   1.00
C660   C     0.12213   0.59540   0.77533   0.00000  Uiso   1.00
C661   C     0.37809   0.90482   0.22500   0.00000  Uiso   1.00
C662   C     0.09518   0.87809   0.77499   0.00000  Uiso   1.00
C663   C     0.40459   0.62213   0.22467   0.00000  Uiso   1.00
C664   C     0.37787   0.90460   0.77533   0.00000  Uiso   1.00
C665   C     0.12191   0.59518   0.22500   0.00000  Uiso   1.00
C666   C     0.40482   0.62191   0.77499   0.00000  Uiso   1.00
C667   C     0.01818   0.72236   0.95874   0.00000  Uiso   1.00
C668   C     0.09541   0.87787   0.22467   0.00000  Uiso   1.00
C669   C     0.37194   0.65479   0.72495   0.00000  Uiso   1.00
C670   C     0.12790   0.84537   0.27527   0.00000  Uiso   1.00
C671   C     0.34537   0.87210   0.72472   0.00000  Uiso   1.00
C672   C     0.15479   0.62806   0.27505   0.00000  Uiso   1.00
C673   C     0.12806   0.84521   0.72495   0.00000  Uiso   1.00
C674   C     0.37210   0.65463   0.27527   0.00000  Uiso   1.00
C675   C     0.15463   0.62790   0.72472   0.00000  Uiso   1.00
C676   C     0.34521   0.87193   0.27505   0.00000  Uiso   1.00
C677   C     0.37194   0.84521   0.27505   0.00000  Uiso   1.00
C678   C     0.47247   0.73164   0.54127   0.00000  Uiso   1.00
C679   C     0.12790   0.65463   0.72473   0.00000  Uiso   1.00
C680   C     0.34537   0.62790   0.27528   0.00000  Uiso   1.00
C681   C     0.15479   0.87194   0.72495   0.00000  Uiso   1.00
C682   C     0.12806   0.65479   0.27505   0.00000  Uiso   1.00
C683   C     0.37210   0.84537   0.72473   0.00000  Uiso   1.00
C684   C     0.15463   0.87210   0.27528   0.00000  Uiso   1.00
C685   C     0.34521   0.62806   0.72495   0.00000  Uiso   1.00
C686   C     0.09815   0.84812   0.24998   0.00000  Uiso   1.00
C687   C     0.40188   0.65185   0.74998   0.00000  Uiso   1.00
C688   C     0.15185   0.59813   0.25002   0.00000  Uiso   1.00
F689   F     0.19595   0.96363   0.02154   0.00000  Uiso   1.00
F690   F     0.05416   0.71378   0.47847   0.00000  Uiso   1.00
F691   F     0.28629   0.94593   0.52152   0.00000  Uiso   1.00
F692   F     0.28647   0.55396   0.47847   0.00000  Uiso   1.00
F693   F     0.05391   0.78657   0.52155   0.00000  Uiso   1.00
F694   F     0.44584   0.78618   0.47848   0.00000  Uiso   1.00
F695   F     0.21362   0.55407   0.52155   0.00000  Uiso   1.00
F696   F     0.21342   0.94607   0.47845   0.00000  Uiso   1.00
F697   F     0.30401   0.96356   0.97846   0.00000  Uiso   1.00
F698   F     0.46378   0.69584   0.02155   0.00000  Uiso   1.00
F699   F     0.46368   0.80409   0.97845   0.00000  Uiso   1.00
F700   F     0.30407   0.53634   0.02154   0.00000  Uiso   1.00
F701   F     0.19600   0.53642   0.97847   0.00000  Uiso   1.00
F702   F     0.03619   0.80416   0.02153   0.00000  Uiso   1.00
F703   F     0.03627   0.69589   0.97846   0.00000  Uiso   1.00
F704   F     0.44611   0.71339   0.52155   0.00000  Uiso   1.00
H705   H     0.11948   0.92734   0.20486   0.00000  Uiso   1.00
H706   H     0.38090   0.92772   0.20543   0.00000  Uiso   1.00
H707   H     0.07228   0.88090   0.79457   0.00000  Uiso   1.00
H708   H     0.42733   0.61948   0.20486   0.00000  Uiso   1.00
H709   H     0.38052   0.92734   0.79514   0.00000  Uiso   1.00
H710   H     0.11910   0.57228   0.20543   0.00000  Uiso   1.00
H711   H     0.42772   0.61910   0.79457   0.00000  Uiso   1.00
H712   H     0.07267   0.88052   0.20486   0.00000  Uiso   1.00
H713   H     0.36914   0.67768   0.70537   0.00000  Uiso   1.00
H714   H     0.13056   0.82263   0.29507   0.00000  Uiso   1.00
H715   H     0.32264   0.86945   0.70492   0.00000  Uiso   1.00
H716   H     0.38090   0.57228   0.79457   0.00000  Uiso   1.00
H717   H     0.17769   0.63087   0.29462   0.00000  Uiso   1.00
H718   H     0.13086   0.82232   0.70537   0.00000  Uiso   1.00
H719   H     0.36944   0.67737   0.29507   0.00000  Uiso   1.00
H720   H     0.17736   0.63055   0.70491   0.00000  Uiso   1.00
H721   H     0.32231   0.86912   0.29462   0.00000  Uiso   1.00
H722   H     0.36914   0.82232   0.29463   0.00000  Uiso   1.00
H723   H     0.13056   0.67737   0.70493   0.00000  Uiso   1.00
H724   H     0.32264   0.63055   0.29509   0.00000  Uiso   1.00
H725   H     0.17769   0.86913   0.70538   0.00000  Uiso   1.00
H726   H     0.13086   0.67768   0.29463   0.00000  Uiso   1.00
H727   H     0.07228   0.61910   0.20543   0.00000  Uiso   1.00
H728   H     0.36944   0.82263   0.70493   0.00000  Uiso   1.00
H729   H     0.17736   0.86945   0.29509   0.00000  Uiso   1.00
H730   H     0.32231   0.63087   0.70538   0.00000  Uiso   1.00
H731   H     0.19569   0.93441   0.09313   0.00000  Uiso   1.00
H732   H     0.16914   0.97214   0.09375   0.00000  Uiso   1.00
H733   H     0.30425   0.93435   0.90687   0.00000  Uiso   1.00
H734   H     0.33083   0.97206   0.90624   0.00000  Uiso   1.00
H735   H     0.43458   0.69546   0.09312   0.00000  Uiso   1.00
H736   H     0.47240   0.66905   0.09376   0.00000  Uiso   1.00
H737   H     0.43449   0.80441   0.90687   0.00000  Uiso   1.00
H738   H     0.42733   0.88052   0.79514   0.00000  Uiso   1.00
H739   H     0.47226   0.83090   0.90624   0.00000  Uiso   1.00
H740   H     0.33087   0.52782   0.09376   0.00000  Uiso   1.00
H741   H     0.30435   0.56557   0.09311   0.00000  Uiso   1.00
H742   H     0.16917   0.52793   0.90625   0.00000  Uiso   1.00
H743   H     0.19576   0.56564   0.90687   0.00000  Uiso   1.00
H744   H     0.02757   0.83095   0.09374   0.00000  Uiso   1.00
H745   H     0.06540   0.80454   0.09310   0.00000  Uiso   1.00
H746   H     0.02765   0.66909   0.90621   0.00000  Uiso   1.00
H747   H     0.06547   0.69551   0.90692   0.00000  Uiso   1.00
H748   H     0.41925   0.72178   0.59375   0.00000  Uiso   1.00
H749   H     0.38052   0.57266   0.20486   0.00000  Uiso   1.00
H750   H     0.44599   0.68418   0.59318   0.00000  Uiso   1.00
H751   H     0.08095   0.72237   0.40626   0.00000  Uiso   1.00
H752   H     0.05450   0.68456   0.40688   0.00000  Uiso   1.00
H753   H     0.31553   0.94564   0.59309   0.00000  Uiso   1.00
H754   H     0.27778   0.91912   0.59374   0.00000  Uiso   1.00
H755   H     0.31571   0.55415   0.40690   0.00000  Uiso   1.00
H756   H     0.27804   0.58079   0.40624   0.00000  Uiso   1.00
H757   H     0.05407   0.81579   0.59313   0.00000  Uiso   1.00
H758   H     0.08076   0.77815   0.59378   0.00000  Uiso   1.00
H759   H     0.44546   0.81540   0.40690   0.00000  Uiso   1.00
H760   H     0.11910   0.92771   0.79457   0.00000  Uiso   1.00
H761   H     0.41904   0.77757   0.40627   0.00000  Uiso   1.00
H762   H     0.22215   0.58088   0.59375   0.00000  Uiso   1.00
H763   H     0.18442   0.55433   0.59315   0.00000  Uiso   1.00
H764   H     0.22182   0.91922   0.40627   0.00000  Uiso   1.00
H765   H     0.18421   0.94595   0.40680   0.00000  Uiso   1.00
H766   H     0.42772   0.88090   0.20543   0.00000  Uiso   1.00
H767   H     0.07267   0.61948   0.79514   0.00000  Uiso   1.00
H768   H     0.11948   0.57266   0.79514   0.00000  Uiso   1.00
N769   N     0.19450   0.96166   0.10195   0.00000  Uiso   1.00
N770   N     0.05562   0.71181   0.39806   0.00000  Uiso   1.00
N771   N     0.28829   0.94447   0.60193   0.00000  Uiso   1.00
N772   N     0.28847   0.55540   0.39806   0.00000  Uiso   1.00
N773   N     0.05536   0.78855   0.60196   0.00000  Uiso   1.00
N774   N     0.44437   0.78816   0.39808   0.00000  Uiso   1.00
N775   N     0.21166   0.55552   0.60196   0.00000  Uiso   1.00
N776   N     0.21146   0.94462   0.39803   0.00000  Uiso   1.00
N777   N     0.30547   0.96160   0.89804   0.00000  Uiso   1.00
N778   N     0.46182   0.69437   0.10195   0.00000  Uiso   1.00
N779   N     0.46173   0.80556   0.89805   0.00000  Uiso   1.00
N780   N     0.30552   0.53833   0.10195   0.00000  Uiso   1.00
N781   N     0.19454   0.53840   0.89805   0.00000  Uiso   1.00
N782   N     0.03815   0.80563   0.10194   0.00000  Uiso   1.00
N783   N     0.03823   0.69442   0.89806   0.00000  Uiso   1.00
N784   N     0.44466   0.71143   0.60197   0.00000  Uiso   1.00
O785   O     0.25000   0.50000   0.25000   0.00000  Uiso   1.00
O786   O     0.25000   0.96964   0.66317   0.00000  Uiso   1.00
O787   O     0.46964   0.75000   0.33683   0.00000  Uiso   1.00
O788   O     0.03036   0.75000   0.66317   0.00000  Uiso   1.00
O789   O     0.00000   0.71964   0.83683   0.00000  Uiso   1.00
O790   O     0.00000   0.78036   0.16317   0.00000  Uiso   1.00
O791   O     0.28036   0.50000   0.83683   0.00000  Uiso   1.00
O792   O     0.21964   0.50000   0.16317   0.00000  Uiso   1.00
O793   O     0.00000   0.78036   0.83683   0.00000  Uiso   1.00
O794   O     0.00000   0.71964   0.16317   0.00000  Uiso   1.00
O795   O     0.21964   0.50000   0.83683   0.00000  Uiso   1.00
O796   O     0.25000   0.50000   0.75000   0.00000  Uiso   1.00
O797   O     0.28036   0.50000   0.16317   0.00000  Uiso   1.00
O798   O     0.20726   0.57307   0.27282   0.00000  Uiso   1.00
O799   O     0.29275   0.92693   0.72718   0.00000  Uiso   1.00
O800   O     0.42693   0.70725   0.27282   0.00000  Uiso   1.00
O801   O     0.07307   0.79274   0.72718   0.00000  Uiso   1.00
O802   O     0.29275   0.92693   0.27282   0.00000  Uiso   1.00
O803   O     0.20726   0.57307   0.72718   0.00000  Uiso   1.00
O804   O     0.07307   0.79274   0.27282   0.00000  Uiso   1.00
O805   O     0.42693   0.70725   0.72718   0.00000  Uiso   1.00
O806   O     0.20726   0.92693   0.72718   0.00000  Uiso   1.00
O807   O     0.00000   0.75000   0.25000   0.00000  Uiso   1.00
O808   O     0.29275   0.57307   0.27282   0.00000  Uiso   1.00
O809   O     0.42693   0.79274   0.72718   0.00000  Uiso   1.00
O810   O     0.07307   0.70725   0.27282   0.00000  Uiso   1.00
O811   O     0.29275   0.57307   0.72718   0.00000  Uiso   1.00
O812   O     0.20726   0.92693   0.27282   0.00000  Uiso   1.00
O813   O     0.07307   0.70725   0.72718   0.00000  Uiso   1.00
O814   O     0.42693   0.79274   0.27282   0.00000  Uiso   1.00
O815   O     0.45726   0.82307   0.77282   0.00000  Uiso   1.00
O816   O     0.04275   0.67693   0.22718   0.00000  Uiso   1.00
O817   O     0.17693   0.95725   0.77282   0.00000  Uiso   1.00
O818   O     0.00000   0.75000   0.75000   0.00000  Uiso   1.00
O819   O     0.32307   0.54274   0.22718   0.00000  Uiso   1.00
O820   O     0.04275   0.67693   0.77282   0.00000  Uiso   1.00
O821   O     0.45726   0.82307   0.22718   0.00000  Uiso   1.00
O822   O     0.32307   0.54274   0.77282   0.00000  Uiso   1.00
O823   O     0.17693   0.95725   0.22718   0.00000  Uiso   1.00
O824   O     0.45726   0.67693   0.22718   0.00000  Uiso   1.00
O825   O     0.04275   0.82307   0.77282   0.00000  Uiso   1.00
O826   O     0.17693   0.54274   0.22718   0.00000  Uiso   1.00
O827   O     0.32307   0.95725   0.77282   0.00000  Uiso   1.00
O828   O     0.04275   0.82307   0.22718   0.00000  Uiso   1.00
O829   O     0.25000   0.96964   0.33683   0.00000  Uiso   1.00
O830   O     0.45726   0.67693   0.77282   0.00000  Uiso   1.00
O831   O     0.32307   0.95725   0.22718   0.00000  Uiso   1.00
O832   O     0.17693   0.54274   0.77282   0.00000  Uiso   1.00
O833   O     0.25000   0.53036   0.66317   0.00000  Uiso   1.00
O834   O     0.03036   0.75000   0.33683   0.00000  Uiso   1.00
O835   O     0.46964   0.75000   0.66317   0.00000  Uiso   1.00
O836   O     0.25000   0.53036   0.33683   0.00000  Uiso   1.00
Zn837  Zn    0.20660   0.50000   0.21760   0.00000  Uiso   1.00
Zn838  Zn    0.04340   0.75000   0.28240   0.00000  Uiso   1.00
Zn839  Zn    0.25000   0.95660   0.71760   0.00000  Uiso   1.00
Zn840  Zn    0.25000   0.54340   0.28240   0.00000  Uiso   1.00
Zn841  Zn    0.04340   0.75000   0.71760   0.00000  Uiso   1.00
Zn842  Zn    0.45660   0.75000   0.28240   0.00000  Uiso   1.00
Zn843  Zn    0.25000   0.54340   0.71760   0.00000  Uiso   1.00
Zn844  Zn    0.25000   0.95660   0.28240   0.00000  Uiso   1.00
Zn845  Zn    0.29340   0.50000   0.78240   0.00000  Uiso   1.00
Zn846  Zn    0.00000   0.70660   0.21760   0.00000  Uiso   1.00
Zn847  Zn    0.00000   0.79340   0.78240   0.00000  Uiso   1.00
Zn848  Zn    0.29340   0.50000   0.21760   0.00000  Uiso   1.00
Zn849  Zn    0.20660   0.50000   0.78240   0.00000  Uiso   1.00
Zn850  Zn    0.00000   0.79340   0.21760   0.00000  Uiso   1.00
Zn851  Zn    0.00000   0.70660   0.78240   0.00000  Uiso   1.00
Zn852  Zn    0.45660   0.75000   0.71760   0.00000  Uiso   1.00
C853   C     0.72240   0.98176   0.04126   0.00000  Uiso   1.00
C854   C     0.52767   0.73184   0.45874   0.00000  Uiso   1.00
C855   C     0.84813   0.90185   0.75002   0.00000  Uiso   1.00
C856   C     0.90185   0.65187   0.24998   0.00000  Uiso   1.00
C857   C     0.59812   0.84815   0.74998   0.00000  Uiso   1.00
C858   C     0.84815   0.90187   0.25002   0.00000  Uiso   1.00
C859   C     0.65187   0.59815   0.75002   0.00000  Uiso   1.00
C860   C     0.59815   0.65187   0.75002   0.00000  Uiso   1.00
C861   C     0.90188   0.84815   0.25002   0.00000  Uiso   1.00
C862   C     0.65185   0.90187   0.74998   0.00000  Uiso   1.00
C863   C     0.84813   0.59815   0.24998   0.00000  Uiso   1.00
C864   C     0.90185   0.84812   0.75002   0.00000  Uiso   1.00
C865   C     0.76817   0.97238   0.54125   0.00000  Uiso   1.00
C866   C     0.59812   0.65185   0.25002   0.00000  Uiso   1.00
C867   C     0.84815   0.59813   0.74998   0.00000  Uiso   1.00
C868   C     0.65187   0.90185   0.24998   0.00000  Uiso   1.00
C869   C     0.75000   0.50000   0.10223   0.00000  Uiso   1.00
C870   C     0.75000   0.50000   0.89777   0.00000  Uiso   1.00
C871   C     0.99999   0.75000   0.10223   0.00000  Uiso   1.00
C872   C     0.50000   0.75000   0.89777   0.00000  Uiso   1.00
C873   C     0.50000   0.75000   0.60223   0.00000  Uiso   1.00
C874   C     0.50000   0.74999   0.39778   0.00000  Uiso   1.00
C875   C     0.74998   0.50000   0.60222   0.00000  Uiso   1.00
C876   C     0.76827   0.52757   0.45874   0.00000  Uiso   1.00
C877   C     0.74999   0.50000   0.39777   0.00000  Uiso   1.00
C878   C     0.52754   0.76833   0.54127   0.00000  Uiso   1.00
C879   C     0.97234   0.76813   0.45875   0.00000  Uiso   1.00
C880   C     0.73174   0.52762   0.54127   0.00000  Uiso   1.00
C881   C     0.73164   0.97245   0.45873   0.00000  Uiso   1.00
C882   C     0.72226   0.98152   0.08172   0.00000  Uiso   1.00
C883   C     0.77772   0.98148   0.91827   0.00000  Uiso   1.00
C884   C     0.98160   0.72220   0.08173   0.00000  Uiso   1.00
C885   C     0.77759   0.98173   0.95873   0.00000  Uiso   1.00
C886   C     0.98155   0.77776   0.91827   0.00000  Uiso   1.00
C887   C     0.77774   0.51847   0.08172   0.00000  Uiso   1.00
C888   C     0.72228   0.51850   0.91828   0.00000  Uiso   1.00
C889   C     0.51838   0.77780   0.08172   0.00000  Uiso   1.00
C890   C     0.51843   0.72223   0.91828   0.00000  Uiso   1.00
C891   C     0.97234   0.73140   0.58174   0.00000  Uiso   1.00
C892   C     0.52780   0.73159   0.41828   0.00000  Uiso   1.00
C893   C     0.76844   0.97225   0.58171   0.00000  Uiso   1.00
C894   C     0.76853   0.52769   0.41828   0.00000  Uiso   1.00
C895   C     0.52767   0.76858   0.58173   0.00000  Uiso   1.00
C896   C     0.98184   0.72233   0.04127   0.00000  Uiso   1.00
C897   C     0.97220   0.76838   0.41829   0.00000  Uiso   1.00
C898   C     0.73151   0.52775   0.58173   0.00000  Uiso   1.00
C899   C     0.73142   0.97232   0.41827   0.00000  Uiso   1.00
C900   C     0.75001   0.99999   0.02115   0.00000  Uiso   1.00
C901   C     0.75000   0.99999   0.97885   0.00000  Uiso   1.00
C902   C     0.99998   0.75000   0.02115   0.00000  Uiso   1.00
C903   C     0.99998   0.74999   0.97885   0.00000  Uiso   1.00
C904   C     0.50001   0.74998   0.52116   0.00000  Uiso   1.00
C905   C     0.50000   0.74998   0.47886   0.00000  Uiso   1.00
C906   C     0.74995   0.50000   0.52115   0.00000  Uiso   1.00
C907   C     0.98179   0.77763   0.95873   0.00000  Uiso   1.00
C908   C     0.74995   0.50001   0.47885   0.00000  Uiso   1.00
C909   C     0.75000   0.50000   0.35523   0.00000  Uiso   1.00
C910   C     0.75000   0.50000   0.64476   0.00000  Uiso   1.00
C911   C     0.50000   0.75000   0.35524   0.00000  Uiso   1.00
C912   C     0.50000   0.75000   0.64477   0.00000  Uiso   1.00
C913   C     0.50000   0.75000   0.85523   0.00000  Uiso   1.00
C914   C     0.50000   0.75000   0.14477   0.00000  Uiso   1.00
C915   C     0.75000   0.50000   0.85523   0.00000  Uiso   1.00
C916   C     0.75000   0.50000   0.14477   0.00000  Uiso   1.00
C917   C     0.67992   0.57007   0.25000   0.00000  Uiso   1.00
C918   C     0.77762   0.51822   0.04126   0.00000  Uiso   1.00
C919   C     0.82007   0.92992   0.75000   0.00000  Uiso   1.00
C920   C     0.92992   0.67993   0.24999   0.00000  Uiso   1.00
C921   C     0.57007   0.82008   0.74999   0.00000  Uiso   1.00
C922   C     0.82008   0.92993   0.25000   0.00000  Uiso   1.00
C923   C     0.67993   0.57008   0.75000   0.00000  Uiso   1.00
C924   C     0.57008   0.82007   0.24999   0.00000  Uiso   1.00
C925   C     0.92993   0.67992   0.74999   0.00000  Uiso   1.00
C926   C     0.67992   0.92993   0.75000   0.00000  Uiso   1.00
C927   C     0.82007   0.57008   0.25000   0.00000  Uiso   1.00
C928   C     0.92992   0.82007   0.75001   0.00000  Uiso   1.00
C929   C     0.72242   0.51825   0.95874   0.00000  Uiso   1.00
C930   C     0.57007   0.67992   0.25001   0.00000  Uiso   1.00
C931   C     0.82008   0.57007   0.75000   0.00000  Uiso   1.00
C932   C     0.67993   0.92992   0.25000   0.00000  Uiso   1.00
C933   C     0.57008   0.67993   0.75001   0.00000  Uiso   1.00
C934   C     0.92993   0.82008   0.25001   0.00000  Uiso   1.00
C935   C     0.62213   0.90460   0.22467   0.00000  Uiso   1.00
C936   C     0.87809   0.59518   0.77500   0.00000  Uiso   1.00
C937   C     0.59518   0.62191   0.22501   0.00000  Uiso   1.00
C938   C     0.90459   0.87787   0.77533   0.00000  Uiso   1.00
C939   C     0.87787   0.59540   0.22467   0.00000  Uiso   1.00
C940   C     0.51813   0.77766   0.04126   0.00000  Uiso   1.00
C941   C     0.62191   0.90482   0.77500   0.00000  Uiso   1.00
C942   C     0.90482   0.87809   0.22501   0.00000  Uiso   1.00
C943   C     0.59541   0.62213   0.77533   0.00000  Uiso   1.00
C944   C     0.62213   0.59540   0.77533   0.00000  Uiso   1.00
C945   C     0.87809   0.90482   0.22500   0.00000  Uiso   1.00
C946   C     0.59518   0.87809   0.77499   0.00000  Uiso   1.00
C947   C     0.90459   0.62213   0.22467   0.00000  Uiso   1.00
C948   C     0.87787   0.90460   0.77533   0.00000  Uiso   1.00
C949   C     0.62191   0.59518   0.22500   0.00000  Uiso   1.00
C950   C     0.90482   0.62191   0.77499   0.00000  Uiso   1.00
C951   C     0.51818   0.72236   0.95874   0.00000  Uiso   1.00
C952   C     0.59541   0.87787   0.22467   0.00000  Uiso   1.00
C953   C     0.87194   0.65479   0.72495   0.00000  Uiso   1.00
C954   C     0.62790   0.84537   0.27527   0.00000  Uiso   1.00
C955   C     0.84537   0.87210   0.72472   0.00000  Uiso   1.00
C956   C     0.65479   0.62806   0.27505   0.00000  Uiso   1.00
C957   C     0.62806   0.84521   0.72495   0.00000  Uiso   1.00
C958   C     0.87210   0.65463   0.27527   0.00000  Uiso   1.00
C959   C     0.65463   0.62790   0.72472   0.00000  Uiso   1.00
C960   C     0.84521   0.87193   0.27505   0.00000  Uiso   1.00
C961   C     0.87194   0.84521   0.27505   0.00000  Uiso   1.00
C962   C     0.97247   0.73164   0.54127   0.00000  Uiso   1.00
C963   C     0.62790   0.65463   0.72473   0.00000  Uiso   1.00
C964   C     0.84537   0.62790   0.27528   0.00000  Uiso   1.00
C965   C     0.65479   0.87194   0.72495   0.00000  Uiso   1.00
C966   C     0.62806   0.65479   0.27505   0.00000  Uiso   1.00
C967   C     0.87210   0.84537   0.72473   0.00000  Uiso   1.00
C968   C     0.65463   0.87210   0.27528   0.00000  Uiso   1.00
C969   C     0.84521   0.62806   0.72495   0.00000  Uiso   1.00
C970   C     0.59815   0.84812   0.24998   0.00000  Uiso   1.00
C971   C     0.90188   0.65185   0.74998   0.00000  Uiso   1.00
C972   C     0.65185   0.59813   0.25002   0.00000  Uiso   1.00
F973   F     0.69595   0.96363   0.02154   0.00000  Uiso   1.00
F974   F     0.55416   0.71378   0.47847   0.00000  Uiso   1.00
F975   F     0.78629   0.94593   0.52152   0.00000  Uiso   1.00
F976   F     0.78647   0.55396   0.47847   0.00000  Uiso   1.00
F977   F     0.55391   0.78657   0.52155   0.00000  Uiso   1.00
F978   F     0.94584   0.78618   0.47848   0.00000  Uiso   1.00
F979   F     0.71362   0.55407   0.52155   0.00000  Uiso   1.00
F980   F     0.71342   0.94607   0.47845   0.00000  Uiso   1.00
F981   F     0.80401   0.96356   0.97846   0.00000  Uiso   1.00
F982   F     0.96378   0.69584   0.02155   0.00000  Uiso   1.00
F983   F     0.96368   0.80409   0.97845   0.00000  Uiso   1.00
F984   F     0.80407   0.53634   0.02154   0.00000  Uiso   1.00
F985   F     0.69600   0.53642   0.97847   0.00000  Uiso   1.00
F986   F     0.53619   0.80416   0.02153   0.00000  Uiso   1.00
F987   F     0.53627   0.69589   0.97846   0.00000  Uiso   1.00
F988   F     0.94611   0.71339   0.52155   0.00000  Uiso   1.00
H989   H     0.61948   0.92734   0.20486   0.00000  Uiso   1.00
H990   H     0.88090   0.92772   0.20543   0.00000  Uiso   1.00
H991   H     0.57228   0.88090   0.79457   0.00000  Uiso   1.00
H992   H     0.92733   0.61948   0.20486   0.00000  Uiso   1.00
H993   H     0.88052   0.92734   0.79514   0.00000  Uiso   1.00
H994   H     0.61910   0.57228   0.20543   0.00000  Uiso   1.00
H995   H     0.92772   0.61910   0.79457   0.00000  Uiso   1.00
H996   H     0.57267   0.88052   0.20486   0.00000  Uiso   1.00
H997   H     0.86914   0.67768   0.70537   0.00000  Uiso   1.00
H998   H     0.63056   0.82263   0.29507   0.00000  Uiso   1.00
H999   H     0.82264   0.86945   0.70492   0.00000  Uiso   1.00
H1000  H     0.88090   0.57228   0.79457   0.00000  Uiso   1.00
H1001  H     0.67769   0.63087   0.29462   0.00000  Uiso   1.00
H1002  H     0.63086   0.82232   0.70537   0.00000  Uiso   1.00
H1003  H     0.86944   0.67737   0.29507   0.00000  Uiso   1.00
H1004  H     0.67736   0.63055   0.70491   0.00000  Uiso   1.00
H1005  H     0.82231   0.86912   0.29462   0.00000  Uiso   1.00
H1006  H     0.86914   0.82232   0.29463   0.00000  Uiso   1.00
H1007  H     0.63056   0.67737   0.70493   0.00000  Uiso   1.00
H1008  H     0.82264   0.63055   0.29509   0.00000  Uiso   1.00
H1009  H     0.67769   0.86913   0.70538   0.00000  Uiso   1.00
H1010  H     0.63086   0.67768   0.29463   0.00000  Uiso   1.00
H1011  H     0.57228   0.61910   0.20543   0.00000  Uiso   1.00
H1012  H     0.86944   0.82263   0.70493   0.00000  Uiso   1.00
H1013  H     0.67736   0.86945   0.29509   0.00000  Uiso   1.00
H1014  H     0.82231   0.63087   0.70538   0.00000  Uiso   1.00
H1015  H     0.69569   0.93441   0.09313   0.00000  Uiso   1.00
H1016  H     0.66914   0.97214   0.09375   0.00000  Uiso   1.00
H1017  H     0.80425   0.93435   0.90687   0.00000  Uiso   1.00
H1018  H     0.83083   0.97206   0.90624   0.00000  Uiso   1.00
H1019  H     0.93458   0.69546   0.09312   0.00000  Uiso   1.00
H1020  H     0.97240   0.66905   0.09376   0.00000  Uiso   1.00
H1021  H     0.93449   0.80441   0.90687   0.00000  Uiso   1.00
H1022  H     0.92733   0.88052   0.79514   0.00000  Uiso   1.00
H1023  H     0.97226   0.83090   0.90624   0.00000  Uiso   1.00
H1024  H     0.83087   0.52782   0.09376   0.00000  Uiso   1.00
H1025  H     0.80435   0.56557   0.09311   0.00000  Uiso   1.00
H1026  H     0.66917   0.52793   0.90625   0.00000  Uiso   1.00
H1027  H     0.69576   0.56564   0.90687   0.00000  Uiso   1.00
H1028  H     0.52757   0.83095   0.09374   0.00000  Uiso   1.00
H1029  H     0.56540   0.80454   0.09310   0.00000  Uiso   1.00
H1030  H     0.52765   0.66909   0.90621   0.00000  Uiso   1.00
H1031  H     0.56547   0.69551   0.90692   0.00000  Uiso   1.00
H1032  H     0.91925   0.72178   0.59375   0.00000  Uiso   1.00
H1033  H     0.88052   0.57266   0.20486   0.00000  Uiso   1.00
H1034  H     0.94599   0.68418   0.59318   0.00000  Uiso   1.00
H1035  H     0.58095   0.72237   0.40626   0.00000  Uiso   1.00
H1036  H     0.55450   0.68456   0.40688   0.00000  Uiso   1.00
H1037  H     0.81553   0.94564   0.59309   0.00000  Uiso   1.00
H1038  H     0.77778   0.91912   0.59374   0.00000  Uiso   1.00
H1039  H     0.81571   0.55415   0.40690   0.00000  Uiso   1.00
H1040  H     0.77804   0.58079   0.40624   0.00000  Uiso   1.00
H1041  H     0.55407   0.81579   0.59313   0.00000  Uiso   1.00
H1042  H     0.58076   0.77815   0.59378   0.00000  Uiso   1.00
H1043  H     0.94546   0.81540   0.40690   0.00000  Uiso   1.00
H1044  H     0.61910   0.92771   0.79457   0.00000  Uiso   1.00
H1045  H     0.91904   0.77757   0.40627   0.00000  Uiso   1.00
H1046  H     0.72215   0.58088   0.59375   0.00000  Uiso   1.00
H1047  H     0.68442   0.55433   0.59315   0.00000  Uiso   1.00
H1048  H     0.72182   0.91922   0.40627   0.00000  Uiso   1.00
H1049  H     0.68421   0.94595   0.40680   0.00000  Uiso   1.00
H1050  H     0.92772   0.88090   0.20543   0.00000  Uiso   1.00
H1051  H     0.57267   0.61948   0.79514   0.00000  Uiso   1.00
H1052  H     0.61948   0.57266   0.79514   0.00000  Uiso   1.00
N1053  N     0.69450   0.96166   0.10195   0.00000  Uiso   1.00
N1054  N     0.55562   0.71181   0.39806   0.00000  Uiso   1.00
N1055  N     0.78829   0.94447   0.60193   0.00000  Uiso   1.00
N1056  N     0.78847   0.55540   0.39806   0.00000  Uiso   1.00
N1057  N     0.55536   0.78855   0.60196   0.00000  Uiso   1.00
N1058  N     0.94437   0.78816   0.39808   0.00000  Uiso   1.00
N1059  N     0.71166   0.55552   0.60196   0.00000  Uiso   1.00
N1060  N     0.71146   0.94462   0.39803   0.00000  Uiso   1.00
N1061  N     0.80547   0.96160   0.89804   0.00000  Uiso   1.00
N1062  N     0.96182   0.69437   0.10195   0.00000  Uiso   1.00
N1063  N     0.96173   0.80556   0.89805   0.00000  Uiso   1.00
N1064  N     0.80552   0.53833   0.10195   0.00000  Uiso   1.00
N1065  N     0.69454   0.53840   0.89805   0.00000  Uiso   1.00
N1066  N     0.53815   0.80563   0.10194   0.00000  Uiso   1.00
N1067  N     0.53823   0.69442   0.89806   0.00000  Uiso   1.00
N1068  N     0.94466   0.71143   0.60197   0.00000  Uiso   1.00
O1069  O     0.75000   0.50000   0.25000   0.00000  Uiso   1.00
O1070  O     0.75000   0.96964   0.66317   0.00000  Uiso   1.00
O1071  O     0.96964   0.75000   0.33683   0.00000  Uiso   1.00
O1072  O     0.53036   0.75000   0.66317   0.00000  Uiso   1.00
O1073  O     0.50000   0.71964   0.83683   0.00000  Uiso   1.00
O1074  O     0.50000   0.78036   0.16317   0.00000  Uiso   1.00
O1075  O     0.78036   0.50000   0.83683   0.00000  Uiso   1.00
O1076  O     0.71964   0.50000   0.16317   0.00000  Uiso   1.00
O1077  O     0.50000   0.78036   0.83683   0.00000  Uiso   1.00
O1078  O     0.50000   0.71964   0.16317   0.00000  Uiso   1.00
O1079  O     0.71964   0.50000   0.83683   0.00000  Uiso   1.00
O1080  O     0.75000   0.50000   0.75000   0.00000  Uiso   1.00
O1081  O     0.78036   0.50000   0.16317   0.00000  Uiso   1.00
O1082  O     0.70726   0.57307   0.27282   0.00000  Uiso   1.00
O1083  O     0.79275   0.92693   0.72718   0.00000  Uiso   1.00
O1084  O     0.92693   0.70725   0.27282   0.00000  Uiso   1.00
O1085  O     0.57307   0.79274   0.72718   0.00000  Uiso   1.00
O1086  O     0.79275   0.92693   0.27282   0.00000  Uiso   1.00
O1087  O     0.70726   0.57307   0.72718   0.00000  Uiso   1.00
O1088  O     0.57307   0.79274   0.27282   0.00000  Uiso   1.00
O1089  O     0.92693   0.70725   0.72718   0.00000  Uiso   1.00
O1090  O     0.70726   0.92693   0.72718   0.00000  Uiso   1.00
O1091  O     0.50000   0.75000   0.25000   0.00000  Uiso   1.00
O1092  O     0.79275   0.57307   0.27282   0.00000  Uiso   1.00
O1093  O     0.92693   0.79274   0.72718   0.00000  Uiso   1.00
O1094  O     0.57307   0.70725   0.27282   0.00000  Uiso   1.00
O1095  O     0.79275   0.57307   0.72718   0.00000  Uiso   1.00
O1096  O     0.70726   0.92693   0.27282   0.00000  Uiso   1.00
O1097  O     0.57307   0.70725   0.72718   0.00000  Uiso   1.00
O1098  O     0.92693   0.79274   0.27282   0.00000  Uiso   1.00
O1099  O     0.95726   0.82307   0.77282   0.00000  Uiso   1.00
O1100  O     0.54275   0.67693   0.22718   0.00000  Uiso   1.00
O1101  O     0.67693   0.95725   0.77282   0.00000  Uiso   1.00
O1102  O     0.50000   0.75000   0.75000   0.00000  Uiso   1.00
O1103  O     0.82307   0.54274   0.22718   0.00000  Uiso   1.00
O1104  O     0.54275   0.67693   0.77282   0.00000  Uiso   1.00
O1105  O     0.95726   0.82307   0.22718   0.00000  Uiso   1.00
O1106  O     0.82307   0.54274   0.77282   0.00000  Uiso   1.00
O1107  O     0.67693   0.95725   0.22718   0.00000  Uiso   1.00
O1108  O     0.95726   0.67693   0.22718   0.00000  Uiso   1.00
O1109  O     0.54275   0.82307   0.77282   0.00000  Uiso   1.00
O1110  O     0.67693   0.54274   0.22718   0.00000  Uiso   1.00
O1111  O     0.82307   0.95725   0.77282   0.00000  Uiso   1.00
O1112  O     0.54275   0.82307   0.22718   0.00000  Uiso   1.00
O1113  O     0.75000   0.96964   0.33683   0.00000  Uiso   1.00
O1114  O     0.95726   0.67693   0.77282   0.00000  Uiso   1.00
O1115  O     0.82307   0.95725   0.22718   0.00000  Uiso   1.00
O1116  O     0.67693   0.54274   0.77282   0.00000  Uiso   1.00
O1117  O     0.75000   0.53036   0.66317   0.00000  Uiso   1.00
O1118  O     0.53036   0.75000   0.33683   0.00000  Uiso   1.00
O1119  O     0.96964   0.75000   0.66317   0.00000  Uiso   1.00
O1120  O     0.75000   0.53036   0.33683   0.00000  Uiso   1.00
Zn1121 Zn    0.70660   0.50000   0.21760   0.00000  Uiso   1.00
Zn1122 Zn    0.54340   0.75000   0.28240   0.00000  Uiso   1.00
Zn1123 Zn    0.75000   0.95660   0.71760   0.00000  Uiso   1.00
Zn1124 Zn    0.75000   0.54340   0.28240   0.00000  Uiso   1.00
Zn1125 Zn    0.54340   0.75000   0.71760   0.00000  Uiso   1.00
Zn1126 Zn    0.95660   0.75000   0.28240   0.00000  Uiso   1.00
Zn1127 Zn    0.75000   0.54340   0.71760   0.00000  Uiso   1.00
Zn1128 Zn    0.75000   0.95660   0.28240   0.00000  Uiso   1.00
Zn1129 Zn    0.79340   0.50000   0.78240   0.00000  Uiso   1.00
Zn1130 Zn    0.50000   0.70660   0.21760   0.00000  Uiso   1.00
Zn1131 Zn    0.50000   0.79340   0.78240   0.00000  Uiso   1.00
Zn1132 Zn    0.79340   0.50000   0.21760   0.00000  Uiso   1.00
Zn1133 Zn    0.70660   0.50000   0.78240   0.00000  Uiso   1.00
Zn1134 Zn    0.50000   0.79340   0.21760   0.00000  Uiso   1.00
Zn1135 Zn    0.50000   0.70660   0.78240   0.00000  Uiso   1.00
Zn1136 Zn    0.95660   0.75000   0.71760   0.00000  Uiso   1.00
loop_
_geom_bond_atom_site_label_1
_geom_bond_atom_site_label_2
_geom_bond_distance
_geom_bond_site_symmetry_2
_ccdc_geom_bond_type
C1     C48     1.398   .     A
C1     C30     1.398   .     A
C1     F121    1.359   .     S
C2     F122    1.359   .     S
C2     C40     1.398   .     A
C2     C53     1.398   .     A
C3     C96     1.402   .     A
C3     C103    1.402   .     A
C3     C67     1.456   .     S
C4     C68     1.456   .     S
C4     C95     1.402   .     A
C4     C106    1.402   .     A
C5     C94     1.402   .     A
C5     C69     1.456   .     S
C5     C105    1.402   .     A
C6     C93     1.402   .     A
C6     C70     1.456   .     S
C6     C108    1.402   .     A
C7     C71     1.456   .     S
C7     C92     1.402   .     A
C7     C107    1.402   .     A
C8     C81     1.456   .     S
C8     C111    1.402   .     A
C8     C91     1.402   .     A
C9     C82     1.456   .     S
C9     C109    1.402   .     A
C9     C90     1.402   .     A
C10    C89     1.402   .     A
C10    C113    1.402   .     A
C10    C74     1.456   .     S
C11    C112    1.402   .     A
C11    C75     1.456   .     S
C11    C87     1.402   .     A
C12    C115    1.402   .     A
C12    C76     1.456   .     S
C12    C86     1.402   .     A
C13    C41     1.398   .     A
C13    F123    1.359   .     S
C13    C622    1.398   .     S
C14    C78     1.456   .     S
C14    C85     1.402   .     A
C14    C114    1.402   .     A
C15    C79     1.456   .     S
C15    C117    1.402   .     A
C15    C84     1.402   .     A
C16    C116    1.402   .     A
C16    C80     1.456   .     S
C16    C83     1.402   .     A
C17    C598    1.413   1_545 A
C17    C35     1.413   .     S
C17    C64     1.470   .     S
C18    C63     1.470   .     S
C18    C599    1.413   1_545 A
C18    C36     1.413   .     S
C19    C346    1.470   .     S
C19    C32     1.413   .     A
C19    C321    1.413   .     S
C20    C318    1.413   1_455 A
C20    C38     1.413   .     S
C20    C61     1.470   .     S
C21    C43     1.413   .     A
C21    C60     1.469   .     S
C21    C323    1.413   1_455 S
C22    C59     1.470   .     S
C22    C40     1.413   .     A
C22    C329    1.413   1_455 S
C23    C58     1.470   .     S
C23    C46     1.413   .     A
C23    C609    1.413   1_545 S
C24    C42     1.398   .     A
C24    F124    1.359   .     S
C24    C56     1.398   .     A
C25    C615    1.413   1_545 A
C25    C57     1.470   .     S
C25    C42     1.413   .     S
C26    C52     1.398   .     A
C26    C43     1.398   .     A
C26    F125    1.359   .     S
C27    F126    1.359   .     S
C27    C45     1.398   .     A
C27    C337    1.398   .     S
C28    C46     1.398   .     A
C28    F127    1.359   .     S
C28    C54     1.398   .     A
C29    C47     1.398   .     A
C29    F128    1.359   .     S
C29    C624    1.398   .     S
C30    C585    1.413   .     A
C30    N201    1.434   .     S
C31    C33     1.398   .     A
C31    C586    1.413   .     A
C31    N209    1.434   .     S
C32    N210    1.434   .     S
C32    C44     1.398   .     A
C33    C49     1.398   .     A
C33    F129    1.359   .     S
C34    C304    1.413   .     A
C34    C55     1.398   .     A
C34    N211    1.434   .     S
C35    C66     1.398   .     A
C35    N212    1.434   .     S
C36    C77     1.398   .     A
C36    N213    1.434   .     S
C37    C88     1.398   .     A
C37    N214    1.434   .     S
C37    C303    1.413   1_455 S
C38    N215    1.434   .     S
C38    C99     1.398   .     A
C39    C110    1.398   .     A
C39    N216    1.434   .     S
C39    C305    1.413   .     S
C40    N202    1.434   .     S
C41    N203    1.434   .     S
C41    C591    1.413   .     S
C42    N204    1.434   .     S
C43    N205    1.434   .     S
C44    F130    1.359   .     S
C44    C50     1.398   .     A
C45    N206    1.434   .     S
C45    C306    1.413   .     S
C46    N207    1.434   .     S
C47    C593    1.413   .     A
C47    N208    1.434   .     S
C48    C49     1.461   1_554 S
C48    C634    1.398   .     S
C49    C48     1.461   1_556 S
C49    C645    1.398   .     S
C50    C51     1.461   1_554 S
C50    C372    1.398   .     S
C51    C55     1.398   .     A
C51    C50     1.461   1_556 S
C51    C383    1.398   .     S
C52    C53     1.461   .     S
C52    C394    1.398   1_455 S
C53    C311    1.398   1_455 S
C54    C56     1.461   .     S
C54    C581    1.398   1_545 S
C55    F131    1.359   .     S
C56    C597    1.398   1_545 S
C57    O829    1.282   1_545 A
C57    O268    1.282   .     S
C58    O265    1.282   .     A
C58    O786    1.282   1_545 S
C59    O266    1.282   .     A
C59    O503    1.282   1_455 S
C60    O220    1.282   .     A
C60    O551    1.282   1_455 S
C61    O221    1.282   .     A
C61    O225    1.282   .     A
C62    C303    1.470   1_455 S
C62    O222    1.282   .     S
C62    O226    1.282   .     S
C63    O223    1.282   .     S
C63    O227    1.282   .     S
C64    O229    1.282   .     A
C64    O224    1.282   .     A
C65    O258    1.280   .     A
C65    C120    1.456   .     S
C65    O230    1.280   .     A
C66    F132    1.359   .     S
C66    C616    1.398   1_545 S
C67    O231    1.280   .     A
C67    O259    1.280   .     A
C68    O256    1.280   .     A
C68    O232    1.280   .     A
C69    O233    1.280   .     A
C69    O257    1.280   .     A
C70    O234    1.280   .     A
C70    O263    1.280   .     A
C71    O235    1.280   .     A
C71    O264    1.280   .     A
C72    O260    1.280   .     A
C72    C118    1.456   .     S
C72    O236    1.280   .     A
C73    C119    1.456   .     S
C73    O237    1.280   .     A
C73    O262    1.280   .     A
C74    O238    1.280   .     A
C74    O249    1.280   .     A
C75    O240    1.280   .     A
C75    O251    1.280   .     A
C76    O241    1.280   .     A
C76    O247    1.280   .     A
C77    F133    1.359   .     S
C77    C617    1.398   1_545 S
C78    O242    1.280   .     A
C78    O248    1.280   .     A
C79    O254    1.280   .     A
C79    O243    1.280   .     A
C80    O255    1.280   .     A
C80    O244    1.280   .     A
C81    O245    1.280   .     A
C81    O252    1.280   .     A
C82    O253    1.280   .     A
C82    O246    1.280   .     A
C83    H137    1.083   .     S
C83    C100    1.386   .     A
C84    C98     1.386   .     A
C84    H148    1.083   .     S
C85    C97     1.386   .     A
C85    H159    1.083   .     S
C86    C96     1.386   .     A
C86    H170    1.083   .     S
C87    H181    1.083   .     S
C87    C95     1.386   .     A
C88    F134    1.359   .     S
C88    C334    1.398   1_455 S
C89    C94     1.386   .     A
C89    H192    1.083   .     S
C90    C93     1.386   .     A
C90    H198    1.083   .     S
C91    C92     1.386   .     A
C91    H199    1.083   .     S
C92    H200    1.083   .     S
C93    H138    1.083   .     S
C94    H139    1.083   .     S
C95    H140    1.083   .     S
C96    H141    1.083   .     S
C97    C120    1.402   .     A
C97    H142    1.083   .     S
C98    H143    1.083   .     S
C98    C119    1.402   .     A
C99    F135    1.359   .     S
C99    C335    1.398   1_455 S
C100   H144    1.083   .     S
C100   C118    1.402   .     A
C101   H145    1.083   .     S
C101   C119    1.402   .     A
C101   C117    1.386   .     A
C102   C118    1.402   .     A
C102   H146    1.083   .     S
C102   C116    1.386   .     A
C103   H147    1.083   .     S
C103   C115    1.386   .     A
C104   H149    1.083   .     S
C104   C114    1.386   .     A
C104   C120    1.402   .     A
C105   C113    1.386   .     A
C105   H150    1.083   .     S
C106   C112    1.386   .     A
C106   H151    1.083   .     S
C107   H152    1.083   .     S
C107   C111    1.386   .     A
C108   C109    1.386   .     A
C108   H153    1.083   .     S
C109   H154    1.083   .     S
C110   F136    1.359   .     S
C110   C336    1.398   .     S
C111   H155    1.083   .     S
C112   H156    1.083   .     S
C113   H157    1.083   .     S
C114   H158    1.083   .     S
C115   H160    1.083   .     S
C116   H161    1.083   .     S
C117   H162    1.083   .     S
H163   N201    1.046   .     S
H164   N201    1.046   .     S
H165   N209    1.046   .     S
H166   N209    1.046   .     S
H167   N210    1.046   .     S
H168   N210    1.046   .     S
H169   N211    1.046   .     S
H171   N211    1.046   .     S
H172   N212    1.046   .     S
H173   N212    1.046   .     S
H174   N213    1.046   .     S
H175   N213    1.046   .     S
H176   N214    1.046   .     S
H177   N214    1.046   .     S
H178   N215    1.046   .     S
H179   N215    1.046   .     S
H180   N216    1.046   .     S
H182   N216    1.046   .     S
H183   N202    1.046   .     S
H184   N202    1.046   .     S
H185   N203    1.046   .     S
H186   N203    1.046   .     S
H187   N204    1.046   .     S
H188   N204    1.046   .     S
H189   N205    1.046   .     S
H190   N205    1.046   .     S
H191   N206    1.046   .     S
H193   N206    1.046   .     S
H194   N207    1.046   .     S
H195   N207    1.046   .     S
H196   N208    1.046   .     S
H197   N208    1.046   .     S
O217   Zn280   1.946   .     S
O217   Zn272   1.946   .     S
O217   Zn269   1.946   .     S
O217   Zn844   1.946   1_545 S
O218   Zn271   1.940   .     S
O218   C626    1.282   .     S
O219   Zn274   1.940   .     S
O219   C343    1.282   .     S
O220   Zn273   1.940   .     S
O221   Zn283   1.940   .     S
O222   Zn282   1.940   .     S
O223   Zn277   1.940   .     S
O224   Zn269   1.940   .     S
O225   Zn279   1.940   .     S
O226   Zn278   1.940   .     S
O227   Zn281   1.940   .     S
O228   Zn281   1.946   .     S
O228   Zn277   1.946   .     S
O228   Zn275   1.946   .     S
O228   Zn839   1.946   1_545 S
O229   Zn280   1.940   .     S
O230   Zn272   1.937   .     S
O231   Zn271   1.937   .     S
O232   Zn274   1.937   .     S
O233   Zn273   1.937   .     S
O234   Zn276   1.937   .     S
O235   Zn275   1.937   .     S
O236   Zn270   1.937   .     S
O237   Zn284   1.937   .     S
O238   Zn271   1.937   .     S
O239   Zn282   1.946   .     S
O239   Zn558   1.946   1_455 S
O239   Zn270   1.946   .     S
O239   Zn278   1.946   .     S
O240   Zn272   1.937   .     S
O241   Zn284   1.937   .     S
O242   Zn270   1.937   .     S
O243   Zn275   1.937   .     S
O244   Zn276   1.937   .     S
O245   Zn273   1.937   .     S
O246   Zn274   1.937   .     S
O247   Zn563   1.937   .     S
O248   Zn278   1.937   .     S
O249   Zn849   1.937   .     S
O250   Zn283   1.946   .     S
O250   Zn273   1.946   .     S
O250   Zn279   1.946   .     S
O250   Zn568   1.946   1_455 S
O251   Zn280   1.937   .     S
O252   Zn283   1.937   .     S
O253   Zn566   1.937   .     S
O254   Zn277   1.937   .     S
O255   Zn837   1.937   .     S
O256   Zn562   1.937   .     S
O257   Zn279   1.937   .     S
O258   Zn269   1.937   .     S
O259   Zn845   1.937   .     S
O260   Zn282   1.937   .     S
O261   Zn276   1.940   .     S
O261   C625    1.282   .     A
O262   Zn567   1.937   .     S
O263   Zn848   1.937   .     S
O264   Zn281   1.937   .     S
O265   Zn275   1.940   .     S
O266   Zn270   1.940   .     S
O267   Zn284   1.940   .     S
O267   C344    1.282   .     S
O268   Zn272   1.940   .     S
Zn269  O823    1.937   1_545 S
Zn271  O796    1.946   .     S
Zn274  O523    1.946   .     S
Zn276  O785    1.946   .     S
Zn277  O827    1.937   1_545 S
Zn278  O540    1.937   1_455 S
Zn279  O531    1.937   1_455 S
Zn280  O831    1.937   1_545 S
Zn281  O817    1.937   1_545 S
Zn282  O537    1.937   1_455 S
Zn283  O546    1.937   1_455 S
Zn284  O534    1.946   .     S
C285   C332    1.398   .     A
C285   C314    1.398   .     A
C285   F405    1.359   .     S
C286   F406    1.359   .     S
C286   C324    1.398   .     A
C286   C337    1.398   .     A
C287   C380    1.402   .     A
C287   C387    1.402   .     A
C287   C351    1.456   .     S
C288   C352    1.456   .     S
C288   C379    1.402   .     A
C288   C390    1.402   .     A
C289   C378    1.402   .     A
C289   C353    1.456   .     S
C289   C389    1.402   .     A
C290   C377    1.402   .     A
C290   C354    1.456   .     S
C290   C392    1.402   .     A
C291   C355    1.456   .     S
C291   C376    1.402   .     A
C291   C391    1.402   .     A
C292   C365    1.456   .     S
C292   C395    1.402   .     A
C292   C375    1.402   .     A
C293   C366    1.456   .     S
C293   C393    1.402   .     A
C293   C374    1.402   .     A
C294   C373    1.402   .     A
C294   C397    1.402   .     A
C294   C358    1.456   .     S
C295   C396    1.402   .     A
C295   C359    1.456   .     S
C295   C371    1.402   .     A
C296   C399    1.402   .     A
C296   C360    1.456   .     S
C296   C370    1.402   .     A
C297   C325    1.398   .     A
C297   F407    1.359   .     S
C297   C906    1.398   .     S
C298   C362    1.456   .     S
C298   C369    1.402   .     A
C298   C398    1.402   .     A
C299   C363    1.456   .     S
C299   C401    1.402   .     A
C299   C368    1.402   .     A
C300   C400    1.402   .     A
C300   C364    1.456   .     S
C300   C367    1.402   .     A
C301   C882    1.413   1_545 A
C301   C319    1.413   .     S
C301   C348    1.470   .     S
C302   C347    1.470   .     S
C302   C883    1.413   1_545 A
C302   C320    1.413   .     S
C303   C62     1.470   1_655 S
C303   C316    1.413   .     A
C303   C37     1.413   1_655 S
C304   C322    1.413   .     S
C304   C345    1.470   .     S
C305   C327    1.413   .     A
C305   C344    1.469   .     S
C306   C343    1.470   .     S
C306   C324    1.413   .     A
C307   C342    1.470   .     S
C307   C330    1.413   .     A
C307   C893    1.413   1_545 S
C308   C326    1.398   .     A
C308   F408    1.359   .     S
C308   C340    1.398   .     A
C309   C899    1.413   1_545 A
C309   C341    1.470   .     S
C309   C326    1.413   .     S
C310   C336    1.398   .     A
C310   C327    1.398   .     A
C310   F409    1.359   .     S
C311   F410    1.359   .     S
C311   C329    1.398   .     A
C311   C53     1.398   1_655 S
C312   C330    1.398   .     A
C312   F411    1.359   .     S
C312   C338    1.398   .     A
C313   C331    1.398   .     A
C313   F412    1.359   .     S
C313   C908    1.398   .     S
C314   C869    1.413   .     A
C314   N485    1.434   .     S
C315   C317    1.398   .     A
C315   C870    1.413   .     A
C315   N493    1.434   .     S
C316   N494    1.434   .     S
C316   C328    1.398   .     A
C317   C333    1.398   .     A
C317   F413    1.359   .     S
C318   C20     1.413   1_655 A
C318   C339    1.398   .     A
C318   N495    1.434   .     S
C319   C350    1.398   .     A
C319   N496    1.434   .     S
C320   C361    1.398   .     A
C320   N497    1.434   .     S
C321   C372    1.398   .     A
C321   N498    1.434   .     S
C322   N499    1.434   .     S
C322   C383    1.398   .     A
C323   C394    1.398   .     A
C323   N500    1.434   .     S
C323   C21     1.413   1_655 S
C324   N486    1.434   .     S
C325   N487    1.434   .     S
C325   C875    1.413   .     S
C326   N488    1.434   .     S
C327   N489    1.434   .     S
C328   F414    1.359   .     S
C328   C334    1.398   .     A
C329   N490    1.434   .     S
C329   C22     1.413   1_655 S
C330   N491    1.434   .     S
C331   C877    1.413   .     A
C331   N492    1.434   .     S
C332   C333    1.461   1_554 S
C332   C918    1.398   .     S
C333   C332    1.461   1_556 S
C333   C929    1.398   .     S
C334   C335    1.461   1_554 S
C334   C88     1.398   1_655 S
C335   C339    1.398   .     A
C335   C334    1.461   1_556 S
C335   C99     1.398   1_655 S
C336   C337    1.461   .     S
C338   C340    1.461   .     S
C338   C865    1.398   1_545 S
C339   F415    1.359   .     S
C340   C881    1.398   1_545 S
C341   O1113   1.282   1_545 A
C341   O552    1.282   .     S
C342   O549    1.282   .     A
C342   O1070   1.282   1_545 S
C343   O550    1.282   .     A
C344   O504    1.282   .     A
C345   O505    1.282   .     A
C345   O509    1.282   .     A
C346   O506    1.282   .     S
C346   O510    1.282   .     S
C347   O507    1.282   .     S
C347   O511    1.282   .     S
C348   O513    1.282   .     A
C348   O508    1.282   .     A
C349   O542    1.280   .     A
C349   C404    1.456   .     S
C349   O514    1.280   .     A
C350   F416    1.359   .     S
C350   C900    1.398   1_545 S
C351   O515    1.280   .     A
C351   O543    1.280   .     A
C352   O540    1.280   .     A
C352   O516    1.280   .     A
C353   O517    1.280   .     A
C353   O541    1.280   .     A
C354   O518    1.280   .     A
C354   O547    1.280   .     A
C355   O519    1.280   .     A
C355   O548    1.280   .     A
C356   O544    1.280   .     A
C356   C402    1.456   .     S
C356   O520    1.280   .     A
C357   C403    1.456   .     S
C357   O521    1.280   .     A
C357   O546    1.280   .     A
C358   O522    1.280   .     A
C358   O533    1.280   .     A
C359   O524    1.280   .     A
C359   O535    1.280   .     A
C360   O525    1.280   .     A
C360   O531    1.280   .     A
C361   F417    1.359   .     S
C361   C901    1.398   1_545 S
C362   O526    1.280   .     A
C362   O532    1.280   .     A
C363   O538    1.280   .     A
C363   O527    1.280   .     A
C364   O539    1.280   .     A
C364   O528    1.280   .     A
C365   O529    1.280   .     A
C365   O536    1.280   .     A
C366   O537    1.280   .     A
C366   O530    1.280   .     A
C367   H421    1.083   .     S
C367   C384    1.386   .     A
C368   C382    1.386   .     A
C368   H432    1.083   .     S
C369   C381    1.386   .     A
C369   H443    1.083   .     S
C370   C380    1.386   .     A
C370   H454    1.083   .     S
C371   H465    1.083   .     S
C371   C379    1.386   .     A
C372   F418    1.359   .     S
C373   C378    1.386   .     A
C373   H476    1.083   .     S
C374   C377    1.386   .     A
C374   H482    1.083   .     S
C375   C376    1.386   .     A
C375   H483    1.083   .     S
C376   H484    1.083   .     S
C377   H422    1.083   .     S
C378   H423    1.083   .     S
C379   H424    1.083   .     S
C380   H425    1.083   .     S
C381   C404    1.402   .     A
C381   H426    1.083   .     S
C382   H427    1.083   .     S
C382   C403    1.402   .     A
C383   F419    1.359   .     S
C384   H428    1.083   .     S
C384   C402    1.402   .     A
C385   H429    1.083   .     S
C385   C403    1.402   .     A
C385   C401    1.386   .     A
C386   C402    1.402   .     A
C386   H430    1.083   .     S
C386   C400    1.386   .     A
C387   H431    1.083   .     S
C387   C399    1.386   .     A
C388   H433    1.083   .     S
C388   C398    1.386   .     A
C388   C404    1.402   .     A
C389   C397    1.386   .     A
C389   H434    1.083   .     S
C390   C396    1.386   .     A
C390   H435    1.083   .     S
C391   H436    1.083   .     S
C391   C395    1.386   .     A
C392   C393    1.386   .     A
C392   H437    1.083   .     S
C393   H438    1.083   .     S
C394   F420    1.359   .     S
C394   C52     1.398   1_655 S
C395   H439    1.083   .     S
C396   H440    1.083   .     S
C397   H441    1.083   .     S
C398   H442    1.083   .     S
C399   H444    1.083   .     S
C400   H445    1.083   .     S
C401   H446    1.083   .     S
H447   N485    1.046   .     S
H448   N485    1.046   .     S
H449   N493    1.046   .     S
H450   N493    1.046   .     S
H451   N494    1.046   .     S
H452   N494    1.046   .     S
H453   N495    1.046   .     S
H455   N495    1.046   .     S
H456   N496    1.046   .     S
H457   N496    1.046   .     S
H458   N497    1.046   .     S
H459   N497    1.046   .     S
H460   N498    1.046   .     S
H461   N498    1.046   .     S
H462   N499    1.046   .     S
H463   N499    1.046   .     S
H464   N500    1.046   .     S
H466   N500    1.046   .     S
H467   N486    1.046   .     S
H468   N486    1.046   .     S
H469   N487    1.046   .     S
H470   N487    1.046   .     S
H471   N488    1.046   .     S
H472   N488    1.046   .     S
H473   N489    1.046   .     S
H474   N489    1.046   .     S
H475   N490    1.046   .     S
H477   N490    1.046   .     S
H478   N491    1.046   .     S
H479   N491    1.046   .     S
H480   N492    1.046   .     S
H481   N492    1.046   .     S
O501   Zn564   1.946   .     S
O501   Zn556   1.946   .     S
O501   Zn553   1.946   .     S
O501   Zn1128  1.946   1_545 S
O502   Zn555   1.940   .     S
O502   C910    1.282   .     S
O503   Zn558   1.940   .     S
O503   C59     1.282   1_655 S
O504   Zn557   1.940   .     S
O505   Zn567   1.940   .     S
O506   Zn566   1.940   .     S
O507   Zn561   1.940   .     S
O508   Zn553   1.940   .     S
O509   Zn563   1.940   .     S
O510   Zn562   1.940   .     S
O511   Zn565   1.940   .     S
O512   Zn565   1.946   .     S
O512   Zn561   1.946   .     S
O512   Zn559   1.946   .     S
O512   Zn1123  1.946   1_545 S
O513   Zn564   1.940   .     S
O514   Zn556   1.937   .     S
O515   Zn555   1.937   .     S
O516   Zn558   1.937   .     S
O517   Zn557   1.937   .     S
O518   Zn560   1.937   .     S
O519   Zn559   1.937   .     S
O520   Zn554   1.937   .     S
O521   Zn568   1.937   .     S
O522   Zn555   1.937   .     S
O523   Zn566   1.946   .     S
O523   Zn554   1.946   .     S
O523   Zn562   1.946   .     S
O524   Zn556   1.937   .     S
O525   Zn568   1.937   .     S
O526   Zn554   1.937   .     S
O527   Zn559   1.937   .     S
O528   Zn560   1.937   .     S
O529   Zn557   1.937   .     S
O530   Zn558   1.937   .     S
O531   Zn279   1.937   1_655 S
O532   Zn562   1.937   .     S
O533   Zn1133  1.937   .     S
O534   Zn567   1.946   .     S
O534   Zn557   1.946   .     S
O534   Zn563   1.946   .     S
O535   Zn564   1.937   .     S
O536   Zn567   1.937   .     S
O537   Zn282   1.937   1_655 S
O538   Zn561   1.937   .     S
O539   Zn1121  1.937   .     S
O540   Zn278   1.937   1_655 S
O541   Zn563   1.937   .     S
O542   Zn553   1.937   .     S
O543   Zn1129  1.937   .     S
O544   Zn566   1.937   .     S
O545   Zn560   1.940   .     S
O545   C909    1.282   .     A
O546   Zn283   1.937   1_655 S
O547   Zn1132  1.937   .     S
O548   Zn565   1.937   .     S
O549   Zn559   1.940   .     S
O550   Zn554   1.940   .     S
O551   Zn568   1.940   .     S
O551   C60     1.282   1_655 S
O552   Zn556   1.940   .     S
Zn553  O1107   1.937   1_545 S
Zn555  O1080   1.946   .     S
Zn558  O239    1.946   1_655 S
Zn560  O1069   1.946   .     S
Zn561  O1111   1.937   1_545 S
Zn564  O1115   1.937   1_545 S
Zn565  O1101   1.937   1_545 S
Zn568  O250    1.946   1_655 S
C569   C616    1.398   .     A
C569   C598    1.398   .     A
C569   F689    1.359   .     S
C570   F690    1.359   .     S
C570   C608    1.398   .     A
C570   C621    1.398   .     A
C571   C664    1.402   .     A
C571   C671    1.402   .     A
C571   C635    1.456   .     S
C572   C636    1.456   .     S
C572   C663    1.402   .     A
C572   C674    1.402   .     A
C573   C662    1.402   .     A
C573   C637    1.456   .     S
C573   C673    1.402   .     A
C574   C661    1.402   .     A
C574   C638    1.456   .     S
C574   C676    1.402   .     A
C575   C639    1.456   .     S
C575   C660    1.402   .     A
C575   C675    1.402   .     A
C576   C649    1.456   .     S
C576   C679    1.402   .     A
C576   C659    1.402   .     A
C577   C650    1.456   .     S
C577   C677    1.402   .     A
C577   C658    1.402   .     A
C578   C657    1.402   .     A
C578   C681    1.402   .     A
C578   C642    1.456   .     S
C579   C680    1.402   .     A
C579   C643    1.456   .     S
C579   C655    1.402   .     A
C580   C683    1.402   .     A
C580   C644    1.456   .     S
C580   C654    1.402   .     A
C581   C609    1.398   .     A
C581   F691    1.359   .     S
C581   C54     1.398   1_565 S
C582   C646    1.456   .     S
C582   C653    1.402   .     A
C582   C682    1.402   .     A
C583   C647    1.456   .     S
C583   C685    1.402   .     A
C583   C652    1.402   .     A
C584   C684    1.402   .     A
C584   C648    1.456   .     S
C584   C651    1.402   .     A
C585   C603    1.413   .     S
C585   C632    1.470   .     S
C586   C631    1.470   .     S
C586   C604    1.413   .     S
C587   C914    1.470   .     S
C587   C600    1.413   .     A
C587   C889    1.413   .     S
C588   C886    1.413   1_455 A
C588   C606    1.413   .     S
C588   C629    1.470   .     S
C589   C611    1.413   .     A
C589   C628    1.469   .     S
C589   C891    1.413   1_455 S
C590   C627    1.470   .     S
C590   C608    1.413   .     A
C590   C897    1.413   1_455 S
C591   C626    1.470   .     S
C591   C614    1.413   .     A
C592   C610    1.398   .     A
C592   F692    1.359   .     S
C592   C624    1.398   .     A
C593   C625    1.470   .     S
C593   C610    1.413   .     S
C594   C620    1.398   .     A
C594   C611    1.398   .     A
C594   F693    1.359   .     S
C595   F694    1.359   .     S
C595   C613    1.398   .     A
C595   C905    1.398   .     S
C596   C614    1.398   .     A
C596   F695    1.359   .     S
C596   C622    1.398   .     A
C597   C615    1.398   .     A
C597   F696    1.359   .     S
C597   C56     1.398   1_565 S
C598   C17     1.413   1_565 A
C598   N769    1.434   .     S
C599   C601    1.398   .     A
C599   C18     1.413   1_565 A
C599   N777    1.434   .     S
C600   N778    1.434   .     S
C600   C612    1.398   .     A
C601   C617    1.398   .     A
C601   F697    1.359   .     S
C602   C872    1.413   .     A
C602   C623    1.398   .     A
C602   N779    1.434   .     S
C603   C634    1.398   .     A
C603   N780    1.434   .     S
C604   C645    1.398   .     A
C604   N781    1.434   .     S
C605   C656    1.398   .     A
C605   N782    1.434   .     S
C605   C871    1.413   1_455 S
C606   N783    1.434   .     S
C606   C667    1.398   .     A
C607   C678    1.398   .     A
C607   N784    1.434   .     S
C607   C873    1.413   .     S
C608   N770    1.434   .     S
C609   N771    1.434   .     S
C609   C23     1.413   1_565 S
C610   N772    1.434   .     S
C611   N773    1.434   .     S
C612   F698    1.359   .     S
C612   C618    1.398   .     A
C613   N774    1.434   .     S
C613   C874    1.413   .     S
C614   N775    1.434   .     S
C615   C25     1.413   1_565 A
C615   N776    1.434   .     S
C616   C617    1.461   1_554 S
C616   C66     1.398   1_565 S
C617   C616    1.461   1_556 S
C617   C77     1.398   1_565 S
C618   C619    1.461   1_554 S
C618   C940    1.398   .     S
C619   C623    1.398   .     A
C619   C618    1.461   1_556 S
C619   C951    1.398   .     S
C620   C621    1.461   .     S
C620   C962    1.398   1_455 S
C621   C879    1.398   1_455 S
C622   C624    1.461   .     S
C623   F699    1.359   .     S
C625   O836    1.282   .     S
C626   O833    1.282   .     A
C627   O834    1.282   .     A
C627   O1071   1.282   1_455 S
C628   O788    1.282   .     A
C628   O1119   1.282   1_455 S
C629   O789    1.282   .     A
C629   O793    1.282   .     A
C630   C871    1.470   1_455 S
C630   O790    1.282   .     S
C630   O794    1.282   .     S
C631   O791    1.282   .     S
C631   O795    1.282   .     S
C632   O797    1.282   .     A
C632   O792    1.282   .     A
C633   O826    1.280   .     A
C633   C688    1.456   .     S
C633   O798    1.280   .     A
C634   F700    1.359   .     S
C635   O799    1.280   .     A
C635   O827    1.280   .     A
C636   O824    1.280   .     A
C636   O800    1.280   .     A
C637   O801    1.280   .     A
C637   O825    1.280   .     A
C638   O802    1.280   .     A
C638   O831    1.280   .     A
C639   O803    1.280   .     A
C639   O832    1.280   .     A
C640   O828    1.280   .     A
C640   C686    1.456   .     S
C640   O804    1.280   .     A
C641   C687    1.456   .     S
C641   O805    1.280   .     A
C641   O830    1.280   .     A
C642   O806    1.280   .     A
C642   O817    1.280   .     A
C643   O808    1.280   .     A
C643   O819    1.280   .     A
C644   O809    1.280   .     A
C644   O815    1.280   .     A
C645   F701    1.359   .     S
C646   O810    1.280   .     A
C646   O816    1.280   .     A
C647   O822    1.280   .     A
C647   O811    1.280   .     A
C648   O823    1.280   .     A
C648   O812    1.280   .     A
C649   O813    1.280   .     A
C649   O820    1.280   .     A
C650   O821    1.280   .     A
C650   O814    1.280   .     A
C651   H705    1.083   .     S
C651   C668    1.386   .     A
C652   C666    1.386   .     A
C652   H716    1.083   .     S
C653   C665    1.386   .     A
C653   H727    1.083   .     S
C654   C664    1.386   .     A
C654   H738    1.083   .     S
C655   H749    1.083   .     S
C655   C663    1.386   .     A
C656   F702    1.359   .     S
C656   C902    1.398   1_455 S
C657   C662    1.386   .     A
C657   H760    1.083   .     S
C658   C661    1.386   .     A
C658   H766    1.083   .     S
C659   C660    1.386   .     A
C659   H767    1.083   .     S
C660   H768    1.083   .     S
C661   H706    1.083   .     S
C662   H707    1.083   .     S
C663   H708    1.083   .     S
C664   H709    1.083   .     S
C665   C688    1.402   .     A
C665   H710    1.083   .     S
C666   H711    1.083   .     S
C666   C687    1.402   .     A
C667   F703    1.359   .     S
C667   C903    1.398   1_455 S
C668   H712    1.083   .     S
C668   C686    1.402   .     A
C669   H713    1.083   .     S
C669   C687    1.402   .     A
C669   C685    1.386   .     A
C670   C686    1.402   .     A
C670   H714    1.083   .     S
C670   C684    1.386   .     A
C671   H715    1.083   .     S
C671   C683    1.386   .     A
C672   H717    1.083   .     S
C672   C682    1.386   .     A
C672   C688    1.402   .     A
C673   C681    1.386   .     A
C673   H718    1.083   .     S
C674   C680    1.386   .     A
C674   H719    1.083   .     S
C675   H720    1.083   .     S
C675   C679    1.386   .     A
C676   C677    1.386   .     A
C676   H721    1.083   .     S
C677   H722    1.083   .     S
C678   F704    1.359   .     S
C678   C904    1.398   .     S
C679   H723    1.083   .     S
C680   H724    1.083   .     S
C681   H725    1.083   .     S
C682   H726    1.083   .     S
C683   H728    1.083   .     S
C684   H729    1.083   .     S
C685   H730    1.083   .     S
H731   N769    1.046   .     S
H732   N769    1.046   .     S
H733   N777    1.046   .     S
H734   N777    1.046   .     S
H735   N778    1.046   .     S
H736   N778    1.046   .     S
H737   N779    1.046   .     S
H739   N779    1.046   .     S
H740   N780    1.046   .     S
H741   N780    1.046   .     S
H742   N781    1.046   .     S
H743   N781    1.046   .     S
H744   N782    1.046   .     S
H745   N782    1.046   .     S
H746   N783    1.046   .     S
H747   N783    1.046   .     S
H748   N784    1.046   .     S
H750   N784    1.046   .     S
H751   N770    1.046   .     S
H752   N770    1.046   .     S
H753   N771    1.046   .     S
H754   N771    1.046   .     S
H755   N772    1.046   .     S
H756   N772    1.046   .     S
H757   N773    1.046   .     S
H758   N773    1.046   .     S
H759   N774    1.046   .     S
H761   N774    1.046   .     S
H762   N775    1.046   .     S
H763   N775    1.046   .     S
H764   N776    1.046   .     S
H765   N776    1.046   .     S
O785   Zn848   1.946   .     S
O785   Zn840   1.946   .     S
O785   Zn837   1.946   .     S
O786   Zn839   1.940   .     S
O786   C58     1.282   1_565 S
O787   Zn842   1.940   .     S
O787   C911    1.282   .     S
O788   Zn841   1.940   .     S
O789   Zn851   1.940   .     S
O790   Zn850   1.940   .     S
O791   Zn845   1.940   .     S
O792   Zn837   1.940   .     S
O793   Zn847   1.940   .     S
O794   Zn846   1.940   .     S
O795   Zn849   1.940   .     S
O796   Zn849   1.946   .     S
O796   Zn845   1.946   .     S
O796   Zn843   1.946   .     S
O797   Zn848   1.940   .     S
O798   Zn840   1.937   .     S
O799   Zn839   1.937   .     S
O800   Zn842   1.937   .     S
O801   Zn841   1.937   .     S
O802   Zn844   1.937   .     S
O803   Zn843   1.937   .     S
O804   Zn838   1.937   .     S
O805   Zn852   1.937   .     S
O806   Zn839   1.937   .     S
O807   Zn850   1.946   .     S
O807   Zn1126  1.946   1_455 S
O807   Zn838   1.946   .     S
O807   Zn846   1.946   .     S
O808   Zn840   1.937   .     S
O809   Zn852   1.937   .     S
O810   Zn838   1.937   .     S
O811   Zn843   1.937   .     S
O812   Zn844   1.937   .     S
O813   Zn841   1.937   .     S
O814   Zn842   1.937   .     S
O815   Zn1131  1.937   .     S
O816   Zn846   1.937   .     S
O817   Zn281   1.937   1_565 S
O818   Zn851   1.946   .     S
O818   Zn841   1.946   .     S
O818   Zn847   1.946   .     S
O818   Zn1136  1.946   1_455 S
O819   Zn848   1.937   .     S
O820   Zn851   1.937   .     S
O821   Zn1134  1.937   .     S
O822   Zn845   1.937   .     S
O823   Zn269   1.937   1_565 S
O824   Zn1130  1.937   .     S
O825   Zn847   1.937   .     S
O826   Zn837   1.937   .     S
O827   Zn277   1.937   1_565 S
O828   Zn850   1.937   .     S
O829   Zn844   1.940   .     S
O829   C57     1.282   1_565 A
O830   Zn1135  1.937   .     S
O831   Zn280   1.937   1_565 S
O832   Zn849   1.937   .     S
O833   Zn843   1.940   .     S
O834   Zn838   1.940   .     S
O835   Zn852   1.940   .     S
O835   C912    1.282   .     S
O836   Zn840   1.940   .     S
Zn839  O228    1.946   1_565 S
Zn842  O1091   1.946   .     S
Zn844  O217    1.946   1_565 S
Zn846  O1108   1.937   1_455 S
Zn847  O1099   1.937   1_455 S
Zn850  O1105   1.937   1_455 S
Zn851  O1114   1.937   1_455 S
Zn852  O1102   1.946   .     S
C853   C900    1.398   .     A
C853   C882    1.398   .     A
C853   F973    1.359   .     S
C854   F974    1.359   .     S
C854   C892    1.398   .     A
C854   C905    1.398   .     A
C855   C948    1.402   .     A
C855   C955    1.402   .     A
C855   C919    1.456   .     S
C856   C920    1.456   .     S
C856   C947    1.402   .     A
C856   C958    1.402   .     A
C857   C946    1.402   .     A
C857   C921    1.456   .     S
C857   C957    1.402   .     A
C858   C945    1.402   .     A
C858   C922    1.456   .     S
C858   C960    1.402   .     A
C859   C923    1.456   .     S
C859   C944    1.402   .     A
C859   C959    1.402   .     A
C860   C933    1.456   .     S
C860   C963    1.402   .     A
C860   C943    1.402   .     A
C861   C934    1.456   .     S
C861   C961    1.402   .     A
C861   C942    1.402   .     A
C862   C941    1.402   .     A
C862   C965    1.402   .     A
C862   C926    1.456   .     S
C863   C964    1.402   .     A
C863   C927    1.456   .     S
C863   C939    1.402   .     A
C864   C967    1.402   .     A
C864   C928    1.456   .     S
C864   C938    1.402   .     A
C865   C893    1.398   .     A
C865   F975    1.359   .     S
C865   C338    1.398   1_565 S
C866   C930    1.456   .     S
C866   C937    1.402   .     A
C866   C966    1.402   .     A
C867   C931    1.456   .     S
C867   C969    1.402   .     A
C867   C936    1.402   .     A
C868   C968    1.402   .     A
C868   C932    1.456   .     S
C868   C935    1.402   .     A
C869   C887    1.413   .     S
C869   C916    1.470   .     S
C870   C915    1.470   .     S
C870   C888    1.413   .     S
C871   C630    1.470   1_655 S
C871   C884    1.413   .     A
C871   C605    1.413   1_655 S
C872   C890    1.413   .     S
C872   C913    1.470   .     S
C873   C895    1.413   .     A
C873   C912    1.469   .     S
C874   C911    1.470   .     S
C874   C892    1.413   .     A
C875   C910    1.470   .     S
C875   C898    1.413   .     A
C876   C894    1.398   .     A
C876   F976    1.359   .     S
C876   C908    1.398   .     A
C877   C909    1.470   .     S
C877   C894    1.413   .     S
C878   C904    1.398   .     A
C878   C895    1.398   .     A
C878   F977    1.359   .     S
C879   F978    1.359   .     S
C879   C897    1.398   .     A
C879   C621    1.398   1_655 S
C880   C898    1.398   .     A
C880   F979    1.359   .     S
C880   C906    1.398   .     A
C881   C899    1.398   .     A
C881   F980    1.359   .     S
C881   C340    1.398   1_565 S
C882   C301    1.413   1_565 A
C882   N1053   1.434   .     S
C883   C885    1.398   .     A
C883   C302    1.413   1_565 A
C883   N1061   1.434   .     S
C884   N1062   1.434   .     S
C884   C896    1.398   .     A
C885   C901    1.398   .     A
C885   F981    1.359   .     S
C886   C588    1.413   1_655 A
C886   C907    1.398   .     A
C886   N1063   1.434   .     S
C887   C918    1.398   .     A
C887   N1064   1.434   .     S
C888   C929    1.398   .     A
C888   N1065   1.434   .     S
C889   C940    1.398   .     A
C889   N1066   1.434   .     S
C890   N1067   1.434   .     S
C890   C951    1.398   .     A
C891   C962    1.398   .     A
C891   N1068   1.434   .     S
C891   C589    1.413   1_655 S
C892   N1054   1.434   .     S
C893   N1055   1.434   .     S
C893   C307    1.413   1_565 S
C894   N1056   1.434   .     S
C895   N1057   1.434   .     S
C896   F982    1.359   .     S
C896   C902    1.398   .     A
C897   N1058   1.434   .     S
C897   C590    1.413   1_655 S
C898   N1059   1.434   .     S
C899   C309    1.413   1_565 A
C899   N1060   1.434   .     S
C900   C901    1.461   1_554 S
C900   C350    1.398   1_565 S
C901   C900    1.461   1_556 S
C901   C361    1.398   1_565 S
C902   C903    1.461   1_554 S
C902   C656    1.398   1_655 S
C903   C907    1.398   .     A
C903   C902    1.461   1_556 S
C903   C667    1.398   1_655 S
C904   C905    1.461   .     S
C906   C908    1.461   .     S
C907   F983    1.359   .     S
C909   O1120   1.282   .     S
C910   O1117   1.282   .     A
C911   O1118   1.282   .     A
C912   O1072   1.282   .     A
C913   O1073   1.282   .     A
C913   O1077   1.282   .     A
C914   O1074   1.282   .     S
C914   O1078   1.282   .     S
C915   O1075   1.282   .     S
C915   O1079   1.282   .     S
C916   O1081   1.282   .     A
C916   O1076   1.282   .     A
C917   O1110   1.280   .     A
C917   C972    1.456   .     S
C917   O1082   1.280   .     A
C918   F984    1.359   .     S
C919   O1083   1.280   .     A
C919   O1111   1.280   .     A
C920   O1108   1.280   .     A
C920   O1084   1.280   .     A
C921   O1085   1.280   .     A
C921   O1109   1.280   .     A
C922   O1086   1.280   .     A
C922   O1115   1.280   .     A
C923   O1087   1.280   .     A
C923   O1116   1.280   .     A
C924   O1112   1.280   .     A
C924   C970    1.456   .     S
C924   O1088   1.280   .     A
C925   C971    1.456   .     S
C925   O1089   1.280   .     A
C925   O1114   1.280   .     A
C926   O1090   1.280   .     A
C926   O1101   1.280   .     A
C927   O1092   1.280   .     A
C927   O1103   1.280   .     A
C928   O1093   1.280   .     A
C928   O1099   1.280   .     A
C929   F985    1.359   .     S
C930   O1094   1.280   .     A
C930   O1100   1.280   .     A
C931   O1106   1.280   .     A
C931   O1095   1.280   .     A
C932   O1107   1.280   .     A
C932   O1096   1.280   .     A
C933   O1097   1.280   .     A
C933   O1104   1.280   .     A
C934   O1105   1.280   .     A
C934   O1098   1.280   .     A
C935   H989    1.083   .     S
C935   C952    1.386   .     A
C936   C950    1.386   .     A
C936   H1000   1.083   .     S
C937   C949    1.386   .     A
C937   H1011   1.083   .     S
C938   C948    1.386   .     A
C938   H1022   1.083   .     S
C939   H1033   1.083   .     S
C939   C947    1.386   .     A
C940   F986    1.359   .     S
C941   C946    1.386   .     A
C941   H1044   1.083   .     S
C942   C945    1.386   .     A
C942   H1050   1.083   .     S
C943   C944    1.386   .     A
C943   H1051   1.083   .     S
C944   H1052   1.083   .     S
C945   H990    1.083   .     S
C946   H991    1.083   .     S
C947   H992    1.083   .     S
C948   H993    1.083   .     S
C949   C972    1.402   .     A
C949   H994    1.083   .     S
C950   H995    1.083   .     S
C950   C971    1.402   .     A
C951   F987    1.359   .     S
C952   H996    1.083   .     S
C952   C970    1.402   .     A
C953   H997    1.083   .     S
C953   C971    1.402   .     A
C953   C969    1.386   .     A
C954   C970    1.402   .     A
C954   H998    1.083   .     S
C954   C968    1.386   .     A
C955   H999    1.083   .     S
C955   C967    1.386   .     A
C956   H1001   1.083   .     S
C956   C966    1.386   .     A
C956   C972    1.402   .     A
C957   C965    1.386   .     A
C957   H1002   1.083   .     S
C958   C964    1.386   .     A
C958   H1003   1.083   .     S
C959   H1004   1.083   .     S
C959   C963    1.386   .     A
C960   C961    1.386   .     A
C960   H1005   1.083   .     S
C961   H1006   1.083   .     S
C962   F988    1.359   .     S
C962   C620    1.398   1_655 S
C963   H1007   1.083   .     S
C964   H1008   1.083   .     S
C965   H1009   1.083   .     S
C966   H1010   1.083   .     S
C967   H1012   1.083   .     S
C968   H1013   1.083   .     S
C969   H1014   1.083   .     S
H1015  N1053   1.046   .     S
H1016  N1053   1.046   .     S
H1017  N1061   1.046   .     S
H1018  N1061   1.046   .     S
H1019  N1062   1.046   .     S
H1020  N1062   1.046   .     S
H1021  N1063   1.046   .     S
H1023  N1063   1.046   .     S
H1024  N1064   1.046   .     S
H1025  N1064   1.046   .     S
H1026  N1065   1.046   .     S
H1027  N1065   1.046   .     S
H1028  N1066   1.046   .     S
H1029  N1066   1.046   .     S
H1030  N1067   1.046   .     S
H1031  N1067   1.046   .     S
H1032  N1068   1.046   .     S
H1034  N1068   1.046   .     S
H1035  N1054   1.046   .     S
H1036  N1054   1.046   .     S
H1037  N1055   1.046   .     S
H1038  N1055   1.046   .     S
H1039  N1056   1.046   .     S
H1040  N1056   1.046   .     S
H1041  N1057   1.046   .     S
H1042  N1057   1.046   .     S
H1043  N1058   1.046   .     S
H1045  N1058   1.046   .     S
H1046  N1059   1.046   .     S
H1047  N1059   1.046   .     S
H1048  N1060   1.046   .     S
H1049  N1060   1.046   .     S
O1069  Zn1132  1.946   .     S
O1069  Zn1124  1.946   .     S
O1069  Zn1121  1.946   .     S
O1070  Zn1123  1.940   .     S
O1070  C342    1.282   1_565 S
O1071  Zn1126  1.940   .     S
O1071  C627    1.282   1_655 S
O1072  Zn1125  1.940   .     S
O1073  Zn1135  1.940   .     S
O1074  Zn1134  1.940   .     S
O1075  Zn1129  1.940   .     S
O1076  Zn1121  1.940   .     S
O1077  Zn1131  1.940   .     S
O1078  Zn1130  1.940   .     S
O1079  Zn1133  1.940   .     S
O1080  Zn1133  1.946   .     S
O1080  Zn1129  1.946   .     S
O1080  Zn1127  1.946   .     S
O1081  Zn1132  1.940   .     S
O1082  Zn1124  1.937   .     S
O1083  Zn1123  1.937   .     S
O1084  Zn1126  1.937   .     S
O1085  Zn1125  1.937   .     S
O1086  Zn1128  1.937   .     S
O1087  Zn1127  1.937   .     S
O1088  Zn1122  1.937   .     S
O1089  Zn1136  1.937   .     S
O1090  Zn1123  1.937   .     S
O1091  Zn1134  1.946   .     S
O1091  Zn1122  1.946   .     S
O1091  Zn1130  1.946   .     S
O1092  Zn1124  1.937   .     S
O1093  Zn1136  1.937   .     S
O1094  Zn1122  1.937   .     S
O1095  Zn1127  1.937   .     S
O1096  Zn1128  1.937   .     S
O1097  Zn1125  1.937   .     S
O1098  Zn1126  1.937   .     S
O1099  Zn847   1.937   1_655 S
O1100  Zn1130  1.937   .     S
O1101  Zn565   1.937   1_565 S
O1102  Zn1135  1.946   .     S
O1102  Zn1125  1.946   .     S
O1102  Zn1131  1.946   .     S
O1103  Zn1132  1.937   .     S
O1104  Zn1135  1.937   .     S
O1105  Zn850   1.937   1_655 S
O1106  Zn1129  1.937   .     S
O1107  Zn553   1.937   1_565 S
O1108  Zn846   1.937   1_655 S
O1109  Zn1131  1.937   .     S
O1110  Zn1121  1.937   .     S
O1111  Zn561   1.937   1_565 S
O1112  Zn1134  1.937   .     S
O1113  Zn1128  1.940   .     S
O1113  C341    1.282   1_565 A
O1114  Zn851   1.937   1_655 S
O1115  Zn564   1.937   1_565 S
O1116  Zn1133  1.937   .     S
O1117  Zn1127  1.940   .     S
O1118  Zn1122  1.940   .     S
O1119  Zn1136  1.940   .     S
O1119  C628    1.282   1_655 S
O1120  Zn1124  1.940   .     S
Zn1123 O512    1.946   1_565 S
Zn1126 O807    1.946   1_655 S
Zn1128 O501    1.946   1_565 S
Zn1136 O818    1.946   1_655 S
