data_str_m1_o5_o17_pcu_sym.31
_audit_creation_date              2020-01-03
_audit_creation_method            'Materials Studio'
_symmetry_space_group_name_H-M    'P1'
_symmetry_Int_Tables_number       1
_symmetry_cell_setting            triclinic
loop_
_symmetry_equiv_pos_as_xyz
  x,y,z
_cell_length_a                    31.7650
_cell_length_b                    31.8298
_cell_length_c                    34.3333
_cell_angle_alpha                 89.9157
_cell_angle_beta                  89.8672
_cell_angle_gamma                 89.9347
loop_
_atom_site_label
_atom_site_type_symbol
_atom_site_fract_x
_atom_site_fract_y
_atom_site_fract_z
_atom_site_U_iso_or_equiv
_atom_site_adp_type
_atom_site_occupancy
C1     C     0.24961   0.49984   0.35593   0.00000  Uiso   1.00
C2     C     0.33003   0.41999   0.75001   0.00000  Uiso   1.00
C3     C     0.42037   0.27233   0.01835   0.00000  Uiso   1.00
C4     C     0.20942   0.06706   0.98174   0.00000  Uiso   1.00
C5     C     0.26113   0.42241   0.01953   0.00000  Uiso   1.00
C6     C     0.42763   0.28442   0.97938   0.00000  Uiso   1.00
C7     C     0.05996   0.20743   0.02087   0.00000  Uiso   1.00
C8     C     0.03047   0.32326   0.40151   0.00000  Uiso   1.00
C9     C     0.07698   0.31091   0.40313   0.00000  Uiso   1.00
C10    C     0.02480   0.17669   0.59735   0.00000  Uiso   1.00
C11    C     0.07210   0.18573   0.59665   0.00000  Uiso   1.00
C12    C     0.17014   0.49680   0.40037   0.00000  Uiso   1.00
C13    C     0.41994   0.16998   0.25003   0.00000  Uiso   1.00
C14    C     0.16174   0.04352   0.39337   0.00000  Uiso   1.00
C15    C     0.32840   0.01769   0.60144   0.00000  Uiso   1.00
C16    C     0.34536   0.47447   0.61305   0.00000  Uiso   1.00
C17    C     0.49803   0.17080   0.39920   0.00000  Uiso   1.00
C18    C     0.04521   0.16288   0.39410   0.00000  Uiso   1.00
C19    C     0.01026   0.33052   0.60110   0.00000  Uiso   1.00
C20    C     0.05828   0.33130   0.60425   0.00000  Uiso   1.00
C21    C     0.32893   0.48901   0.39880   0.00000  Uiso   1.00
C22    C     0.33009   0.44107   0.39589   0.00000  Uiso   1.00
C23    C     0.17241   0.47919   0.60105   0.00000  Uiso   1.00
C24    C     0.08006   0.33002   0.74997   0.00000  Uiso   1.00
C25    C     0.15432   0.02212   0.61205   0.00000  Uiso   1.00
C26    C     0.18309   0.04924   0.89862   0.00000  Uiso   1.00
C27    C     0.14707   0.01746   0.89627   0.00000  Uiso   1.00
C28    C     0.30444   0.44144   0.09818   0.00000  Uiso   1.00
C29    C     0.34457   0.46800   0.09742   0.00000  Uiso   1.00
C30    C     0.41831   0.25824   0.89459   0.00000  Uiso   1.00
C31    C     0.40593   0.21300   0.88508   0.00000  Uiso   1.00
C32    C     0.07482   0.26058   0.09673   0.00000  Uiso   1.00
C33    C     0.07535   0.30860   0.09872   0.00000  Uiso   1.00
C34    C     0.31106   0.45039   0.90484   0.00000  Uiso   1.00
C35    C     0.33005   0.41997   0.24998   0.00000  Uiso   1.00
C36    C     0.34747   0.48179   0.90378   0.00000  Uiso   1.00
C37    C     0.22776   0.07611   0.10316   0.00000  Uiso   1.00
C38    C     0.27147   0.09438   0.11092   0.00000  Uiso   1.00
C39    C     0.07712   0.23769   0.90107   0.00000  Uiso   1.00
C40    C     0.09163   0.28248   0.89224   0.00000  Uiso   1.00
C41    C     0.42042   0.27231   0.10921   0.00000  Uiso   1.00
C42    C     0.41593   0.32015   0.10984   0.00000  Uiso   1.00
C43    C     0.42195   0.16218   0.46256   0.00000  Uiso   1.00
C44    C     0.38308   0.18705   0.47545   0.00000  Uiso   1.00
C45    C     0.43484   0.35143   0.53969   0.00000  Uiso   1.00
C46    C     0.16994   0.08002   0.75001   0.00000  Uiso   1.00
C47    C     0.39189   0.33286   0.52927   0.00000  Uiso   1.00
C48    C     0.34998   0.06376   0.45739   0.00000  Uiso   1.00
C49    C     0.39323   0.04616   0.46864   0.00000  Uiso   1.00
C50    C     0.18745   0.40298   0.54042   0.00000  Uiso   1.00
C51    C     0.22439   0.37312   0.53323   0.00000  Uiso   1.00
C52    C     0.46332   0.36801   0.45777   0.00000  Uiso   1.00
C53    C     0.49158   0.40575   0.46695   0.00000  Uiso   1.00
C54    C     0.45301   0.13893   0.54234   0.00000  Uiso   1.00
C55    C     0.47649   0.09877   0.53053   0.00000  Uiso   1.00
C56    C     0.16320   0.41810   0.45724   0.00000  Uiso   1.00
C57    C     0.08003   0.33004   0.25000   0.00000  Uiso   1.00
C58    C     0.11602   0.42436   0.46510   0.00000  Uiso   1.00
C59    C     0.32065   0.08981   0.53679   0.00000  Uiso   1.00
C60    C     0.29102   0.12445   0.52248   0.00000  Uiso   1.00
C61    C     0.25109   0.38508   0.95364   0.00000  Uiso   1.00
C62    C     0.20377   0.38231   0.94605   0.00000  Uiso   1.00
C63    C     0.15817   0.07732   0.03679   0.00000  Uiso   1.00
C64    C     0.12093   0.06091   0.01316   0.00000  Uiso   1.00
C65    C     0.06842   0.16016   0.96104   0.00000  Uiso   1.00
C66    C     0.03656   0.12571   0.97067   0.00000  Uiso   1.00
C67    C     0.37433   0.26713   0.02991   0.00000  Uiso   1.00
C68    C     0.41996   0.16997   0.75002   0.00000  Uiso   1.00
C69    C     0.36333   0.22082   0.03643   0.00000  Uiso   1.00
C70    C     0.21010   0.11193   0.96633   0.00000  Uiso   1.00
C71    C     0.23843   0.14022   0.99093   0.00000  Uiso   1.00
C72    C     0.25490   0.38038   0.04053   0.00000  Uiso   1.00
C73    C     0.29313   0.35082   0.03752   0.00000  Uiso   1.00
C74    C     0.40622   0.32372   0.96307   0.00000  Uiso   1.00
C75    C     0.41234   0.36178   0.98952   0.00000  Uiso   1.00
C76    C     0.09347   0.18232   0.04263   0.00000  Uiso   1.00
C77    C     0.13815   0.19705   0.03210   0.00000  Uiso   1.00
C78    C     0.16993   0.41999   0.75002   0.00000  Uiso   1.00
C79    C     0.33006   0.08002   0.24996   0.00000  Uiso   1.00
C80    C     0.41997   0.33001   0.74999   0.00000  Uiso   1.00
C81    C     0.24990   0.49997   0.64405   0.00000  Uiso   1.00
C82    C     0.08002   0.16998   0.25002   0.00000  Uiso   1.00
C83    C     0.33004   0.08004   0.74999   0.00000  Uiso   1.00
C84    C     0.16996   0.41996   0.25001   0.00000  Uiso   1.00
C85    C     0.08005   0.16997   0.74998   0.00000  Uiso   1.00
C86    C     0.41993   0.33002   0.25000   0.00000  Uiso   1.00
C87    C     0.13832   0.38833   0.25002   0.00000  Uiso   1.00
C88    C     0.36167   0.11168   0.75000   0.00000  Uiso   1.00
C89    C     0.11167   0.13833   0.25003   0.00000  Uiso   1.00
C90    C     0.38832   0.36166   0.74999   0.00000  Uiso   1.00
C91    C     0.36170   0.11165   0.24995   0.00000  Uiso   1.00
C92    C     0.49996   0.25045   0.35620   0.00000  Uiso   1.00
C93    C     0.13828   0.38836   0.75002   0.00000  Uiso   1.00
C94    C     0.38830   0.36164   0.24999   0.00000  Uiso   1.00
C95    C     0.11168   0.13834   0.74997   0.00000  Uiso   1.00
C96    C     0.13831   0.11165   0.75002   0.00000  Uiso   1.00
C97    C     0.36168   0.38833   0.24996   0.00000  Uiso   1.00
C98    C     0.11170   0.36165   0.74995   0.00000  Uiso   1.00
C99    C     0.38829   0.13835   0.25004   0.00000  Uiso   1.00
C100   C     0.36168   0.38834   0.75001   0.00000  Uiso   1.00
C101   C     0.13832   0.11165   0.25000   0.00000  Uiso   1.00
C102   C     0.38832   0.13833   0.75002   0.00000  Uiso   1.00
C103   C     0.00009   0.25052   0.64383   0.00000  Uiso   1.00
C104   C     0.11166   0.36169   0.25001   0.00000  Uiso   1.00
C105   C     0.00292   0.28920   0.41966   0.00000  Uiso   1.00
C106   C     0.49996   0.21323   0.58005   0.00000  Uiso   1.00
C107   C     0.21285   0.48968   0.41936   0.00000  Uiso   1.00
C108   C     0.28584   0.01426   0.58100   0.00000  Uiso   1.00
C109   C     0.48983   0.21294   0.41919   0.00000  Uiso   1.00
C110   C     0.49521   0.29036   0.58121   0.00000  Uiso   1.00
C111   C     0.28844   0.00392   0.41837   0.00000  Uiso   1.00
C112   C     0.21521   0.48329   0.58108   0.00000  Uiso   1.00
C113   C     0.22129   0.02982   0.91899   0.00000  Uiso   1.00
C114   C     0.49983   0.24998   0.85588   0.00000  Uiso   1.00
C115   C     0.26758   0.46553   0.08051   0.00000  Uiso   1.00
C116   C     0.45961   0.25971   0.91739   0.00000  Uiso   1.00
C117   C     0.03331   0.24455   0.08001   0.00000  Uiso   1.00
C118   C     0.27117   0.47088   0.92064   0.00000  Uiso   1.00
C119   C     0.23066   0.03364   0.08221   0.00000  Uiso   1.00
C120   C     0.03339   0.23728   0.91973   0.00000  Uiso   1.00
C121   C     0.45708   0.25840   0.08321   0.00000  Uiso   1.00
C122   C     0.49908   0.25065   0.39920   0.00000  Uiso   1.00
C123   C     0.49967   0.25152   0.60088   0.00000  Uiso   1.00
C124   C     0.25003   0.49903   0.39848   0.00000  Uiso   1.00
C125   C     0.49988   0.25014   0.14410   0.00000  Uiso   1.00
C126   C     0.25013   0.49965   0.60147   0.00000  Uiso   1.00
C127   C     0.24854   0.00140   0.89907   0.00000  Uiso   1.00
C128   C     0.25008   0.49966   0.10149   0.00000  Uiso   1.00
C129   C     0.49780   0.24978   0.89831   0.00000  Uiso   1.00
C130   C     0.49635   0.25052   0.10165   0.00000  Uiso   1.00
C131   C     0.48039   0.21473   0.45941   0.00000  Uiso   1.00
C132   C     0.48512   0.29023   0.54104   0.00000  Uiso   1.00
C133   C     0.28633   0.01318   0.45865   0.00000  Uiso   1.00
C134   C     0.21969   0.47552   0.54073   0.00000  Uiso   1.00
C135   C     0.48993   0.29112   0.45945   0.00000  Uiso   1.00
C136   C     0.24980   0.00055   0.85619   0.00000  Uiso   1.00
C137   C     0.48648   0.21311   0.54059   0.00000  Uiso   1.00
C138   C     0.21687   0.47887   0.45928   0.00000  Uiso   1.00
C139   C     0.28250   0.01991   0.54027   0.00000  Uiso   1.00
C140   C     0.25909   0.46384   0.95960   0.00000  Uiso   1.00
C141   C     0.22291   0.03019   0.04190   0.00000  Uiso   1.00
C142   C     0.02814   0.22848   0.95970   0.00000  Uiso   1.00
C143   C     0.45573   0.25877   0.04132   0.00000  Uiso   1.00
C144   C     0.22498   0.03266   0.95995   0.00000  Uiso   1.00
C145   C     0.25760   0.46105   0.04057   0.00000  Uiso   1.00
C146   C     0.46008   0.26426   0.95850   0.00000  Uiso   1.00
C147   C     0.25016   0.49928   0.14405   0.00000  Uiso   1.00
C148   C     0.02969   0.23308   0.04067   0.00000  Uiso   1.00
C149   C     0.48506   0.25269   0.47965   0.00000  Uiso   1.00
C150   C     0.48531   0.25205   0.52061   0.00000  Uiso   1.00
C151   C     0.25141   0.49666   0.47938   0.00000  Uiso   1.00
C152   C     0.25122   0.49737   0.52013   0.00000  Uiso   1.00
C153   C     0.24097   0.49736   0.98016   0.00000  Uiso   1.00
C154   C     0.24035   0.49613   0.02101   0.00000  Uiso   1.00
C155   C     0.49341   0.24590   0.97963   0.00000  Uiso   1.00
C156   C     0.49275   0.24583   0.02070   0.00000  Uiso   1.00
C157   C     0.46181   0.18109   0.47994   0.00000  Uiso   1.00
C158   C     0.16997   0.08001   0.25000   0.00000  Uiso   1.00
C159   C     0.47035   0.32610   0.52076   0.00000  Uiso   1.00
C160   C     0.31513   0.04006   0.47853   0.00000  Uiso   1.00
C161   C     0.19536   0.44530   0.52053   0.00000  Uiso   1.00
C162   C     0.47720   0.32854   0.47963   0.00000  Uiso   1.00
C163   C     0.46975   0.17733   0.52064   0.00000  Uiso   1.00
C164   C     0.19052   0.44952   0.47942   0.00000  Uiso   1.00
C165   C     0.30889   0.04742   0.51897   0.00000  Uiso   1.00
C166   C     0.26133   0.42400   0.97797   0.00000  Uiso   1.00
C167   C     0.19958   0.06043   0.02106   0.00000  Uiso   1.00
C168   C     0.05549   0.20158   0.98020   0.00000  Uiso   1.00
H169   H     0.08721   0.30795   0.43394   0.00000  Uiso   1.00
H170   H     0.02138   0.14752   0.58084   0.00000  Uiso   1.00
H171   H     0.15786   0.38818   0.53069   0.00000  Uiso   1.00
H172   H     0.48673   0.43066   0.44473   0.00000  Uiso   1.00
H173   H     0.02530   0.39676   0.46721   0.00000  Uiso   1.00
H174   H     0.48398   0.41919   0.49587   0.00000  Uiso   1.00
H175   H     0.46189   0.36285   0.42591   0.00000  Uiso   1.00
H176   H     0.43042   0.37644   0.46507   0.00000  Uiso   1.00
H177   H     0.47118   0.09136   0.49941   0.00000  Uiso   1.00
H178   H     0.01094   0.10181   0.53464   0.00000  Uiso   1.00
H179   H     0.46499   0.07200   0.54836   0.00000  Uiso   1.00
H180   H     0.45372   0.14284   0.57436   0.00000  Uiso   1.00
H181   H     0.16396   0.06109   0.42123   0.00000  Uiso   1.00
H182   H     0.41911   0.13454   0.53641   0.00000  Uiso   1.00
H183   H     0.10608   0.40835   0.49226   0.00000  Uiso   1.00
H184   H     0.10771   0.45809   0.46791   0.00000  Uiso   1.00
H185   H     0.09765   0.41066   0.44075   0.00000  Uiso   1.00
H186   H     0.16909   0.41951   0.42546   0.00000  Uiso   1.00
H187   H     0.17188   0.38538   0.46476   0.00000  Uiso   1.00
H188   H     0.25843   0.11801   0.53268   0.00000  Uiso   1.00
H189   H     0.29071   0.12676   0.49027   0.00000  Uiso   1.00
H190   H     0.30122   0.15517   0.53449   0.00000  Uiso   1.00
H191   H     0.31751   0.09007   0.56889   0.00000  Uiso   1.00
H192   H     0.18430   0.05710   0.37224   0.00000  Uiso   1.00
H193   H     0.35376   0.09813   0.53048   0.00000  Uiso   1.00
H194   H     0.18583   0.38185   0.97382   0.00000  Uiso   1.00
H195   H     0.19318   0.40962   0.92840   0.00000  Uiso   1.00
H196   H     0.19667   0.35309   0.92971   0.00000  Uiso   1.00
H197   H     0.26682   0.38519   0.92494   0.00000  Uiso   1.00
H198   H     0.26177   0.35568   0.96754   0.00000  Uiso   1.00
H199   H     0.12184   0.07332   0.98294   0.00000  Uiso   1.00
H200   H     0.12153   0.02602   0.01221   0.00000  Uiso   1.00
H201   H     0.09100   0.07100   0.02701   0.00000  Uiso   1.00
H202   H     0.15270   0.06695   0.06727   0.00000  Uiso   1.00
H203   H     0.12952   0.04770   0.38147   0.00000  Uiso   1.00
H204   H     0.15835   0.11204   0.03626   0.00000  Uiso   1.00
H205   H     0.03349   0.12111   0.00258   0.00000  Uiso   1.00
H206   H     0.00518   0.13416   0.95872   0.00000  Uiso   1.00
H207   H     0.04681   0.09562   0.95733   0.00000  Uiso   1.00
H208   H     0.06917   0.16228   0.92887   0.00000  Uiso   1.00
H209   H     0.10033   0.15006   0.96971   0.00000  Uiso   1.00
H210   H     0.36524   0.20361   0.00834   0.00000  Uiso   1.00
H211   H     0.38510   0.20543   0.05725   0.00000  Uiso   1.00
H212   H     0.33069   0.21824   0.04783   0.00000  Uiso   1.00
H213   H     0.36486   0.28751   0.05430   0.00000  Uiso   1.00
H214   H     0.16792   0.47913   0.37258   0.00000  Uiso   1.00
H215   H     0.35308   0.27756   0.00626   0.00000  Uiso   1.00
H216   H     0.22609   0.14334   0.02105   0.00000  Uiso   1.00
H217   H     0.27086   0.12715   0.99205   0.00000  Uiso   1.00
H218   H     0.23976   0.17206   0.97772   0.00000  Uiso   1.00
H219   H     0.22313   0.11317   0.93632   0.00000  Uiso   1.00
H220   H     0.17774   0.12505   0.96587   0.00000  Uiso   1.00
H221   H     0.31891   0.36499   0.02003   0.00000  Uiso   1.00
H222   H     0.30541   0.34320   0.06696   0.00000  Uiso   1.00
H223   H     0.28385   0.32064   0.02383   0.00000  Uiso   1.00
H224   H     0.24663   0.38501   0.07166   0.00000  Uiso   1.00
H225   H     0.14419   0.48633   0.41921   0.00000  Uiso   1.00
H226   H     0.22682   0.36435   0.02847   0.00000  Uiso   1.00
H227   H     0.39550   0.35730   0.01751   0.00000  Uiso   1.00
H228   H     0.44636   0.36685   0.99529   0.00000  Uiso   1.00
H229   H     0.39935   0.39026   0.97516   0.00000  Uiso   1.00
H230   H     0.42007   0.33246   0.93445   0.00000  Uiso   1.00
H231   H     0.37206   0.31865   0.95845   0.00000  Uiso   1.00
H232   H     0.14884   0.18320   0.00425   0.00000  Uiso   1.00
H233   H     0.13992   0.23168   0.02879   0.00000  Uiso   1.00
H234   H     0.16048   0.18717   0.05522   0.00000  Uiso   1.00
H235   H     0.08900   0.18357   0.07460   0.00000  Uiso   1.00
H236   H     0.32536   0.45943   0.63552   0.00000  Uiso   1.00
H237   H     0.09052   0.14843   0.03617   0.00000  Uiso   1.00
H238   H     0.34708   0.45367   0.58712   0.00000  Uiso   1.00
H239   H     0.37753   0.47789   0.62523   0.00000  Uiso   1.00
H240   H     0.35286   0.03132   0.58216   0.00000  Uiso   1.00
H241   H     0.08295   0.28067   0.38814   0.00000  Uiso   1.00
H242   H     0.32592   0.03824   0.62745   0.00000  Uiso   1.00
H243   H     0.06010   0.18717   0.37554   0.00000  Uiso   1.00
H244   H     0.06096   0.16269   0.42296   0.00000  Uiso   1.00
H245   H     0.05021   0.13182   0.38012   0.00000  Uiso   1.00
H246   H     0.48630   0.14376   0.41636   0.00000  Uiso   1.00
H247   H     0.48194   0.16961   0.37054   0.00000  Uiso   1.00
H248   H     0.07032   0.30440   0.62141   0.00000  Uiso   1.00
H249   H     0.07261   0.33029   0.57471   0.00000  Uiso   1.00
H250   H     0.06835   0.36076   0.61879   0.00000  Uiso   1.00
H251   H     0.00206   0.35922   0.58455   0.00000  Uiso   1.00
H252   H     0.09629   0.33562   0.38884   0.00000  Uiso   1.00
H253   H     0.49575   0.33363   0.63042   0.00000  Uiso   1.00
H254   H     0.32876   0.42695   0.42549   0.00000  Uiso   1.00
H255   H     0.30345   0.42880   0.37858   0.00000  Uiso   1.00
H256   H     0.35987   0.43106   0.38165   0.00000  Uiso   1.00
H257   H     0.33234   0.00332   0.36944   0.00000  Uiso   1.00
H258   H     0.35727   0.49720   0.41527   0.00000  Uiso   1.00
H259   H     0.17356   0.03770   0.63467   0.00000  Uiso   1.00
H260   H     0.15272   0.04271   0.58593   0.00000  Uiso   1.00
H261   H     0.12199   0.01811   0.62383   0.00000  Uiso   1.00
H262   H     0.14873   0.46479   0.58150   0.00000  Uiso   1.00
H263   H     0.02090   0.32951   0.37095   0.00000  Uiso   1.00
H264   H     0.17486   0.45896   0.62733   0.00000  Uiso   1.00
H265   H     0.15738   0.48720   0.88344   0.00000  Uiso   1.00
H266   H     0.13462   0.01103   0.92596   0.00000  Uiso   1.00
H267   H     0.12121   0.03056   0.87823   0.00000  Uiso   1.00
H268   H     0.16950   0.07629   0.91413   0.00000  Uiso   1.00
H269   H     0.19151   0.06182   0.86950   0.00000  Uiso   1.00
H270   H     0.35436   0.47380   0.06679   0.00000  Uiso   1.00
H271   H     0.34006   0.49879   0.11187   0.00000  Uiso   1.00
H272   H     0.37029   0.45086   0.11251   0.00000  Uiso   1.00
H273   H     0.29705   0.43083   0.12823   0.00000  Uiso   1.00
H274   H     0.02871   0.35338   0.41677   0.00000  Uiso   1.00
H275   H     0.31259   0.41312   0.08173   0.00000  Uiso   1.00
H276   H     0.42958   0.19752   0.86622   0.00000  Uiso   1.00
H277   H     0.40250   0.19454   0.91240   0.00000  Uiso   1.00
H278   H     0.37531   0.21284   0.86954   0.00000  Uiso   1.00
H279   H     0.39132   0.27100   0.91096   0.00000  Uiso   1.00
H280   H     0.42078   0.27708   0.86743   0.00000  Uiso   1.00
H281   H     0.07150   0.32205   0.06906   0.00000  Uiso   1.00
H282   H     0.04994   0.32091   0.11765   0.00000  Uiso   1.00
H283   H     0.10598   0.31932   0.11065   0.00000  Uiso   1.00
H284   H     0.08073   0.24690   0.12600   0.00000  Uiso   1.00
H285   H     0.08306   0.18950   0.56608   0.00000  Uiso   1.00
H286   H     0.10199   0.25250   0.07852   0.00000  Uiso   1.00
H287   H     0.33940   0.01051   0.88711   0.00000  Uiso   1.00
H288   H     0.35583   0.49124   0.93393   0.00000  Uiso   1.00
H289   H     0.37544   0.46687   0.89010   0.00000  Uiso   1.00
H290   H     0.32218   0.42460   0.92402   0.00000  Uiso   1.00
H291   H     0.30553   0.43649   0.87567   0.00000  Uiso   1.00
H292   H     0.28980   0.07438   0.13116   0.00000  Uiso   1.00
H293   H     0.28915   0.09762   0.08311   0.00000  Uiso   1.00
H294   H     0.26824   0.12598   0.12428   0.00000  Uiso   1.00
H295   H     0.21146   0.10052   0.08605   0.00000  Uiso   1.00
H296   H     0.07999   0.21465   0.61296   0.00000  Uiso   1.00
H297   H     0.20996   0.07306   0.13087   0.00000  Uiso   1.00
H298   H     0.07132   0.29772   0.87017   0.00000  Uiso   1.00
H299   H     0.09124   0.30161   0.91929   0.00000  Uiso   1.00
H300   H     0.12431   0.28179   0.88069   0.00000  Uiso   1.00
H301   H     0.10138   0.22437   0.92072   0.00000  Uiso   1.00
H302   H     0.07738   0.21858   0.87403   0.00000  Uiso   1.00
H303   H     0.38682   0.32902   0.12582   0.00000  Uiso   1.00
H304   H     0.44332   0.33442   0.12486   0.00000  Uiso   1.00
H305   H     0.41441   0.33329   0.08001   0.00000  Uiso   1.00
H306   H     0.39083   0.25623   0.10233   0.00000  Uiso   1.00
H307   H     0.08938   0.15902   0.61002   0.00000  Uiso   1.00
H308   H     0.42428   0.26208   0.13984   0.00000  Uiso   1.00
H309   H     0.37902   0.18606   0.50753   0.00000  Uiso   1.00
H310   H     0.38600   0.22038   0.46616   0.00000  Uiso   1.00
H311   H     0.35449   0.17369   0.46173   0.00000  Uiso   1.00
H312   H     0.42196   0.16319   0.43031   0.00000  Uiso   1.00
H313   H     0.41850   0.12888   0.47064   0.00000  Uiso   1.00
H314   H     0.38717   0.33147   0.49731   0.00000  Uiso   1.00
H315   H     0.38918   0.30051   0.54122   0.00000  Uiso   1.00
H316   H     0.36652   0.35248   0.54215   0.00000  Uiso   1.00
H317   H     0.43619   0.35066   0.57189   0.00000  Uiso   1.00
H318   H     0.01418   0.16994   0.62756   0.00000  Uiso   1.00
H319   H     0.43597   0.38502   0.53148   0.00000  Uiso   1.00
H320   H     0.41753   0.05779   0.44799   0.00000  Uiso   1.00
H321   H     0.40172   0.05613   0.49850   0.00000  Uiso   1.00
H322   H     0.39363   0.01130   0.46827   0.00000  Uiso   1.00
H323   H     0.34601   0.06357   0.42539   0.00000  Uiso   1.00
H324   H     0.34908   0.09761   0.46425   0.00000  Uiso   1.00
H325   H     0.21763   0.34215   0.54678   0.00000  Uiso   1.00
H326   H     0.25350   0.38604   0.54652   0.00000  Uiso   1.00
H327   H     0.23003   0.36839   0.50165   0.00000  Uiso   1.00
H328   H     0.18446   0.40565   0.57239   0.00000  Uiso   1.00
O329   O     0.25000  -0.00000   0.25000   0.00000  Uiso   1.00
O330   O     0.25000   0.46538   0.66251   0.00000  Uiso   1.00
O331   O     0.46539   0.25000   0.33749   0.00000  Uiso   1.00
O332   O     0.03462   0.25000   0.66251   0.00000  Uiso   1.00
O333   O     0.00000   0.21539   0.83749   0.00000  Uiso   1.00
O334   O     0.00000   0.28461   0.16251   0.00000  Uiso   1.00
O335   O     0.28462  -0.00000   0.83749   0.00000  Uiso   1.00
O336   O     0.21539  -0.00000   0.16251   0.00000  Uiso   1.00
O337   O     0.00000   0.28462   0.83749   0.00000  Uiso   1.00
O338   O     0.00000   0.21539   0.16251   0.00000  Uiso   1.00
O339   O     0.21539  -0.00000   0.83749   0.00000  Uiso   1.00
O340   O     0.25000  -0.00000   0.75000   0.00000  Uiso   1.00
O341   O     0.28462  -0.00000   0.16251   0.00000  Uiso   1.00
O342   O     0.20127   0.08332   0.27298   0.00000  Uiso   1.00
O343   O     0.29874   0.41668   0.72702   0.00000  Uiso   1.00
O344   O     0.41668   0.20126   0.27298   0.00000  Uiso   1.00
O345   O     0.08332   0.29873   0.72702   0.00000  Uiso   1.00
O346   O     0.29874   0.41668   0.27298   0.00000  Uiso   1.00
O347   O     0.20127   0.08332   0.72702   0.00000  Uiso   1.00
O348   O     0.08332   0.29873   0.27298   0.00000  Uiso   1.00
O349   O     0.41668   0.20126   0.72702   0.00000  Uiso   1.00
O350   O     0.20127   0.41668   0.72702   0.00000  Uiso   1.00
O351   O     0.00000   0.25000   0.25000   0.00000  Uiso   1.00
O352   O     0.29874   0.08332   0.27298   0.00000  Uiso   1.00
O353   O     0.41668   0.29873   0.72702   0.00000  Uiso   1.00
O354   O     0.08332   0.20126   0.27298   0.00000  Uiso   1.00
O355   O     0.29874   0.08332   0.72702   0.00000  Uiso   1.00
O356   O     0.20127   0.41668   0.27298   0.00000  Uiso   1.00
O357   O     0.08332   0.20126   0.72702   0.00000  Uiso   1.00
O358   O     0.41668   0.29873   0.27298   0.00000  Uiso   1.00
O359   O     0.45127   0.33332   0.77298   0.00000  Uiso   1.00
O360   O     0.04874   0.16668   0.22702   0.00000  Uiso   1.00
O361   O     0.16668   0.45126   0.77298   0.00000  Uiso   1.00
O362   O     0.00000   0.25000   0.75000   0.00000  Uiso   1.00
O363   O     0.33332   0.04873   0.22702   0.00000  Uiso   1.00
O364   O     0.04874   0.16668   0.77298   0.00000  Uiso   1.00
O365   O     0.45127   0.33332   0.22702   0.00000  Uiso   1.00
O366   O     0.33332   0.04873   0.77298   0.00000  Uiso   1.00
O367   O     0.16668   0.45126   0.22702   0.00000  Uiso   1.00
O368   O     0.45127   0.16668   0.22702   0.00000  Uiso   1.00
O369   O     0.04874   0.33332   0.77298   0.00000  Uiso   1.00
O370   O     0.16668   0.04873   0.22702   0.00000  Uiso   1.00
O371   O     0.33332   0.45126   0.77298   0.00000  Uiso   1.00
O372   O     0.04874   0.33332   0.22702   0.00000  Uiso   1.00
O373   O     0.25000   0.46538   0.33749   0.00000  Uiso   1.00
O374   O     0.45127   0.16668   0.77298   0.00000  Uiso   1.00
O375   O     0.33332   0.45126   0.22702   0.00000  Uiso   1.00
O376   O     0.16668   0.04873   0.77298   0.00000  Uiso   1.00
O377   O     0.25000   0.03461   0.66251   0.00000  Uiso   1.00
O378   O     0.03462   0.25000   0.33749   0.00000  Uiso   1.00
O379   O     0.46539   0.25000   0.66251   0.00000  Uiso   1.00
O380   O     0.25000   0.03461   0.33749   0.00000  Uiso   1.00
Zn381  Zn    0.20053  -0.00000   0.21730   0.00000  Uiso   1.00
Zn382  Zn    0.04948   0.25000   0.28270   0.00000  Uiso   1.00
Zn383  Zn    0.25000   0.45052   0.71730   0.00000  Uiso   1.00
Zn384  Zn    0.25000   0.04947   0.28270   0.00000  Uiso   1.00
Zn385  Zn    0.04948   0.25000   0.71730   0.00000  Uiso   1.00
Zn386  Zn    0.45053   0.25000   0.28270   0.00000  Uiso   1.00
Zn387  Zn    0.25000   0.04947   0.71730   0.00000  Uiso   1.00
Zn388  Zn    0.25000   0.45052   0.28270   0.00000  Uiso   1.00
Zn389  Zn    0.29948  -0.00000   0.78270   0.00000  Uiso   1.00
Zn390  Zn    0.00000   0.20053   0.21730   0.00000  Uiso   1.00
Zn391  Zn    0.00000   0.29948   0.78270   0.00000  Uiso   1.00
Zn392  Zn    0.29948  -0.00000   0.21730   0.00000  Uiso   1.00
Zn393  Zn    0.20053  -0.00000   0.78270   0.00000  Uiso   1.00
Zn394  Zn    0.00000   0.29948   0.21730   0.00000  Uiso   1.00
Zn395  Zn    0.00000   0.20053   0.78270   0.00000  Uiso   1.00
Zn396  Zn    0.45053   0.25000   0.71730   0.00000  Uiso   1.00
C397   C     0.74961   0.49984   0.35593   0.00000  Uiso   1.00
C398   C     0.83003   0.41999   0.75001   0.00000  Uiso   1.00
C399   C     0.92037   0.27233   0.01835   0.00000  Uiso   1.00
C400   C     0.70942   0.06706   0.98174   0.00000  Uiso   1.00
C401   C     0.76113   0.42241   0.01953   0.00000  Uiso   1.00
C402   C     0.92763   0.28442   0.97938   0.00000  Uiso   1.00
C403   C     0.55996   0.20743   0.02087   0.00000  Uiso   1.00
C404   C     0.53047   0.32326   0.40151   0.00000  Uiso   1.00
C405   C     0.57698   0.31091   0.40313   0.00000  Uiso   1.00
C406   C     0.52480   0.17669   0.59735   0.00000  Uiso   1.00
C407   C     0.57210   0.18573   0.59665   0.00000  Uiso   1.00
C408   C     0.67014   0.49680   0.40037   0.00000  Uiso   1.00
C409   C     0.91994   0.16998   0.25003   0.00000  Uiso   1.00
C410   C     0.66174   0.04352   0.39337   0.00000  Uiso   1.00
C411   C     0.82840   0.01769   0.60144   0.00000  Uiso   1.00
C412   C     0.84536   0.47447   0.61305   0.00000  Uiso   1.00
C413   C     0.99803   0.17080   0.39920   0.00000  Uiso   1.00
C414   C     0.54521   0.16288   0.39410   0.00000  Uiso   1.00
C415   C     0.51026   0.33052   0.60110   0.00000  Uiso   1.00
C416   C     0.55828   0.33130   0.60425   0.00000  Uiso   1.00
C417   C     0.82893   0.48901   0.39880   0.00000  Uiso   1.00
C418   C     0.83009   0.44107   0.39589   0.00000  Uiso   1.00
C419   C     0.67241   0.47919   0.60105   0.00000  Uiso   1.00
C420   C     0.58006   0.33002   0.74997   0.00000  Uiso   1.00
C421   C     0.65432   0.02212   0.61205   0.00000  Uiso   1.00
C422   C     0.68309   0.04924   0.89862   0.00000  Uiso   1.00
C423   C     0.64707   0.01746   0.89627   0.00000  Uiso   1.00
C424   C     0.80444   0.44144   0.09818   0.00000  Uiso   1.00
C425   C     0.84457   0.46800   0.09742   0.00000  Uiso   1.00
C426   C     0.91831   0.25824   0.89459   0.00000  Uiso   1.00
C427   C     0.90593   0.21300   0.88508   0.00000  Uiso   1.00
C428   C     0.57482   0.26058   0.09673   0.00000  Uiso   1.00
C429   C     0.57535   0.30860   0.09872   0.00000  Uiso   1.00
C430   C     0.81106   0.45039   0.90484   0.00000  Uiso   1.00
C431   C     0.83005   0.41997   0.24998   0.00000  Uiso   1.00
C432   C     0.84747   0.48179   0.90378   0.00000  Uiso   1.00
C433   C     0.72776   0.07611   0.10316   0.00000  Uiso   1.00
C434   C     0.77147   0.09438   0.11092   0.00000  Uiso   1.00
C435   C     0.57712   0.23769   0.90107   0.00000  Uiso   1.00
C436   C     0.59163   0.28248   0.89224   0.00000  Uiso   1.00
C437   C     0.92042   0.27231   0.10921   0.00000  Uiso   1.00
C438   C     0.91593   0.32015   0.10984   0.00000  Uiso   1.00
C439   C     0.92195   0.16218   0.46256   0.00000  Uiso   1.00
C440   C     0.88308   0.18705   0.47545   0.00000  Uiso   1.00
C441   C     0.93484   0.35143   0.53969   0.00000  Uiso   1.00
C442   C     0.66994   0.08002   0.75001   0.00000  Uiso   1.00
C443   C     0.89189   0.33286   0.52927   0.00000  Uiso   1.00
C444   C     0.84998   0.06376   0.45739   0.00000  Uiso   1.00
C445   C     0.89323   0.04616   0.46864   0.00000  Uiso   1.00
C446   C     0.68745   0.40298   0.54042   0.00000  Uiso   1.00
C447   C     0.72439   0.37312   0.53323   0.00000  Uiso   1.00
C448   C     0.96332   0.36801   0.45777   0.00000  Uiso   1.00
C449   C     0.99158   0.40575   0.46695   0.00000  Uiso   1.00
C450   C     0.95301   0.13893   0.54234   0.00000  Uiso   1.00
C451   C     0.97649   0.09877   0.53053   0.00000  Uiso   1.00
C452   C     0.66320   0.41810   0.45724   0.00000  Uiso   1.00
C453   C     0.58003   0.33004   0.25000   0.00000  Uiso   1.00
C454   C     0.61602   0.42436   0.46510   0.00000  Uiso   1.00
C455   C     0.82065   0.08981   0.53679   0.00000  Uiso   1.00
C456   C     0.79102   0.12445   0.52248   0.00000  Uiso   1.00
C457   C     0.75109   0.38508   0.95364   0.00000  Uiso   1.00
C458   C     0.70377   0.38231   0.94605   0.00000  Uiso   1.00
C459   C     0.65817   0.07732   0.03679   0.00000  Uiso   1.00
C460   C     0.62093   0.06091   0.01316   0.00000  Uiso   1.00
C461   C     0.56842   0.16016   0.96104   0.00000  Uiso   1.00
C462   C     0.53656   0.12571   0.97067   0.00000  Uiso   1.00
C463   C     0.87433   0.26713   0.02991   0.00000  Uiso   1.00
C464   C     0.91996   0.16997   0.75002   0.00000  Uiso   1.00
C465   C     0.86333   0.22082   0.03643   0.00000  Uiso   1.00
C466   C     0.71010   0.11193   0.96633   0.00000  Uiso   1.00
C467   C     0.73843   0.14022   0.99093   0.00000  Uiso   1.00
C468   C     0.75490   0.38038   0.04053   0.00000  Uiso   1.00
C469   C     0.79313   0.35082   0.03752   0.00000  Uiso   1.00
C470   C     0.90622   0.32372   0.96307   0.00000  Uiso   1.00
C471   C     0.91234   0.36178   0.98952   0.00000  Uiso   1.00
C472   C     0.59347   0.18232   0.04263   0.00000  Uiso   1.00
C473   C     0.63815   0.19705   0.03210   0.00000  Uiso   1.00
C474   C     0.66993   0.41999   0.75002   0.00000  Uiso   1.00
C475   C     0.83006   0.08002   0.24996   0.00000  Uiso   1.00
C476   C     0.91997   0.33001   0.74999   0.00000  Uiso   1.00
C477   C     0.74990   0.49997   0.64405   0.00000  Uiso   1.00
C478   C     0.58002   0.16998   0.25002   0.00000  Uiso   1.00
C479   C     0.83004   0.08004   0.74999   0.00000  Uiso   1.00
C480   C     0.66996   0.41996   0.25001   0.00000  Uiso   1.00
C481   C     0.58005   0.16997   0.74998   0.00000  Uiso   1.00
C482   C     0.91993   0.33002   0.25000   0.00000  Uiso   1.00
C483   C     0.63832   0.38833   0.25002   0.00000  Uiso   1.00
C484   C     0.86167   0.11168   0.75000   0.00000  Uiso   1.00
C485   C     0.61167   0.13833   0.25003   0.00000  Uiso   1.00
C486   C     0.88832   0.36166   0.74999   0.00000  Uiso   1.00
C487   C     0.86170   0.11165   0.24995   0.00000  Uiso   1.00
C488   C     0.99996   0.25045   0.35620   0.00000  Uiso   1.00
C489   C     0.63828   0.38836   0.75002   0.00000  Uiso   1.00
C490   C     0.88830   0.36164   0.24999   0.00000  Uiso   1.00
C491   C     0.61168   0.13834   0.74997   0.00000  Uiso   1.00
C492   C     0.63831   0.11165   0.75002   0.00000  Uiso   1.00
C493   C     0.86168   0.38833   0.24996   0.00000  Uiso   1.00
C494   C     0.61170   0.36165   0.74995   0.00000  Uiso   1.00
C495   C     0.88829   0.13835   0.25004   0.00000  Uiso   1.00
C496   C     0.86168   0.38834   0.75001   0.00000  Uiso   1.00
C497   C     0.63832   0.11165   0.25000   0.00000  Uiso   1.00
C498   C     0.88832   0.13833   0.75002   0.00000  Uiso   1.00
C499   C     0.50009   0.25052   0.64383   0.00000  Uiso   1.00
C500   C     0.61166   0.36169   0.25001   0.00000  Uiso   1.00
C501   C     0.50292   0.28920   0.41966   0.00000  Uiso   1.00
C502   C     0.99996   0.21323   0.58005   0.00000  Uiso   1.00
C503   C     0.71285   0.48968   0.41936   0.00000  Uiso   1.00
C504   C     0.78584   0.01426   0.58100   0.00000  Uiso   1.00
C505   C     0.98983   0.21294   0.41919   0.00000  Uiso   1.00
C506   C     0.99521   0.29036   0.58121   0.00000  Uiso   1.00
C507   C     0.78844   0.00392   0.41837   0.00000  Uiso   1.00
C508   C     0.71521   0.48329   0.58108   0.00000  Uiso   1.00
C509   C     0.72129   0.02982   0.91899   0.00000  Uiso   1.00
C510   C     0.99983   0.24998   0.85588   0.00000  Uiso   1.00
C511   C     0.76758   0.46553   0.08051   0.00000  Uiso   1.00
C512   C     0.95961   0.25971   0.91739   0.00000  Uiso   1.00
C513   C     0.53331   0.24455   0.08001   0.00000  Uiso   1.00
C514   C     0.77117   0.47088   0.92064   0.00000  Uiso   1.00
C515   C     0.73066   0.03364   0.08221   0.00000  Uiso   1.00
C516   C     0.53339   0.23728   0.91973   0.00000  Uiso   1.00
C517   C     0.95708   0.25840   0.08321   0.00000  Uiso   1.00
C518   C     0.99908   0.25065   0.39920   0.00000  Uiso   1.00
C519   C     0.99967   0.25152   0.60088   0.00000  Uiso   1.00
C520   C     0.75003   0.49903   0.39848   0.00000  Uiso   1.00
C521   C     0.99988   0.25014   0.14410   0.00000  Uiso   1.00
C522   C     0.75013   0.49965   0.60147   0.00000  Uiso   1.00
C523   C     0.74854   0.00140   0.89907   0.00000  Uiso   1.00
C524   C     0.75008   0.49966   0.10149   0.00000  Uiso   1.00
C525   C     0.99780   0.24978   0.89831   0.00000  Uiso   1.00
C526   C     0.99635   0.25052   0.10165   0.00000  Uiso   1.00
C527   C     0.98039   0.21473   0.45941   0.00000  Uiso   1.00
C528   C     0.98512   0.29023   0.54104   0.00000  Uiso   1.00
C529   C     0.78633   0.01318   0.45865   0.00000  Uiso   1.00
C530   C     0.71969   0.47552   0.54073   0.00000  Uiso   1.00
C531   C     0.98993   0.29112   0.45945   0.00000  Uiso   1.00
C532   C     0.74980   0.00055   0.85619   0.00000  Uiso   1.00
C533   C     0.98648   0.21311   0.54059   0.00000  Uiso   1.00
C534   C     0.71687   0.47887   0.45928   0.00000  Uiso   1.00
C535   C     0.78250   0.01991   0.54027   0.00000  Uiso   1.00
C536   C     0.75909   0.46384   0.95960   0.00000  Uiso   1.00
C537   C     0.72291   0.03019   0.04190   0.00000  Uiso   1.00
C538   C     0.52814   0.22848   0.95970   0.00000  Uiso   1.00
C539   C     0.95573   0.25877   0.04132   0.00000  Uiso   1.00
C540   C     0.72498   0.03266   0.95995   0.00000  Uiso   1.00
C541   C     0.75760   0.46105   0.04057   0.00000  Uiso   1.00
C542   C     0.96008   0.26426   0.95850   0.00000  Uiso   1.00
C543   C     0.75016   0.49928   0.14405   0.00000  Uiso   1.00
C544   C     0.52969   0.23308   0.04067   0.00000  Uiso   1.00
C545   C     0.98506   0.25269   0.47965   0.00000  Uiso   1.00
C546   C     0.98531   0.25205   0.52061   0.00000  Uiso   1.00
C547   C     0.75141   0.49666   0.47938   0.00000  Uiso   1.00
C548   C     0.75122   0.49737   0.52013   0.00000  Uiso   1.00
C549   C     0.74097   0.49736   0.98016   0.00000  Uiso   1.00
C550   C     0.74035   0.49613   0.02101   0.00000  Uiso   1.00
C551   C     0.99341   0.24590   0.97963   0.00000  Uiso   1.00
C552   C     0.99275   0.24583   0.02070   0.00000  Uiso   1.00
C553   C     0.96181   0.18109   0.47994   0.00000  Uiso   1.00
C554   C     0.66997   0.08001   0.25000   0.00000  Uiso   1.00
C555   C     0.97035   0.32610   0.52076   0.00000  Uiso   1.00
C556   C     0.81513   0.04006   0.47853   0.00000  Uiso   1.00
C557   C     0.69536   0.44530   0.52053   0.00000  Uiso   1.00
C558   C     0.97720   0.32854   0.47963   0.00000  Uiso   1.00
C559   C     0.96975   0.17733   0.52064   0.00000  Uiso   1.00
C560   C     0.69052   0.44952   0.47942   0.00000  Uiso   1.00
C561   C     0.80889   0.04742   0.51897   0.00000  Uiso   1.00
C562   C     0.76133   0.42400   0.97797   0.00000  Uiso   1.00
C563   C     0.69958   0.06043   0.02106   0.00000  Uiso   1.00
C564   C     0.55549   0.20158   0.98020   0.00000  Uiso   1.00
H565   H     0.58721   0.30795   0.43394   0.00000  Uiso   1.00
H566   H     0.52138   0.14752   0.58084   0.00000  Uiso   1.00
H567   H     0.65786   0.38818   0.53069   0.00000  Uiso   1.00
H568   H     0.98673   0.43066   0.44473   0.00000  Uiso   1.00
H569   H     0.52530   0.39676   0.46721   0.00000  Uiso   1.00
H570   H     0.98398   0.41919   0.49587   0.00000  Uiso   1.00
H571   H     0.96189   0.36285   0.42591   0.00000  Uiso   1.00
H572   H     0.93042   0.37644   0.46507   0.00000  Uiso   1.00
H573   H     0.97118   0.09136   0.49941   0.00000  Uiso   1.00
H574   H     0.51094   0.10181   0.53464   0.00000  Uiso   1.00
H575   H     0.96499   0.07200   0.54836   0.00000  Uiso   1.00
H576   H     0.95372   0.14284   0.57436   0.00000  Uiso   1.00
H577   H     0.66396   0.06109   0.42123   0.00000  Uiso   1.00
H578   H     0.91911   0.13454   0.53641   0.00000  Uiso   1.00
H579   H     0.60608   0.40835   0.49226   0.00000  Uiso   1.00
H580   H     0.60771   0.45809   0.46791   0.00000  Uiso   1.00
H581   H     0.59765   0.41066   0.44075   0.00000  Uiso   1.00
H582   H     0.66909   0.41951   0.42546   0.00000  Uiso   1.00
H583   H     0.67188   0.38538   0.46476   0.00000  Uiso   1.00
H584   H     0.75843   0.11801   0.53268   0.00000  Uiso   1.00
H585   H     0.79071   0.12676   0.49027   0.00000  Uiso   1.00
H586   H     0.80122   0.15517   0.53449   0.00000  Uiso   1.00
H587   H     0.81751   0.09007   0.56889   0.00000  Uiso   1.00
H588   H     0.68430   0.05710   0.37224   0.00000  Uiso   1.00
H589   H     0.85376   0.09813   0.53048   0.00000  Uiso   1.00
H590   H     0.68583   0.38185   0.97382   0.00000  Uiso   1.00
H591   H     0.69318   0.40962   0.92840   0.00000  Uiso   1.00
H592   H     0.69667   0.35309   0.92971   0.00000  Uiso   1.00
H593   H     0.76682   0.38519   0.92494   0.00000  Uiso   1.00
H594   H     0.76177   0.35568   0.96754   0.00000  Uiso   1.00
H595   H     0.62184   0.07332   0.98294   0.00000  Uiso   1.00
H596   H     0.62153   0.02602   0.01221   0.00000  Uiso   1.00
H597   H     0.59100   0.07100   0.02701   0.00000  Uiso   1.00
H598   H     0.65270   0.06695   0.06727   0.00000  Uiso   1.00
H599   H     0.62952   0.04770   0.38147   0.00000  Uiso   1.00
H600   H     0.65835   0.11204   0.03626   0.00000  Uiso   1.00
H601   H     0.53349   0.12111   0.00258   0.00000  Uiso   1.00
H602   H     0.50518   0.13416   0.95872   0.00000  Uiso   1.00
H603   H     0.54681   0.09562   0.95733   0.00000  Uiso   1.00
H604   H     0.56917   0.16228   0.92887   0.00000  Uiso   1.00
H605   H     0.60033   0.15006   0.96971   0.00000  Uiso   1.00
H606   H     0.86524   0.20361   0.00834   0.00000  Uiso   1.00
H607   H     0.88510   0.20543   0.05725   0.00000  Uiso   1.00
H608   H     0.83069   0.21824   0.04783   0.00000  Uiso   1.00
H609   H     0.86486   0.28751   0.05430   0.00000  Uiso   1.00
H610   H     0.66792   0.47913   0.37258   0.00000  Uiso   1.00
H611   H     0.85308   0.27756   0.00626   0.00000  Uiso   1.00
H612   H     0.72609   0.14334   0.02105   0.00000  Uiso   1.00
H613   H     0.77086   0.12715   0.99205   0.00000  Uiso   1.00
H614   H     0.73976   0.17206   0.97772   0.00000  Uiso   1.00
H615   H     0.72313   0.11317   0.93632   0.00000  Uiso   1.00
H616   H     0.67774   0.12505   0.96587   0.00000  Uiso   1.00
H617   H     0.81891   0.36499   0.02003   0.00000  Uiso   1.00
H618   H     0.80541   0.34320   0.06696   0.00000  Uiso   1.00
H619   H     0.78385   0.32064   0.02383   0.00000  Uiso   1.00
H620   H     0.74663   0.38501   0.07166   0.00000  Uiso   1.00
H621   H     0.64419   0.48633   0.41921   0.00000  Uiso   1.00
H622   H     0.72682   0.36435   0.02847   0.00000  Uiso   1.00
H623   H     0.89550   0.35730   0.01751   0.00000  Uiso   1.00
H624   H     0.94636   0.36685   0.99529   0.00000  Uiso   1.00
H625   H     0.89935   0.39026   0.97516   0.00000  Uiso   1.00
H626   H     0.92007   0.33246   0.93445   0.00000  Uiso   1.00
H627   H     0.87206   0.31865   0.95845   0.00000  Uiso   1.00
H628   H     0.64884   0.18320   0.00425   0.00000  Uiso   1.00
H629   H     0.63992   0.23168   0.02879   0.00000  Uiso   1.00
H630   H     0.66048   0.18717   0.05522   0.00000  Uiso   1.00
H631   H     0.58900   0.18357   0.07460   0.00000  Uiso   1.00
H632   H     0.82536   0.45943   0.63552   0.00000  Uiso   1.00
H633   H     0.59052   0.14843   0.03617   0.00000  Uiso   1.00
H634   H     0.84708   0.45367   0.58712   0.00000  Uiso   1.00
H635   H     0.87753   0.47789   0.62523   0.00000  Uiso   1.00
H636   H     0.85286   0.03132   0.58216   0.00000  Uiso   1.00
H637   H     0.58295   0.28067   0.38814   0.00000  Uiso   1.00
H638   H     0.82592   0.03824   0.62745   0.00000  Uiso   1.00
H639   H     0.56010   0.18717   0.37554   0.00000  Uiso   1.00
H640   H     0.56096   0.16269   0.42296   0.00000  Uiso   1.00
H641   H     0.55021   0.13182   0.38012   0.00000  Uiso   1.00
H642   H     0.98630   0.14376   0.41636   0.00000  Uiso   1.00
H643   H     0.98194   0.16961   0.37054   0.00000  Uiso   1.00
H644   H     0.57032   0.30440   0.62141   0.00000  Uiso   1.00
H645   H     0.57261   0.33029   0.57471   0.00000  Uiso   1.00
H646   H     0.56835   0.36076   0.61879   0.00000  Uiso   1.00
H647   H     0.50206   0.35922   0.58455   0.00000  Uiso   1.00
H648   H     0.59629   0.33562   0.38884   0.00000  Uiso   1.00
H649   H     0.99575   0.33363   0.63042   0.00000  Uiso   1.00
H650   H     0.82876   0.42695   0.42549   0.00000  Uiso   1.00
H651   H     0.80345   0.42880   0.37858   0.00000  Uiso   1.00
H652   H     0.85987   0.43106   0.38165   0.00000  Uiso   1.00
H653   H     0.83234   0.00332   0.36944   0.00000  Uiso   1.00
H654   H     0.85727   0.49720   0.41527   0.00000  Uiso   1.00
H655   H     0.67356   0.03770   0.63467   0.00000  Uiso   1.00
H656   H     0.65272   0.04271   0.58593   0.00000  Uiso   1.00
H657   H     0.62199   0.01811   0.62383   0.00000  Uiso   1.00
H658   H     0.64873   0.46479   0.58150   0.00000  Uiso   1.00
H659   H     0.52090   0.32951   0.37095   0.00000  Uiso   1.00
H660   H     0.67486   0.45896   0.62733   0.00000  Uiso   1.00
H661   H     0.65738   0.48720   0.88344   0.00000  Uiso   1.00
H662   H     0.63462   0.01103   0.92596   0.00000  Uiso   1.00
H663   H     0.62121   0.03056   0.87823   0.00000  Uiso   1.00
H664   H     0.66950   0.07629   0.91413   0.00000  Uiso   1.00
H665   H     0.69151   0.06182   0.86950   0.00000  Uiso   1.00
H666   H     0.85436   0.47380   0.06679   0.00000  Uiso   1.00
H667   H     0.84006   0.49879   0.11187   0.00000  Uiso   1.00
H668   H     0.87029   0.45086   0.11251   0.00000  Uiso   1.00
H669   H     0.79705   0.43083   0.12823   0.00000  Uiso   1.00
H670   H     0.52871   0.35338   0.41677   0.00000  Uiso   1.00
H671   H     0.81259   0.41312   0.08173   0.00000  Uiso   1.00
H672   H     0.92958   0.19752   0.86622   0.00000  Uiso   1.00
H673   H     0.90250   0.19454   0.91240   0.00000  Uiso   1.00
H674   H     0.87531   0.21284   0.86954   0.00000  Uiso   1.00
H675   H     0.89132   0.27100   0.91096   0.00000  Uiso   1.00
H676   H     0.92078   0.27708   0.86743   0.00000  Uiso   1.00
H677   H     0.57150   0.32205   0.06906   0.00000  Uiso   1.00
H678   H     0.54994   0.32091   0.11765   0.00000  Uiso   1.00
H679   H     0.60598   0.31932   0.11065   0.00000  Uiso   1.00
H680   H     0.58073   0.24690   0.12600   0.00000  Uiso   1.00
H681   H     0.58306   0.18950   0.56608   0.00000  Uiso   1.00
H682   H     0.60199   0.25250   0.07852   0.00000  Uiso   1.00
H683   H     0.83940   0.01051   0.88711   0.00000  Uiso   1.00
H684   H     0.85583   0.49124   0.93393   0.00000  Uiso   1.00
H685   H     0.87544   0.46687   0.89010   0.00000  Uiso   1.00
H686   H     0.82218   0.42460   0.92402   0.00000  Uiso   1.00
H687   H     0.80553   0.43649   0.87567   0.00000  Uiso   1.00
H688   H     0.78980   0.07438   0.13116   0.00000  Uiso   1.00
H689   H     0.78915   0.09762   0.08311   0.00000  Uiso   1.00
H690   H     0.76824   0.12598   0.12428   0.00000  Uiso   1.00
H691   H     0.71146   0.10052   0.08605   0.00000  Uiso   1.00
H692   H     0.57999   0.21465   0.61296   0.00000  Uiso   1.00
H693   H     0.70996   0.07306   0.13087   0.00000  Uiso   1.00
H694   H     0.57132   0.29772   0.87017   0.00000  Uiso   1.00
H695   H     0.59124   0.30161   0.91929   0.00000  Uiso   1.00
H696   H     0.62431   0.28179   0.88069   0.00000  Uiso   1.00
H697   H     0.60138   0.22437   0.92072   0.00000  Uiso   1.00
H698   H     0.57738   0.21858   0.87403   0.00000  Uiso   1.00
H699   H     0.88682   0.32902   0.12582   0.00000  Uiso   1.00
H700   H     0.94332   0.33442   0.12486   0.00000  Uiso   1.00
H701   H     0.91441   0.33329   0.08001   0.00000  Uiso   1.00
H702   H     0.89083   0.25623   0.10233   0.00000  Uiso   1.00
H703   H     0.58938   0.15902   0.61002   0.00000  Uiso   1.00
H704   H     0.92428   0.26208   0.13984   0.00000  Uiso   1.00
H705   H     0.87902   0.18606   0.50753   0.00000  Uiso   1.00
H706   H     0.88600   0.22038   0.46616   0.00000  Uiso   1.00
H707   H     0.85449   0.17369   0.46173   0.00000  Uiso   1.00
H708   H     0.92196   0.16319   0.43031   0.00000  Uiso   1.00
H709   H     0.91850   0.12888   0.47064   0.00000  Uiso   1.00
H710   H     0.88717   0.33147   0.49731   0.00000  Uiso   1.00
H711   H     0.88918   0.30051   0.54122   0.00000  Uiso   1.00
H712   H     0.86652   0.35248   0.54215   0.00000  Uiso   1.00
H713   H     0.93619   0.35066   0.57189   0.00000  Uiso   1.00
H714   H     0.51418   0.16994   0.62756   0.00000  Uiso   1.00
H715   H     0.93597   0.38502   0.53148   0.00000  Uiso   1.00
H716   H     0.91753   0.05779   0.44799   0.00000  Uiso   1.00
H717   H     0.90172   0.05613   0.49850   0.00000  Uiso   1.00
H718   H     0.89363   0.01130   0.46827   0.00000  Uiso   1.00
H719   H     0.84601   0.06357   0.42539   0.00000  Uiso   1.00
H720   H     0.84908   0.09761   0.46425   0.00000  Uiso   1.00
H721   H     0.71763   0.34215   0.54678   0.00000  Uiso   1.00
H722   H     0.75350   0.38604   0.54652   0.00000  Uiso   1.00
H723   H     0.73003   0.36839   0.50165   0.00000  Uiso   1.00
H724   H     0.68446   0.40565   0.57239   0.00000  Uiso   1.00
O725   O     0.75000  -0.00000   0.25000   0.00000  Uiso   1.00
O726   O     0.75000   0.46538   0.66251   0.00000  Uiso   1.00
O727   O     0.96539   0.25000   0.33749   0.00000  Uiso   1.00
O728   O     0.53462   0.25000   0.66251   0.00000  Uiso   1.00
O729   O     0.50000   0.21539   0.83749   0.00000  Uiso   1.00
O730   O     0.50000   0.28461   0.16251   0.00000  Uiso   1.00
O731   O     0.78462  -0.00000   0.83749   0.00000  Uiso   1.00
O732   O     0.71539  -0.00000   0.16251   0.00000  Uiso   1.00
O733   O     0.50000   0.28462   0.83749   0.00000  Uiso   1.00
O734   O     0.50000   0.21539   0.16251   0.00000  Uiso   1.00
O735   O     0.71539  -0.00000   0.83749   0.00000  Uiso   1.00
O736   O     0.75000  -0.00000   0.75000   0.00000  Uiso   1.00
O737   O     0.78462  -0.00000   0.16251   0.00000  Uiso   1.00
O738   O     0.70127   0.08332   0.27298   0.00000  Uiso   1.00
O739   O     0.79874   0.41668   0.72702   0.00000  Uiso   1.00
O740   O     0.91668   0.20126   0.27298   0.00000  Uiso   1.00
O741   O     0.58332   0.29873   0.72702   0.00000  Uiso   1.00
O742   O     0.79874   0.41668   0.27298   0.00000  Uiso   1.00
O743   O     0.70127   0.08332   0.72702   0.00000  Uiso   1.00
O744   O     0.58332   0.29873   0.27298   0.00000  Uiso   1.00
O745   O     0.91668   0.20126   0.72702   0.00000  Uiso   1.00
O746   O     0.70127   0.41668   0.72702   0.00000  Uiso   1.00
O747   O     0.50000   0.25000   0.25000   0.00000  Uiso   1.00
O748   O     0.79874   0.08332   0.27298   0.00000  Uiso   1.00
O749   O     0.91668   0.29873   0.72702   0.00000  Uiso   1.00
O750   O     0.58332   0.20126   0.27298   0.00000  Uiso   1.00
O751   O     0.79874   0.08332   0.72702   0.00000  Uiso   1.00
O752   O     0.70127   0.41668   0.27298   0.00000  Uiso   1.00
O753   O     0.58332   0.20126   0.72702   0.00000  Uiso   1.00
O754   O     0.91668   0.29873   0.27298   0.00000  Uiso   1.00
O755   O     0.95127   0.33332   0.77298   0.00000  Uiso   1.00
O756   O     0.54874   0.16668   0.22702   0.00000  Uiso   1.00
O757   O     0.66668   0.45126   0.77298   0.00000  Uiso   1.00
O758   O     0.50000   0.25000   0.75000   0.00000  Uiso   1.00
O759   O     0.83332   0.04873   0.22702   0.00000  Uiso   1.00
O760   O     0.54874   0.16668   0.77298   0.00000  Uiso   1.00
O761   O     0.95127   0.33332   0.22702   0.00000  Uiso   1.00
O762   O     0.83332   0.04873   0.77298   0.00000  Uiso   1.00
O763   O     0.66668   0.45126   0.22702   0.00000  Uiso   1.00
O764   O     0.95127   0.16668   0.22702   0.00000  Uiso   1.00
O765   O     0.54874   0.33332   0.77298   0.00000  Uiso   1.00
O766   O     0.66668   0.04873   0.22702   0.00000  Uiso   1.00
O767   O     0.83332   0.45126   0.77298   0.00000  Uiso   1.00
O768   O     0.54874   0.33332   0.22702   0.00000  Uiso   1.00
O769   O     0.75000   0.46538   0.33749   0.00000  Uiso   1.00
O770   O     0.95127   0.16668   0.77298   0.00000  Uiso   1.00
O771   O     0.83332   0.45126   0.22702   0.00000  Uiso   1.00
O772   O     0.66668   0.04873   0.77298   0.00000  Uiso   1.00
O773   O     0.75000   0.03461   0.66251   0.00000  Uiso   1.00
O774   O     0.53462   0.25000   0.33749   0.00000  Uiso   1.00
O775   O     0.96539   0.25000   0.66251   0.00000  Uiso   1.00
O776   O     0.75000   0.03461   0.33749   0.00000  Uiso   1.00
Zn777  Zn    0.70053  -0.00000   0.21730   0.00000  Uiso   1.00
Zn778  Zn    0.54948   0.25000   0.28270   0.00000  Uiso   1.00
Zn779  Zn    0.75000   0.45052   0.71730   0.00000  Uiso   1.00
Zn780  Zn    0.75000   0.04947   0.28270   0.00000  Uiso   1.00
Zn781  Zn    0.54948   0.25000   0.71730   0.00000  Uiso   1.00
Zn782  Zn    0.95053   0.25000   0.28270   0.00000  Uiso   1.00
Zn783  Zn    0.75000   0.04947   0.71730   0.00000  Uiso   1.00
Zn784  Zn    0.75000   0.45052   0.28270   0.00000  Uiso   1.00
Zn785  Zn    0.79948  -0.00000   0.78270   0.00000  Uiso   1.00
Zn786  Zn    0.50000   0.20053   0.21730   0.00000  Uiso   1.00
Zn787  Zn    0.50000   0.29948   0.78270   0.00000  Uiso   1.00
Zn788  Zn    0.79948  -0.00000   0.21730   0.00000  Uiso   1.00
Zn789  Zn    0.70053  -0.00000   0.78270   0.00000  Uiso   1.00
Zn790  Zn    0.50000   0.29948   0.21730   0.00000  Uiso   1.00
Zn791  Zn    0.50000   0.20053   0.78270   0.00000  Uiso   1.00
Zn792  Zn    0.95053   0.25000   0.71730   0.00000  Uiso   1.00
C793   C     0.24961   0.99984   0.35593   0.00000  Uiso   1.00
C794   C     0.33003   0.91999   0.75001   0.00000  Uiso   1.00
C795   C     0.42037   0.77233   0.01835   0.00000  Uiso   1.00
C796   C     0.20942   0.56706   0.98174   0.00000  Uiso   1.00
C797   C     0.26113   0.92241   0.01953   0.00000  Uiso   1.00
C798   C     0.42763   0.78442   0.97938   0.00000  Uiso   1.00
C799   C     0.05996   0.70743   0.02087   0.00000  Uiso   1.00
C800   C     0.03047   0.82326   0.40151   0.00000  Uiso   1.00
C801   C     0.07698   0.81091   0.40313   0.00000  Uiso   1.00
C802   C     0.02480   0.67669   0.59735   0.00000  Uiso   1.00
C803   C     0.07210   0.68573   0.59665   0.00000  Uiso   1.00
C804   C     0.17014   0.99680   0.40037   0.00000  Uiso   1.00
C805   C     0.41994   0.66998   0.25003   0.00000  Uiso   1.00
C806   C     0.16174   0.54352   0.39337   0.00000  Uiso   1.00
C807   C     0.32840   0.51769   0.60144   0.00000  Uiso   1.00
C808   C     0.34536   0.97447   0.61305   0.00000  Uiso   1.00
C809   C     0.49803   0.67080   0.39920   0.00000  Uiso   1.00
C810   C     0.04521   0.66288   0.39410   0.00000  Uiso   1.00
C811   C     0.01026   0.83052   0.60110   0.00000  Uiso   1.00
C812   C     0.05828   0.83130   0.60425   0.00000  Uiso   1.00
C813   C     0.32893   0.98901   0.39880   0.00000  Uiso   1.00
C814   C     0.33009   0.94107   0.39589   0.00000  Uiso   1.00
C815   C     0.17241   0.97919   0.60105   0.00000  Uiso   1.00
C816   C     0.08006   0.83002   0.74997   0.00000  Uiso   1.00
C817   C     0.15432   0.52212   0.61205   0.00000  Uiso   1.00
C818   C     0.18309   0.54924   0.89862   0.00000  Uiso   1.00
C819   C     0.14707   0.51746   0.89627   0.00000  Uiso   1.00
C820   C     0.30444   0.94144   0.09818   0.00000  Uiso   1.00
C821   C     0.34457   0.96800   0.09742   0.00000  Uiso   1.00
C822   C     0.41831   0.75824   0.89459   0.00000  Uiso   1.00
C823   C     0.40593   0.71300   0.88508   0.00000  Uiso   1.00
C824   C     0.07482   0.76058   0.09673   0.00000  Uiso   1.00
C825   C     0.07535   0.80860   0.09872   0.00000  Uiso   1.00
C826   C     0.31106   0.95039   0.90484   0.00000  Uiso   1.00
C827   C     0.33005   0.91997   0.24998   0.00000  Uiso   1.00
C828   C     0.34747   0.98179   0.90378   0.00000  Uiso   1.00
C829   C     0.22776   0.57611   0.10316   0.00000  Uiso   1.00
C830   C     0.27147   0.59438   0.11092   0.00000  Uiso   1.00
C831   C     0.07712   0.73769   0.90107   0.00000  Uiso   1.00
C832   C     0.09163   0.78248   0.89224   0.00000  Uiso   1.00
C833   C     0.42042   0.77231   0.10921   0.00000  Uiso   1.00
C834   C     0.41593   0.82015   0.10984   0.00000  Uiso   1.00
C835   C     0.42195   0.66218   0.46256   0.00000  Uiso   1.00
C836   C     0.38308   0.68705   0.47545   0.00000  Uiso   1.00
C837   C     0.43484   0.85143   0.53969   0.00000  Uiso   1.00
C838   C     0.16994   0.58002   0.75001   0.00000  Uiso   1.00
C839   C     0.39189   0.83286   0.52927   0.00000  Uiso   1.00
C840   C     0.34998   0.56376   0.45739   0.00000  Uiso   1.00
C841   C     0.39323   0.54616   0.46864   0.00000  Uiso   1.00
C842   C     0.18745   0.90298   0.54042   0.00000  Uiso   1.00
C843   C     0.22439   0.87312   0.53323   0.00000  Uiso   1.00
C844   C     0.46332   0.86801   0.45777   0.00000  Uiso   1.00
C845   C     0.49158   0.90575   0.46695   0.00000  Uiso   1.00
C846   C     0.45301   0.63893   0.54234   0.00000  Uiso   1.00
C847   C     0.47649   0.59877   0.53053   0.00000  Uiso   1.00
C848   C     0.16320   0.91810   0.45724   0.00000  Uiso   1.00
C849   C     0.08003   0.83004   0.25000   0.00000  Uiso   1.00
C850   C     0.11602   0.92436   0.46510   0.00000  Uiso   1.00
C851   C     0.32065   0.58981   0.53679   0.00000  Uiso   1.00
C852   C     0.29102   0.62445   0.52248   0.00000  Uiso   1.00
C853   C     0.25109   0.88508   0.95364   0.00000  Uiso   1.00
C854   C     0.20377   0.88231   0.94605   0.00000  Uiso   1.00
C855   C     0.15817   0.57732   0.03679   0.00000  Uiso   1.00
C856   C     0.12093   0.56091   0.01316   0.00000  Uiso   1.00
C857   C     0.06842   0.66016   0.96104   0.00000  Uiso   1.00
C858   C     0.03656   0.62571   0.97067   0.00000  Uiso   1.00
C859   C     0.37433   0.76713   0.02991   0.00000  Uiso   1.00
C860   C     0.41996   0.66997   0.75002   0.00000  Uiso   1.00
C861   C     0.36333   0.72082   0.03643   0.00000  Uiso   1.00
C862   C     0.21010   0.61193   0.96633   0.00000  Uiso   1.00
C863   C     0.23843   0.64022   0.99093   0.00000  Uiso   1.00
C864   C     0.25490   0.88038   0.04053   0.00000  Uiso   1.00
C865   C     0.29313   0.85082   0.03752   0.00000  Uiso   1.00
C866   C     0.40622   0.82372   0.96307   0.00000  Uiso   1.00
C867   C     0.41234   0.86178   0.98952   0.00000  Uiso   1.00
C868   C     0.09347   0.68232   0.04263   0.00000  Uiso   1.00
C869   C     0.13815   0.69705   0.03210   0.00000  Uiso   1.00
C870   C     0.16993   0.91999   0.75002   0.00000  Uiso   1.00
C871   C     0.33006   0.58002   0.24996   0.00000  Uiso   1.00
C872   C     0.41997   0.83001   0.74999   0.00000  Uiso   1.00
C873   C     0.24990   0.99997   0.64405   0.00000  Uiso   1.00
C874   C     0.08002   0.66998   0.25002   0.00000  Uiso   1.00
C875   C     0.33004   0.58004   0.74999   0.00000  Uiso   1.00
C876   C     0.16996   0.91996   0.25001   0.00000  Uiso   1.00
C877   C     0.08005   0.66997   0.74998   0.00000  Uiso   1.00
C878   C     0.41993   0.83002   0.25000   0.00000  Uiso   1.00
C879   C     0.13832   0.88833   0.25002   0.00000  Uiso   1.00
C880   C     0.36167   0.61168   0.75000   0.00000  Uiso   1.00
C881   C     0.11167   0.63833   0.25003   0.00000  Uiso   1.00
C882   C     0.38832   0.86166   0.74999   0.00000  Uiso   1.00
C883   C     0.36170   0.61165   0.24995   0.00000  Uiso   1.00
C884   C     0.49996   0.75045   0.35620   0.00000  Uiso   1.00
C885   C     0.13828   0.88836   0.75002   0.00000  Uiso   1.00
C886   C     0.38830   0.86164   0.24999   0.00000  Uiso   1.00
C887   C     0.11168   0.63834   0.74997   0.00000  Uiso   1.00
C888   C     0.13831   0.61165   0.75002   0.00000  Uiso   1.00
C889   C     0.36168   0.88833   0.24996   0.00000  Uiso   1.00
C890   C     0.11170   0.86165   0.74995   0.00000  Uiso   1.00
C891   C     0.38829   0.63835   0.25004   0.00000  Uiso   1.00
C892   C     0.36168   0.88834   0.75001   0.00000  Uiso   1.00
C893   C     0.13832   0.61165   0.25000   0.00000  Uiso   1.00
C894   C     0.38832   0.63833   0.75002   0.00000  Uiso   1.00
C895   C     0.00009   0.75052   0.64383   0.00000  Uiso   1.00
C896   C     0.11166   0.86169   0.25001   0.00000  Uiso   1.00
C897   C     0.00292   0.78920   0.41966   0.00000  Uiso   1.00
C898   C     0.49996   0.71323   0.58005   0.00000  Uiso   1.00
C899   C     0.21285   0.98968   0.41936   0.00000  Uiso   1.00
C900   C     0.28584   0.51426   0.58100   0.00000  Uiso   1.00
C901   C     0.48983   0.71294   0.41919   0.00000  Uiso   1.00
C902   C     0.49521   0.79036   0.58121   0.00000  Uiso   1.00
C903   C     0.28844   0.50392   0.41837   0.00000  Uiso   1.00
C904   C     0.21521   0.98329   0.58108   0.00000  Uiso   1.00
C905   C     0.22129   0.52982   0.91899   0.00000  Uiso   1.00
C906   C     0.49983   0.74998   0.85588   0.00000  Uiso   1.00
C907   C     0.26758   0.96553   0.08051   0.00000  Uiso   1.00
C908   C     0.45961   0.75971   0.91739   0.00000  Uiso   1.00
C909   C     0.03331   0.74455   0.08001   0.00000  Uiso   1.00
C910   C     0.27117   0.97088   0.92064   0.00000  Uiso   1.00
C911   C     0.23066   0.53364   0.08221   0.00000  Uiso   1.00
C912   C     0.03339   0.73728   0.91973   0.00000  Uiso   1.00
C913   C     0.45708   0.75840   0.08321   0.00000  Uiso   1.00
C914   C     0.49908   0.75065   0.39920   0.00000  Uiso   1.00
C915   C     0.49967   0.75152   0.60088   0.00000  Uiso   1.00
C916   C     0.25003   0.99903   0.39848   0.00000  Uiso   1.00
C917   C     0.49988   0.75014   0.14410   0.00000  Uiso   1.00
C918   C     0.25013   0.99965   0.60147   0.00000  Uiso   1.00
C919   C     0.24854   0.50140   0.89907   0.00000  Uiso   1.00
C920   C     0.25008   0.99966   0.10149   0.00000  Uiso   1.00
C921   C     0.49780   0.74978   0.89831   0.00000  Uiso   1.00
C922   C     0.49635   0.75052   0.10165   0.00000  Uiso   1.00
C923   C     0.48039   0.71473   0.45941   0.00000  Uiso   1.00
C924   C     0.48512   0.79023   0.54104   0.00000  Uiso   1.00
C925   C     0.28633   0.51318   0.45865   0.00000  Uiso   1.00
C926   C     0.21969   0.97552   0.54073   0.00000  Uiso   1.00
C927   C     0.48993   0.79112   0.45945   0.00000  Uiso   1.00
C928   C     0.24980   0.50055   0.85619   0.00000  Uiso   1.00
C929   C     0.48648   0.71311   0.54059   0.00000  Uiso   1.00
C930   C     0.21687   0.97887   0.45928   0.00000  Uiso   1.00
C931   C     0.28250   0.51991   0.54027   0.00000  Uiso   1.00
C932   C     0.25909   0.96384   0.95960   0.00000  Uiso   1.00
C933   C     0.22291   0.53019   0.04190   0.00000  Uiso   1.00
C934   C     0.02814   0.72848   0.95970   0.00000  Uiso   1.00
C935   C     0.45573   0.75877   0.04132   0.00000  Uiso   1.00
C936   C     0.22498   0.53266   0.95995   0.00000  Uiso   1.00
C937   C     0.25760   0.96105   0.04057   0.00000  Uiso   1.00
C938   C     0.46008   0.76426   0.95850   0.00000  Uiso   1.00
C939   C     0.25016   0.99928   0.14405   0.00000  Uiso   1.00
C940   C     0.02969   0.73308   0.04067   0.00000  Uiso   1.00
C941   C     0.48506   0.75269   0.47965   0.00000  Uiso   1.00
C942   C     0.48531   0.75205   0.52061   0.00000  Uiso   1.00
C943   C     0.25141   0.99666   0.47938   0.00000  Uiso   1.00
C944   C     0.25122   0.99737   0.52013   0.00000  Uiso   1.00
C945   C     0.24097   0.99736   0.98016   0.00000  Uiso   1.00
C946   C     0.24035   0.99613   0.02101   0.00000  Uiso   1.00
C947   C     0.49341   0.74590   0.97963   0.00000  Uiso   1.00
C948   C     0.49275   0.74583   0.02070   0.00000  Uiso   1.00
C949   C     0.46181   0.68109   0.47994   0.00000  Uiso   1.00
C950   C     0.16997   0.58001   0.25000   0.00000  Uiso   1.00
C951   C     0.47035   0.82610   0.52076   0.00000  Uiso   1.00
C952   C     0.31513   0.54006   0.47853   0.00000  Uiso   1.00
C953   C     0.19536   0.94530   0.52053   0.00000  Uiso   1.00
C954   C     0.47720   0.82854   0.47963   0.00000  Uiso   1.00
C955   C     0.46975   0.67733   0.52064   0.00000  Uiso   1.00
C956   C     0.19052   0.94952   0.47942   0.00000  Uiso   1.00
C957   C     0.30889   0.54742   0.51897   0.00000  Uiso   1.00
C958   C     0.26133   0.92400   0.97797   0.00000  Uiso   1.00
C959   C     0.19958   0.56043   0.02106   0.00000  Uiso   1.00
C960   C     0.05549   0.70158   0.98020   0.00000  Uiso   1.00
H961   H     0.08721   0.80795   0.43394   0.00000  Uiso   1.00
H962   H     0.02138   0.64752   0.58084   0.00000  Uiso   1.00
H963   H     0.15786   0.88818   0.53069   0.00000  Uiso   1.00
H964   H     0.48673   0.93066   0.44473   0.00000  Uiso   1.00
H965   H     0.02530   0.89676   0.46721   0.00000  Uiso   1.00
H966   H     0.48398   0.91919   0.49587   0.00000  Uiso   1.00
H967   H     0.46189   0.86285   0.42591   0.00000  Uiso   1.00
H968   H     0.43042   0.87644   0.46507   0.00000  Uiso   1.00
H969   H     0.47118   0.59136   0.49941   0.00000  Uiso   1.00
H970   H     0.01094   0.60181   0.53464   0.00000  Uiso   1.00
H971   H     0.46499   0.57200   0.54836   0.00000  Uiso   1.00
H972   H     0.45372   0.64284   0.57436   0.00000  Uiso   1.00
H973   H     0.16396   0.56109   0.42123   0.00000  Uiso   1.00
H974   H     0.41911   0.63454   0.53641   0.00000  Uiso   1.00
H975   H     0.10608   0.90835   0.49226   0.00000  Uiso   1.00
H976   H     0.10771   0.95809   0.46791   0.00000  Uiso   1.00
H977   H     0.09765   0.91066   0.44075   0.00000  Uiso   1.00
H978   H     0.16909   0.91951   0.42546   0.00000  Uiso   1.00
H979   H     0.17188   0.88538   0.46476   0.00000  Uiso   1.00
H980   H     0.25843   0.61801   0.53268   0.00000  Uiso   1.00
H981   H     0.29071   0.62676   0.49027   0.00000  Uiso   1.00
H982   H     0.30122   0.65517   0.53449   0.00000  Uiso   1.00
H983   H     0.31751   0.59007   0.56889   0.00000  Uiso   1.00
H984   H     0.18430   0.55710   0.37224   0.00000  Uiso   1.00
H985   H     0.35376   0.59813   0.53048   0.00000  Uiso   1.00
H986   H     0.18583   0.88185   0.97382   0.00000  Uiso   1.00
H987   H     0.19318   0.90962   0.92840   0.00000  Uiso   1.00
H988   H     0.19667   0.85309   0.92971   0.00000  Uiso   1.00
H989   H     0.26682   0.88519   0.92494   0.00000  Uiso   1.00
H990   H     0.26177   0.85568   0.96754   0.00000  Uiso   1.00
H991   H     0.12184   0.57332   0.98294   0.00000  Uiso   1.00
H992   H     0.12153   0.52602   0.01221   0.00000  Uiso   1.00
H993   H     0.09100   0.57100   0.02701   0.00000  Uiso   1.00
H994   H     0.15270   0.56695   0.06727   0.00000  Uiso   1.00
H995   H     0.12952   0.54770   0.38147   0.00000  Uiso   1.00
H996   H     0.15835   0.61204   0.03626   0.00000  Uiso   1.00
H997   H     0.03349   0.62111   0.00258   0.00000  Uiso   1.00
H998   H     0.00518   0.63416   0.95872   0.00000  Uiso   1.00
H999   H     0.04681   0.59562   0.95733   0.00000  Uiso   1.00
H1000  H     0.06917   0.66228   0.92887   0.00000  Uiso   1.00
H1001  H     0.10033   0.65006   0.96971   0.00000  Uiso   1.00
H1002  H     0.36524   0.70361   0.00834   0.00000  Uiso   1.00
H1003  H     0.38510   0.70543   0.05725   0.00000  Uiso   1.00
H1004  H     0.33069   0.71824   0.04783   0.00000  Uiso   1.00
H1005  H     0.36486   0.78751   0.05430   0.00000  Uiso   1.00
H1006  H     0.16792   0.97913   0.37258   0.00000  Uiso   1.00
H1007  H     0.35308   0.77756   0.00626   0.00000  Uiso   1.00
H1008  H     0.22609   0.64334   0.02105   0.00000  Uiso   1.00
H1009  H     0.27086   0.62715   0.99205   0.00000  Uiso   1.00
H1010  H     0.23976   0.67206   0.97772   0.00000  Uiso   1.00
H1011  H     0.22313   0.61317   0.93632   0.00000  Uiso   1.00
H1012  H     0.17774   0.62505   0.96587   0.00000  Uiso   1.00
H1013  H     0.31891   0.86499   0.02003   0.00000  Uiso   1.00
H1014  H     0.30541   0.84320   0.06696   0.00000  Uiso   1.00
H1015  H     0.28385   0.82064   0.02383   0.00000  Uiso   1.00
H1016  H     0.24663   0.88501   0.07166   0.00000  Uiso   1.00
H1017  H     0.14419   0.98633   0.41921   0.00000  Uiso   1.00
H1018  H     0.22682   0.86435   0.02847   0.00000  Uiso   1.00
H1019  H     0.39550   0.85730   0.01751   0.00000  Uiso   1.00
H1020  H     0.44636   0.86685   0.99529   0.00000  Uiso   1.00
H1021  H     0.39935   0.89026   0.97516   0.00000  Uiso   1.00
H1022  H     0.42007   0.83246   0.93445   0.00000  Uiso   1.00
H1023  H     0.37206   0.81865   0.95845   0.00000  Uiso   1.00
H1024  H     0.14884   0.68320   0.00425   0.00000  Uiso   1.00
H1025  H     0.13992   0.73168   0.02879   0.00000  Uiso   1.00
H1026  H     0.16048   0.68717   0.05522   0.00000  Uiso   1.00
H1027  H     0.08900   0.68357   0.07460   0.00000  Uiso   1.00
H1028  H     0.32536   0.95943   0.63552   0.00000  Uiso   1.00
H1029  H     0.09052   0.64843   0.03617   0.00000  Uiso   1.00
H1030  H     0.34708   0.95367   0.58712   0.00000  Uiso   1.00
H1031  H     0.37753   0.97789   0.62523   0.00000  Uiso   1.00
H1032  H     0.35286   0.53132   0.58216   0.00000  Uiso   1.00
H1033  H     0.08295   0.78067   0.38814   0.00000  Uiso   1.00
H1034  H     0.32592   0.53824   0.62745   0.00000  Uiso   1.00
H1035  H     0.06010   0.68717   0.37554   0.00000  Uiso   1.00
H1036  H     0.06096   0.66269   0.42296   0.00000  Uiso   1.00
H1037  H     0.05021   0.63182   0.38012   0.00000  Uiso   1.00
H1038  H     0.48630   0.64376   0.41636   0.00000  Uiso   1.00
H1039  H     0.48194   0.66961   0.37054   0.00000  Uiso   1.00
H1040  H     0.07032   0.80440   0.62141   0.00000  Uiso   1.00
H1041  H     0.07261   0.83029   0.57471   0.00000  Uiso   1.00
H1042  H     0.06835   0.86076   0.61879   0.00000  Uiso   1.00
H1043  H     0.00206   0.85922   0.58455   0.00000  Uiso   1.00
H1044  H     0.09629   0.83562   0.38884   0.00000  Uiso   1.00
H1045  H     0.49575   0.83363   0.63042   0.00000  Uiso   1.00
H1046  H     0.32876   0.92695   0.42549   0.00000  Uiso   1.00
H1047  H     0.30345   0.92880   0.37858   0.00000  Uiso   1.00
H1048  H     0.35987   0.93106   0.38165   0.00000  Uiso   1.00
H1049  H     0.33234   0.50332   0.36944   0.00000  Uiso   1.00
H1050  H     0.35727   0.99720   0.41527   0.00000  Uiso   1.00
H1051  H     0.17356   0.53770   0.63467   0.00000  Uiso   1.00
H1052  H     0.15272   0.54271   0.58593   0.00000  Uiso   1.00
H1053  H     0.12199   0.51811   0.62383   0.00000  Uiso   1.00
H1054  H     0.14873   0.96479   0.58150   0.00000  Uiso   1.00
H1055  H     0.02090   0.82951   0.37095   0.00000  Uiso   1.00
H1056  H     0.17486   0.95896   0.62733   0.00000  Uiso   1.00
H1057  H     0.15738   0.98720   0.88344   0.00000  Uiso   1.00
H1058  H     0.13462   0.51103   0.92596   0.00000  Uiso   1.00
H1059  H     0.12121   0.53056   0.87823   0.00000  Uiso   1.00
H1060  H     0.16950   0.57629   0.91413   0.00000  Uiso   1.00
H1061  H     0.19151   0.56182   0.86950   0.00000  Uiso   1.00
H1062  H     0.35436   0.97380   0.06679   0.00000  Uiso   1.00
H1063  H     0.34006   0.99879   0.11187   0.00000  Uiso   1.00
H1064  H     0.37029   0.95086   0.11251   0.00000  Uiso   1.00
H1065  H     0.29705   0.93083   0.12823   0.00000  Uiso   1.00
H1066  H     0.02871   0.85338   0.41677   0.00000  Uiso   1.00
H1067  H     0.31259   0.91312   0.08173   0.00000  Uiso   1.00
H1068  H     0.42958   0.69752   0.86622   0.00000  Uiso   1.00
H1069  H     0.40250   0.69454   0.91240   0.00000  Uiso   1.00
H1070  H     0.37531   0.71284   0.86954   0.00000  Uiso   1.00
H1071  H     0.39132   0.77100   0.91096   0.00000  Uiso   1.00
H1072  H     0.42078   0.77708   0.86743   0.00000  Uiso   1.00
H1073  H     0.07150   0.82205   0.06906   0.00000  Uiso   1.00
H1074  H     0.04994   0.82091   0.11765   0.00000  Uiso   1.00
H1075  H     0.10598   0.81932   0.11065   0.00000  Uiso   1.00
H1076  H     0.08073   0.74690   0.12600   0.00000  Uiso   1.00
H1077  H     0.08306   0.68950   0.56608   0.00000  Uiso   1.00
H1078  H     0.10199   0.75250   0.07852   0.00000  Uiso   1.00
H1079  H     0.33940   0.51051   0.88711   0.00000  Uiso   1.00
H1080  H     0.35583   0.99124   0.93393   0.00000  Uiso   1.00
H1081  H     0.37544   0.96687   0.89010   0.00000  Uiso   1.00
H1082  H     0.32218   0.92460   0.92402   0.00000  Uiso   1.00
H1083  H     0.30553   0.93649   0.87567   0.00000  Uiso   1.00
H1084  H     0.28980   0.57438   0.13116   0.00000  Uiso   1.00
H1085  H     0.28915   0.59762   0.08311   0.00000  Uiso   1.00
H1086  H     0.26824   0.62598   0.12428   0.00000  Uiso   1.00
H1087  H     0.21146   0.60052   0.08605   0.00000  Uiso   1.00
H1088  H     0.07999   0.71465   0.61296   0.00000  Uiso   1.00
H1089  H     0.20996   0.57306   0.13087   0.00000  Uiso   1.00
H1090  H     0.07132   0.79772   0.87017   0.00000  Uiso   1.00
H1091  H     0.09124   0.80161   0.91929   0.00000  Uiso   1.00
H1092  H     0.12431   0.78179   0.88069   0.00000  Uiso   1.00
H1093  H     0.10138   0.72437   0.92072   0.00000  Uiso   1.00
H1094  H     0.07738   0.71858   0.87403   0.00000  Uiso   1.00
H1095  H     0.38682   0.82902   0.12582   0.00000  Uiso   1.00
H1096  H     0.44332   0.83442   0.12486   0.00000  Uiso   1.00
H1097  H     0.41441   0.83329   0.08001   0.00000  Uiso   1.00
H1098  H     0.39083   0.75623   0.10233   0.00000  Uiso   1.00
H1099  H     0.08938   0.65902   0.61002   0.00000  Uiso   1.00
H1100  H     0.42428   0.76208   0.13984   0.00000  Uiso   1.00
H1101  H     0.37902   0.68606   0.50753   0.00000  Uiso   1.00
H1102  H     0.38600   0.72038   0.46616   0.00000  Uiso   1.00
H1103  H     0.35449   0.67369   0.46173   0.00000  Uiso   1.00
H1104  H     0.42196   0.66319   0.43031   0.00000  Uiso   1.00
H1105  H     0.41850   0.62888   0.47064   0.00000  Uiso   1.00
H1106  H     0.38717   0.83147   0.49731   0.00000  Uiso   1.00
H1107  H     0.38918   0.80051   0.54122   0.00000  Uiso   1.00
H1108  H     0.36652   0.85248   0.54215   0.00000  Uiso   1.00
H1109  H     0.43619   0.85066   0.57189   0.00000  Uiso   1.00
H1110  H     0.01418   0.66994   0.62756   0.00000  Uiso   1.00
H1111  H     0.43597   0.88502   0.53148   0.00000  Uiso   1.00
H1112  H     0.41753   0.55779   0.44799   0.00000  Uiso   1.00
H1113  H     0.40172   0.55613   0.49850   0.00000  Uiso   1.00
H1114  H     0.39363   0.51130   0.46827   0.00000  Uiso   1.00
H1115  H     0.34601   0.56357   0.42539   0.00000  Uiso   1.00
H1116  H     0.34908   0.59761   0.46425   0.00000  Uiso   1.00
H1117  H     0.21763   0.84215   0.54678   0.00000  Uiso   1.00
H1118  H     0.25350   0.88604   0.54652   0.00000  Uiso   1.00
H1119  H     0.23003   0.86839   0.50165   0.00000  Uiso   1.00
H1120  H     0.18446   0.90565   0.57239   0.00000  Uiso   1.00
O1121  O     0.25000   0.50000   0.25000   0.00000  Uiso   1.00
O1122  O     0.25000   0.96538   0.66251   0.00000  Uiso   1.00
O1123  O     0.46539   0.75000   0.33749   0.00000  Uiso   1.00
O1124  O     0.03462   0.75000   0.66251   0.00000  Uiso   1.00
O1125  O     0.00000   0.71539   0.83749   0.00000  Uiso   1.00
O1126  O     0.00000   0.78461   0.16251   0.00000  Uiso   1.00
O1127  O     0.28462   0.50000   0.83749   0.00000  Uiso   1.00
O1128  O     0.21539   0.50000   0.16251   0.00000  Uiso   1.00
O1129  O     0.00000   0.78462   0.83749   0.00000  Uiso   1.00
O1130  O     0.00000   0.71539   0.16251   0.00000  Uiso   1.00
O1131  O     0.21539   0.50000   0.83749   0.00000  Uiso   1.00
O1132  O     0.25000   0.50000   0.75000   0.00000  Uiso   1.00
O1133  O     0.28462   0.50000   0.16251   0.00000  Uiso   1.00
O1134  O     0.20127   0.58332   0.27298   0.00000  Uiso   1.00
O1135  O     0.29874   0.91668   0.72702   0.00000  Uiso   1.00
O1136  O     0.41668   0.70126   0.27298   0.00000  Uiso   1.00
O1137  O     0.08332   0.79873   0.72702   0.00000  Uiso   1.00
O1138  O     0.29874   0.91668   0.27298   0.00000  Uiso   1.00
O1139  O     0.20127   0.58332   0.72702   0.00000  Uiso   1.00
O1140  O     0.08332   0.79873   0.27298   0.00000  Uiso   1.00
O1141  O     0.41668   0.70126   0.72702   0.00000  Uiso   1.00
O1142  O     0.20127   0.91668   0.72702   0.00000  Uiso   1.00
O1143  O     0.00000   0.75000   0.25000   0.00000  Uiso   1.00
O1144  O     0.29874   0.58332   0.27298   0.00000  Uiso   1.00
O1145  O     0.41668   0.79873   0.72702   0.00000  Uiso   1.00
O1146  O     0.08332   0.70126   0.27298   0.00000  Uiso   1.00
O1147  O     0.29874   0.58332   0.72702   0.00000  Uiso   1.00
O1148  O     0.20127   0.91668   0.27298   0.00000  Uiso   1.00
O1149  O     0.08332   0.70126   0.72702   0.00000  Uiso   1.00
O1150  O     0.41668   0.79873   0.27298   0.00000  Uiso   1.00
O1151  O     0.45127   0.83332   0.77298   0.00000  Uiso   1.00
O1152  O     0.04874   0.66668   0.22702   0.00000  Uiso   1.00
O1153  O     0.16668   0.95126   0.77298   0.00000  Uiso   1.00
O1154  O     0.00000   0.75000   0.75000   0.00000  Uiso   1.00
O1155  O     0.33332   0.54873   0.22702   0.00000  Uiso   1.00
O1156  O     0.04874   0.66668   0.77298   0.00000  Uiso   1.00
O1157  O     0.45127   0.83332   0.22702   0.00000  Uiso   1.00
O1158  O     0.33332   0.54873   0.77298   0.00000  Uiso   1.00
O1159  O     0.16668   0.95126   0.22702   0.00000  Uiso   1.00
O1160  O     0.45127   0.66668   0.22702   0.00000  Uiso   1.00
O1161  O     0.04874   0.83332   0.77298   0.00000  Uiso   1.00
O1162  O     0.16668   0.54873   0.22702   0.00000  Uiso   1.00
O1163  O     0.33332   0.95126   0.77298   0.00000  Uiso   1.00
O1164  O     0.04874   0.83332   0.22702   0.00000  Uiso   1.00
O1165  O     0.25000   0.96538   0.33749   0.00000  Uiso   1.00
O1166  O     0.45127   0.66668   0.77298   0.00000  Uiso   1.00
O1167  O     0.33332   0.95126   0.22702   0.00000  Uiso   1.00
O1168  O     0.16668   0.54873   0.77298   0.00000  Uiso   1.00
O1169  O     0.25000   0.53461   0.66251   0.00000  Uiso   1.00
O1170  O     0.03462   0.75000   0.33749   0.00000  Uiso   1.00
O1171  O     0.46539   0.75000   0.66251   0.00000  Uiso   1.00
O1172  O     0.25000   0.53461   0.33749   0.00000  Uiso   1.00
Zn1173 Zn    0.20053   0.50000   0.21730   0.00000  Uiso   1.00
Zn1174 Zn    0.04948   0.75000   0.28270   0.00000  Uiso   1.00
Zn1175 Zn    0.25000   0.95052   0.71730   0.00000  Uiso   1.00
Zn1176 Zn    0.25000   0.54947   0.28270   0.00000  Uiso   1.00
Zn1177 Zn    0.04948   0.75000   0.71730   0.00000  Uiso   1.00
Zn1178 Zn    0.45053   0.75000   0.28270   0.00000  Uiso   1.00
Zn1179 Zn    0.25000   0.54947   0.71730   0.00000  Uiso   1.00
Zn1180 Zn    0.25000   0.95052   0.28270   0.00000  Uiso   1.00
Zn1181 Zn    0.29948   0.50000   0.78270   0.00000  Uiso   1.00
Zn1182 Zn    0.00000   0.70053   0.21730   0.00000  Uiso   1.00
Zn1183 Zn    0.00000   0.79948   0.78270   0.00000  Uiso   1.00
Zn1184 Zn    0.29948   0.50000   0.21730   0.00000  Uiso   1.00
Zn1185 Zn    0.20053   0.50000   0.78270   0.00000  Uiso   1.00
Zn1186 Zn    0.00000   0.79948   0.21730   0.00000  Uiso   1.00
Zn1187 Zn    0.00000   0.70053   0.78270   0.00000  Uiso   1.00
Zn1188 Zn    0.45053   0.75000   0.71730   0.00000  Uiso   1.00
C1189  C     0.74961   0.99984   0.35593   0.00000  Uiso   1.00
C1190  C     0.83003   0.91999   0.75001   0.00000  Uiso   1.00
C1191  C     0.92037   0.77233   0.01835   0.00000  Uiso   1.00
C1192  C     0.70942   0.56706   0.98174   0.00000  Uiso   1.00
C1193  C     0.76113   0.92241   0.01953   0.00000  Uiso   1.00
C1194  C     0.92763   0.78442   0.97938   0.00000  Uiso   1.00
C1195  C     0.55996   0.70743   0.02087   0.00000  Uiso   1.00
C1196  C     0.53047   0.82326   0.40151   0.00000  Uiso   1.00
C1197  C     0.57698   0.81091   0.40313   0.00000  Uiso   1.00
C1198  C     0.52480   0.67669   0.59735   0.00000  Uiso   1.00
C1199  C     0.57210   0.68573   0.59665   0.00000  Uiso   1.00
C1200  C     0.67014   0.99680   0.40037   0.00000  Uiso   1.00
C1201  C     0.91994   0.66998   0.25003   0.00000  Uiso   1.00
C1202  C     0.66174   0.54352   0.39337   0.00000  Uiso   1.00
C1203  C     0.82840   0.51769   0.60144   0.00000  Uiso   1.00
C1204  C     0.84536   0.97447   0.61305   0.00000  Uiso   1.00
C1205  C     0.99803   0.67080   0.39920   0.00000  Uiso   1.00
C1206  C     0.54521   0.66288   0.39410   0.00000  Uiso   1.00
C1207  C     0.51026   0.83052   0.60110   0.00000  Uiso   1.00
C1208  C     0.55828   0.83130   0.60425   0.00000  Uiso   1.00
C1209  C     0.82893   0.98901   0.39880   0.00000  Uiso   1.00
C1210  C     0.83009   0.94107   0.39589   0.00000  Uiso   1.00
C1211  C     0.67241   0.97919   0.60105   0.00000  Uiso   1.00
C1212  C     0.58006   0.83002   0.74997   0.00000  Uiso   1.00
C1213  C     0.65432   0.52212   0.61205   0.00000  Uiso   1.00
C1214  C     0.68309   0.54924   0.89862   0.00000  Uiso   1.00
C1215  C     0.64707   0.51746   0.89627   0.00000  Uiso   1.00
C1216  C     0.80444   0.94144   0.09818   0.00000  Uiso   1.00
C1217  C     0.84457   0.96800   0.09742   0.00000  Uiso   1.00
C1218  C     0.91831   0.75824   0.89459   0.00000  Uiso   1.00
C1219  C     0.90593   0.71300   0.88508   0.00000  Uiso   1.00
C1220  C     0.57482   0.76058   0.09673   0.00000  Uiso   1.00
C1221  C     0.57535   0.80860   0.09872   0.00000  Uiso   1.00
C1222  C     0.81106   0.95039   0.90484   0.00000  Uiso   1.00
C1223  C     0.83005   0.91997   0.24998   0.00000  Uiso   1.00
C1224  C     0.84747   0.98179   0.90378   0.00000  Uiso   1.00
C1225  C     0.72776   0.57611   0.10316   0.00000  Uiso   1.00
C1226  C     0.77147   0.59438   0.11092   0.00000  Uiso   1.00
C1227  C     0.57712   0.73769   0.90107   0.00000  Uiso   1.00
C1228  C     0.59163   0.78248   0.89224   0.00000  Uiso   1.00
C1229  C     0.92042   0.77231   0.10921   0.00000  Uiso   1.00
C1230  C     0.91593   0.82015   0.10984   0.00000  Uiso   1.00
C1231  C     0.92195   0.66218   0.46256   0.00000  Uiso   1.00
C1232  C     0.88308   0.68705   0.47545   0.00000  Uiso   1.00
C1233  C     0.93484   0.85143   0.53969   0.00000  Uiso   1.00
C1234  C     0.66994   0.58002   0.75001   0.00000  Uiso   1.00
C1235  C     0.89189   0.83286   0.52927   0.00000  Uiso   1.00
C1236  C     0.84998   0.56376   0.45739   0.00000  Uiso   1.00
C1237  C     0.89323   0.54616   0.46864   0.00000  Uiso   1.00
C1238  C     0.68745   0.90298   0.54042   0.00000  Uiso   1.00
C1239  C     0.72439   0.87312   0.53323   0.00000  Uiso   1.00
C1240  C     0.96332   0.86801   0.45777   0.00000  Uiso   1.00
C1241  C     0.99158   0.90575   0.46695   0.00000  Uiso   1.00
C1242  C     0.95301   0.63893   0.54234   0.00000  Uiso   1.00
C1243  C     0.97649   0.59877   0.53053   0.00000  Uiso   1.00
C1244  C     0.66320   0.91810   0.45724   0.00000  Uiso   1.00
C1245  C     0.58003   0.83004   0.25000   0.00000  Uiso   1.00
C1246  C     0.61602   0.92436   0.46510   0.00000  Uiso   1.00
C1247  C     0.82065   0.58981   0.53679   0.00000  Uiso   1.00
C1248  C     0.79102   0.62445   0.52248   0.00000  Uiso   1.00
C1249  C     0.75109   0.88508   0.95364   0.00000  Uiso   1.00
C1250  C     0.70377   0.88231   0.94605   0.00000  Uiso   1.00
C1251  C     0.65817   0.57732   0.03679   0.00000  Uiso   1.00
C1252  C     0.62093   0.56091   0.01316   0.00000  Uiso   1.00
C1253  C     0.56842   0.66016   0.96104   0.00000  Uiso   1.00
C1254  C     0.53656   0.62571   0.97067   0.00000  Uiso   1.00
C1255  C     0.87433   0.76713   0.02991   0.00000  Uiso   1.00
C1256  C     0.91996   0.66997   0.75002   0.00000  Uiso   1.00
C1257  C     0.86333   0.72082   0.03643   0.00000  Uiso   1.00
C1258  C     0.71010   0.61193   0.96633   0.00000  Uiso   1.00
C1259  C     0.73843   0.64022   0.99093   0.00000  Uiso   1.00
C1260  C     0.75490   0.88038   0.04053   0.00000  Uiso   1.00
C1261  C     0.79313   0.85082   0.03752   0.00000  Uiso   1.00
C1262  C     0.90622   0.82372   0.96307   0.00000  Uiso   1.00
C1263  C     0.91234   0.86178   0.98952   0.00000  Uiso   1.00
C1264  C     0.59347   0.68232   0.04263   0.00000  Uiso   1.00
C1265  C     0.63815   0.69705   0.03210   0.00000  Uiso   1.00
C1266  C     0.66993   0.91999   0.75002   0.00000  Uiso   1.00
C1267  C     0.83006   0.58002   0.24996   0.00000  Uiso   1.00
C1268  C     0.91997   0.83001   0.74999   0.00000  Uiso   1.00
C1269  C     0.74990   0.99997   0.64405   0.00000  Uiso   1.00
C1270  C     0.58002   0.66998   0.25002   0.00000  Uiso   1.00
C1271  C     0.83004   0.58004   0.74999   0.00000  Uiso   1.00
C1272  C     0.66996   0.91996   0.25001   0.00000  Uiso   1.00
C1273  C     0.58005   0.66997   0.74998   0.00000  Uiso   1.00
C1274  C     0.91993   0.83002   0.25000   0.00000  Uiso   1.00
C1275  C     0.63832   0.88833   0.25002   0.00000  Uiso   1.00
C1276  C     0.86167   0.61168   0.75000   0.00000  Uiso   1.00
C1277  C     0.61167   0.63833   0.25003   0.00000  Uiso   1.00
C1278  C     0.88832   0.86166   0.74999   0.00000  Uiso   1.00
C1279  C     0.86170   0.61165   0.24995   0.00000  Uiso   1.00
C1280  C     0.99996   0.75045   0.35620   0.00000  Uiso   1.00
C1281  C     0.63828   0.88836   0.75002   0.00000  Uiso   1.00
C1282  C     0.88830   0.86164   0.24999   0.00000  Uiso   1.00
C1283  C     0.61168   0.63834   0.74997   0.00000  Uiso   1.00
C1284  C     0.63831   0.61165   0.75002   0.00000  Uiso   1.00
C1285  C     0.86168   0.88833   0.24996   0.00000  Uiso   1.00
C1286  C     0.61170   0.86165   0.74995   0.00000  Uiso   1.00
C1287  C     0.88829   0.63835   0.25004   0.00000  Uiso   1.00
C1288  C     0.86168   0.88834   0.75001   0.00000  Uiso   1.00
C1289  C     0.63832   0.61165   0.25000   0.00000  Uiso   1.00
C1290  C     0.88832   0.63833   0.75002   0.00000  Uiso   1.00
C1291  C     0.50009   0.75052   0.64383   0.00000  Uiso   1.00
C1292  C     0.61166   0.86169   0.25001   0.00000  Uiso   1.00
C1293  C     0.50292   0.78920   0.41966   0.00000  Uiso   1.00
C1294  C     0.99996   0.71323   0.58005   0.00000  Uiso   1.00
C1295  C     0.71285   0.98968   0.41936   0.00000  Uiso   1.00
C1296  C     0.78584   0.51426   0.58100   0.00000  Uiso   1.00
C1297  C     0.98983   0.71294   0.41919   0.00000  Uiso   1.00
C1298  C     0.99521   0.79036   0.58121   0.00000  Uiso   1.00
C1299  C     0.78844   0.50392   0.41837   0.00000  Uiso   1.00
C1300  C     0.71521   0.98329   0.58108   0.00000  Uiso   1.00
C1301  C     0.72129   0.52982   0.91899   0.00000  Uiso   1.00
C1302  C     0.99983   0.74998   0.85588   0.00000  Uiso   1.00
C1303  C     0.76758   0.96553   0.08051   0.00000  Uiso   1.00
C1304  C     0.95961   0.75971   0.91739   0.00000  Uiso   1.00
C1305  C     0.53331   0.74455   0.08001   0.00000  Uiso   1.00
C1306  C     0.77117   0.97088   0.92064   0.00000  Uiso   1.00
C1307  C     0.73066   0.53364   0.08221   0.00000  Uiso   1.00
C1308  C     0.53339   0.73728   0.91973   0.00000  Uiso   1.00
C1309  C     0.95708   0.75840   0.08321   0.00000  Uiso   1.00
C1310  C     0.99908   0.75065   0.39920   0.00000  Uiso   1.00
C1311  C     0.99967   0.75152   0.60088   0.00000  Uiso   1.00
C1312  C     0.75003   0.99903   0.39848   0.00000  Uiso   1.00
C1313  C     0.99988   0.75014   0.14410   0.00000  Uiso   1.00
C1314  C     0.75013   0.99965   0.60147   0.00000  Uiso   1.00
C1315  C     0.74854   0.50140   0.89907   0.00000  Uiso   1.00
C1316  C     0.75008   0.99966   0.10149   0.00000  Uiso   1.00
C1317  C     0.99780   0.74978   0.89831   0.00000  Uiso   1.00
C1318  C     0.99635   0.75052   0.10165   0.00000  Uiso   1.00
C1319  C     0.98039   0.71473   0.45941   0.00000  Uiso   1.00
C1320  C     0.98512   0.79023   0.54104   0.00000  Uiso   1.00
C1321  C     0.78633   0.51318   0.45865   0.00000  Uiso   1.00
C1322  C     0.71969   0.97552   0.54073   0.00000  Uiso   1.00
C1323  C     0.98993   0.79112   0.45945   0.00000  Uiso   1.00
C1324  C     0.74980   0.50055   0.85619   0.00000  Uiso   1.00
C1325  C     0.98648   0.71311   0.54059   0.00000  Uiso   1.00
C1326  C     0.71687   0.97887   0.45928   0.00000  Uiso   1.00
C1327  C     0.78250   0.51991   0.54027   0.00000  Uiso   1.00
C1328  C     0.75909   0.96384   0.95960   0.00000  Uiso   1.00
C1329  C     0.72291   0.53019   0.04190   0.00000  Uiso   1.00
C1330  C     0.52814   0.72848   0.95970   0.00000  Uiso   1.00
C1331  C     0.95573   0.75877   0.04132   0.00000  Uiso   1.00
C1332  C     0.72498   0.53266   0.95995   0.00000  Uiso   1.00
C1333  C     0.75760   0.96105   0.04057   0.00000  Uiso   1.00
C1334  C     0.96008   0.76426   0.95850   0.00000  Uiso   1.00
C1335  C     0.75016   0.99928   0.14405   0.00000  Uiso   1.00
C1336  C     0.52969   0.73308   0.04067   0.00000  Uiso   1.00
C1337  C     0.98506   0.75269   0.47965   0.00000  Uiso   1.00
C1338  C     0.98531   0.75205   0.52061   0.00000  Uiso   1.00
C1339  C     0.75141   0.99666   0.47938   0.00000  Uiso   1.00
C1340  C     0.75122   0.99737   0.52013   0.00000  Uiso   1.00
C1341  C     0.74097   0.99736   0.98016   0.00000  Uiso   1.00
C1342  C     0.74035   0.99613   0.02101   0.00000  Uiso   1.00
C1343  C     0.99341   0.74590   0.97963   0.00000  Uiso   1.00
C1344  C     0.99275   0.74583   0.02070   0.00000  Uiso   1.00
C1345  C     0.96181   0.68109   0.47994   0.00000  Uiso   1.00
C1346  C     0.66997   0.58001   0.25000   0.00000  Uiso   1.00
C1347  C     0.97035   0.82610   0.52076   0.00000  Uiso   1.00
C1348  C     0.81513   0.54006   0.47853   0.00000  Uiso   1.00
C1349  C     0.69536   0.94530   0.52053   0.00000  Uiso   1.00
C1350  C     0.97720   0.82854   0.47963   0.00000  Uiso   1.00
C1351  C     0.96975   0.67733   0.52064   0.00000  Uiso   1.00
C1352  C     0.69052   0.94952   0.47942   0.00000  Uiso   1.00
C1353  C     0.80889   0.54742   0.51897   0.00000  Uiso   1.00
C1354  C     0.76133   0.92400   0.97797   0.00000  Uiso   1.00
C1355  C     0.69958   0.56043   0.02106   0.00000  Uiso   1.00
C1356  C     0.55549   0.70158   0.98020   0.00000  Uiso   1.00
H1357  H     0.58721   0.80795   0.43394   0.00000  Uiso   1.00
H1358  H     0.52138   0.64752   0.58084   0.00000  Uiso   1.00
H1359  H     0.65786   0.88818   0.53069   0.00000  Uiso   1.00
H1360  H     0.98673   0.93066   0.44473   0.00000  Uiso   1.00
H1361  H     0.52530   0.89676   0.46721   0.00000  Uiso   1.00
H1362  H     0.98398   0.91919   0.49587   0.00000  Uiso   1.00
H1363  H     0.96189   0.86285   0.42591   0.00000  Uiso   1.00
H1364  H     0.93042   0.87644   0.46507   0.00000  Uiso   1.00
H1365  H     0.97118   0.59136   0.49941   0.00000  Uiso   1.00
H1366  H     0.51094   0.60181   0.53464   0.00000  Uiso   1.00
H1367  H     0.96499   0.57200   0.54836   0.00000  Uiso   1.00
H1368  H     0.95372   0.64284   0.57436   0.00000  Uiso   1.00
H1369  H     0.66396   0.56109   0.42123   0.00000  Uiso   1.00
H1370  H     0.91911   0.63454   0.53641   0.00000  Uiso   1.00
H1371  H     0.60608   0.90835   0.49226   0.00000  Uiso   1.00
H1372  H     0.60771   0.95809   0.46791   0.00000  Uiso   1.00
H1373  H     0.59765   0.91066   0.44075   0.00000  Uiso   1.00
H1374  H     0.66909   0.91951   0.42546   0.00000  Uiso   1.00
H1375  H     0.67188   0.88538   0.46476   0.00000  Uiso   1.00
H1376  H     0.75843   0.61801   0.53268   0.00000  Uiso   1.00
H1377  H     0.79071   0.62676   0.49027   0.00000  Uiso   1.00
H1378  H     0.80122   0.65517   0.53449   0.00000  Uiso   1.00
H1379  H     0.81751   0.59007   0.56889   0.00000  Uiso   1.00
H1380  H     0.68430   0.55710   0.37224   0.00000  Uiso   1.00
H1381  H     0.85376   0.59813   0.53048   0.00000  Uiso   1.00
H1382  H     0.68583   0.88185   0.97382   0.00000  Uiso   1.00
H1383  H     0.69318   0.90962   0.92840   0.00000  Uiso   1.00
H1384  H     0.69667   0.85309   0.92971   0.00000  Uiso   1.00
H1385  H     0.76682   0.88519   0.92494   0.00000  Uiso   1.00
H1386  H     0.76177   0.85568   0.96754   0.00000  Uiso   1.00
H1387  H     0.62184   0.57332   0.98294   0.00000  Uiso   1.00
H1388  H     0.62153   0.52602   0.01221   0.00000  Uiso   1.00
H1389  H     0.59100   0.57100   0.02701   0.00000  Uiso   1.00
H1390  H     0.65270   0.56695   0.06727   0.00000  Uiso   1.00
H1391  H     0.62952   0.54770   0.38147   0.00000  Uiso   1.00
H1392  H     0.65835   0.61204   0.03626   0.00000  Uiso   1.00
H1393  H     0.53349   0.62111   0.00258   0.00000  Uiso   1.00
H1394  H     0.50518   0.63416   0.95872   0.00000  Uiso   1.00
H1395  H     0.54681   0.59562   0.95733   0.00000  Uiso   1.00
H1396  H     0.56917   0.66228   0.92887   0.00000  Uiso   1.00
H1397  H     0.60033   0.65006   0.96971   0.00000  Uiso   1.00
H1398  H     0.86524   0.70361   0.00834   0.00000  Uiso   1.00
H1399  H     0.88510   0.70543   0.05725   0.00000  Uiso   1.00
H1400  H     0.83069   0.71824   0.04783   0.00000  Uiso   1.00
H1401  H     0.86486   0.78751   0.05430   0.00000  Uiso   1.00
H1402  H     0.66792   0.97913   0.37258   0.00000  Uiso   1.00
H1403  H     0.85308   0.77756   0.00626   0.00000  Uiso   1.00
H1404  H     0.72609   0.64334   0.02105   0.00000  Uiso   1.00
H1405  H     0.77086   0.62715   0.99205   0.00000  Uiso   1.00
H1406  H     0.73976   0.67206   0.97772   0.00000  Uiso   1.00
H1407  H     0.72313   0.61317   0.93632   0.00000  Uiso   1.00
H1408  H     0.67774   0.62505   0.96587   0.00000  Uiso   1.00
H1409  H     0.81891   0.86499   0.02003   0.00000  Uiso   1.00
H1410  H     0.80541   0.84320   0.06696   0.00000  Uiso   1.00
H1411  H     0.78385   0.82064   0.02383   0.00000  Uiso   1.00
H1412  H     0.74663   0.88501   0.07166   0.00000  Uiso   1.00
H1413  H     0.64419   0.98633   0.41921   0.00000  Uiso   1.00
H1414  H     0.72682   0.86435   0.02847   0.00000  Uiso   1.00
H1415  H     0.89550   0.85730   0.01751   0.00000  Uiso   1.00
H1416  H     0.94636   0.86685   0.99529   0.00000  Uiso   1.00
H1417  H     0.89935   0.89026   0.97516   0.00000  Uiso   1.00
H1418  H     0.92007   0.83246   0.93445   0.00000  Uiso   1.00
H1419  H     0.87206   0.81865   0.95845   0.00000  Uiso   1.00
H1420  H     0.64884   0.68320   0.00425   0.00000  Uiso   1.00
H1421  H     0.63992   0.73168   0.02879   0.00000  Uiso   1.00
H1422  H     0.66048   0.68717   0.05522   0.00000  Uiso   1.00
H1423  H     0.58900   0.68357   0.07460   0.00000  Uiso   1.00
H1424  H     0.82536   0.95943   0.63552   0.00000  Uiso   1.00
H1425  H     0.59052   0.64843   0.03617   0.00000  Uiso   1.00
H1426  H     0.84708   0.95367   0.58712   0.00000  Uiso   1.00
H1427  H     0.87753   0.97789   0.62523   0.00000  Uiso   1.00
H1428  H     0.85286   0.53132   0.58216   0.00000  Uiso   1.00
H1429  H     0.58295   0.78067   0.38814   0.00000  Uiso   1.00
H1430  H     0.82592   0.53824   0.62745   0.00000  Uiso   1.00
H1431  H     0.56010   0.68717   0.37554   0.00000  Uiso   1.00
H1432  H     0.56096   0.66269   0.42296   0.00000  Uiso   1.00
H1433  H     0.55021   0.63182   0.38012   0.00000  Uiso   1.00
H1434  H     0.98630   0.64376   0.41636   0.00000  Uiso   1.00
H1435  H     0.98194   0.66961   0.37054   0.00000  Uiso   1.00
H1436  H     0.57032   0.80440   0.62141   0.00000  Uiso   1.00
H1437  H     0.57261   0.83029   0.57471   0.00000  Uiso   1.00
H1438  H     0.56835   0.86076   0.61879   0.00000  Uiso   1.00
H1439  H     0.50206   0.85922   0.58455   0.00000  Uiso   1.00
H1440  H     0.59629   0.83562   0.38884   0.00000  Uiso   1.00
H1441  H     0.99575   0.83363   0.63042   0.00000  Uiso   1.00
H1442  H     0.82876   0.92695   0.42549   0.00000  Uiso   1.00
H1443  H     0.80345   0.92880   0.37858   0.00000  Uiso   1.00
H1444  H     0.85987   0.93106   0.38165   0.00000  Uiso   1.00
H1445  H     0.83234   0.50332   0.36944   0.00000  Uiso   1.00
H1446  H     0.85727   0.99720   0.41527   0.00000  Uiso   1.00
H1447  H     0.67356   0.53770   0.63467   0.00000  Uiso   1.00
H1448  H     0.65272   0.54271   0.58593   0.00000  Uiso   1.00
H1449  H     0.62199   0.51811   0.62383   0.00000  Uiso   1.00
H1450  H     0.64873   0.96479   0.58150   0.00000  Uiso   1.00
H1451  H     0.52090   0.82951   0.37095   0.00000  Uiso   1.00
H1452  H     0.67486   0.95896   0.62733   0.00000  Uiso   1.00
H1453  H     0.65738   0.98720   0.88344   0.00000  Uiso   1.00
H1454  H     0.63462   0.51103   0.92596   0.00000  Uiso   1.00
H1455  H     0.62121   0.53056   0.87823   0.00000  Uiso   1.00
H1456  H     0.66950   0.57629   0.91413   0.00000  Uiso   1.00
H1457  H     0.69151   0.56182   0.86950   0.00000  Uiso   1.00
H1458  H     0.85436   0.97380   0.06679   0.00000  Uiso   1.00
H1459  H     0.84006   0.99879   0.11187   0.00000  Uiso   1.00
H1460  H     0.87029   0.95086   0.11251   0.00000  Uiso   1.00
H1461  H     0.79705   0.93083   0.12823   0.00000  Uiso   1.00
H1462  H     0.52871   0.85338   0.41677   0.00000  Uiso   1.00
H1463  H     0.81259   0.91312   0.08173   0.00000  Uiso   1.00
H1464  H     0.92958   0.69752   0.86622   0.00000  Uiso   1.00
H1465  H     0.90250   0.69454   0.91240   0.00000  Uiso   1.00
H1466  H     0.87531   0.71284   0.86954   0.00000  Uiso   1.00
H1467  H     0.89132   0.77100   0.91096   0.00000  Uiso   1.00
H1468  H     0.92078   0.77708   0.86743   0.00000  Uiso   1.00
H1469  H     0.57150   0.82205   0.06906   0.00000  Uiso   1.00
H1470  H     0.54994   0.82091   0.11765   0.00000  Uiso   1.00
H1471  H     0.60598   0.81932   0.11065   0.00000  Uiso   1.00
H1472  H     0.58073   0.74690   0.12600   0.00000  Uiso   1.00
H1473  H     0.58306   0.68950   0.56608   0.00000  Uiso   1.00
H1474  H     0.60199   0.75250   0.07852   0.00000  Uiso   1.00
H1475  H     0.83940   0.51051   0.88711   0.00000  Uiso   1.00
H1476  H     0.85583   0.99124   0.93393   0.00000  Uiso   1.00
H1477  H     0.87544   0.96687   0.89010   0.00000  Uiso   1.00
H1478  H     0.82218   0.92460   0.92402   0.00000  Uiso   1.00
H1479  H     0.80553   0.93649   0.87567   0.00000  Uiso   1.00
H1480  H     0.78980   0.57438   0.13116   0.00000  Uiso   1.00
H1481  H     0.78915   0.59762   0.08311   0.00000  Uiso   1.00
H1482  H     0.76824   0.62598   0.12428   0.00000  Uiso   1.00
H1483  H     0.71146   0.60052   0.08605   0.00000  Uiso   1.00
H1484  H     0.57999   0.71465   0.61296   0.00000  Uiso   1.00
H1485  H     0.70996   0.57306   0.13087   0.00000  Uiso   1.00
H1486  H     0.57132   0.79772   0.87017   0.00000  Uiso   1.00
H1487  H     0.59124   0.80161   0.91929   0.00000  Uiso   1.00
H1488  H     0.62431   0.78179   0.88069   0.00000  Uiso   1.00
H1489  H     0.60138   0.72437   0.92072   0.00000  Uiso   1.00
H1490  H     0.57738   0.71858   0.87403   0.00000  Uiso   1.00
H1491  H     0.88682   0.82902   0.12582   0.00000  Uiso   1.00
H1492  H     0.94332   0.83442   0.12486   0.00000  Uiso   1.00
H1493  H     0.91441   0.83329   0.08001   0.00000  Uiso   1.00
H1494  H     0.89083   0.75623   0.10233   0.00000  Uiso   1.00
H1495  H     0.58938   0.65902   0.61002   0.00000  Uiso   1.00
H1496  H     0.92428   0.76208   0.13984   0.00000  Uiso   1.00
H1497  H     0.87902   0.68606   0.50753   0.00000  Uiso   1.00
H1498  H     0.88600   0.72038   0.46616   0.00000  Uiso   1.00
H1499  H     0.85449   0.67369   0.46173   0.00000  Uiso   1.00
H1500  H     0.92196   0.66319   0.43031   0.00000  Uiso   1.00
H1501  H     0.91850   0.62888   0.47064   0.00000  Uiso   1.00
H1502  H     0.88717   0.83147   0.49731   0.00000  Uiso   1.00
H1503  H     0.88918   0.80051   0.54122   0.00000  Uiso   1.00
H1504  H     0.86652   0.85248   0.54215   0.00000  Uiso   1.00
H1505  H     0.93619   0.85066   0.57189   0.00000  Uiso   1.00
H1506  H     0.51418   0.66994   0.62756   0.00000  Uiso   1.00
H1507  H     0.93597   0.88502   0.53148   0.00000  Uiso   1.00
H1508  H     0.91753   0.55779   0.44799   0.00000  Uiso   1.00
H1509  H     0.90172   0.55613   0.49850   0.00000  Uiso   1.00
H1510  H     0.89363   0.51130   0.46827   0.00000  Uiso   1.00
H1511  H     0.84601   0.56357   0.42539   0.00000  Uiso   1.00
H1512  H     0.84908   0.59761   0.46425   0.00000  Uiso   1.00
H1513  H     0.71763   0.84215   0.54678   0.00000  Uiso   1.00
H1514  H     0.75350   0.88604   0.54652   0.00000  Uiso   1.00
H1515  H     0.73003   0.86839   0.50165   0.00000  Uiso   1.00
H1516  H     0.68446   0.90565   0.57239   0.00000  Uiso   1.00
O1517  O     0.75000   0.50000   0.25000   0.00000  Uiso   1.00
O1518  O     0.75000   0.96538   0.66251   0.00000  Uiso   1.00
O1519  O     0.96539   0.75000   0.33749   0.00000  Uiso   1.00
O1520  O     0.53462   0.75000   0.66251   0.00000  Uiso   1.00
O1521  O     0.50000   0.71539   0.83749   0.00000  Uiso   1.00
O1522  O     0.50000   0.78461   0.16251   0.00000  Uiso   1.00
O1523  O     0.78462   0.50000   0.83749   0.00000  Uiso   1.00
O1524  O     0.71539   0.50000   0.16251   0.00000  Uiso   1.00
O1525  O     0.50000   0.78462   0.83749   0.00000  Uiso   1.00
O1526  O     0.50000   0.71539   0.16251   0.00000  Uiso   1.00
O1527  O     0.71539   0.50000   0.83749   0.00000  Uiso   1.00
O1528  O     0.75000   0.50000   0.75000   0.00000  Uiso   1.00
O1529  O     0.78462   0.50000   0.16251   0.00000  Uiso   1.00
O1530  O     0.70127   0.58332   0.27298   0.00000  Uiso   1.00
O1531  O     0.79874   0.91668   0.72702   0.00000  Uiso   1.00
O1532  O     0.91668   0.70126   0.27298   0.00000  Uiso   1.00
O1533  O     0.58332   0.79873   0.72702   0.00000  Uiso   1.00
O1534  O     0.79874   0.91668   0.27298   0.00000  Uiso   1.00
O1535  O     0.70127   0.58332   0.72702   0.00000  Uiso   1.00
O1536  O     0.58332   0.79873   0.27298   0.00000  Uiso   1.00
O1537  O     0.91668   0.70126   0.72702   0.00000  Uiso   1.00
O1538  O     0.70127   0.91668   0.72702   0.00000  Uiso   1.00
O1539  O     0.50000   0.75000   0.25000   0.00000  Uiso   1.00
O1540  O     0.79874   0.58332   0.27298   0.00000  Uiso   1.00
O1541  O     0.91668   0.79873   0.72702   0.00000  Uiso   1.00
O1542  O     0.58332   0.70126   0.27298   0.00000  Uiso   1.00
O1543  O     0.79874   0.58332   0.72702   0.00000  Uiso   1.00
O1544  O     0.70127   0.91668   0.27298   0.00000  Uiso   1.00
O1545  O     0.58332   0.70126   0.72702   0.00000  Uiso   1.00
O1546  O     0.91668   0.79873   0.27298   0.00000  Uiso   1.00
O1547  O     0.95127   0.83332   0.77298   0.00000  Uiso   1.00
O1548  O     0.54874   0.66668   0.22702   0.00000  Uiso   1.00
O1549  O     0.66668   0.95126   0.77298   0.00000  Uiso   1.00
O1550  O     0.50000   0.75000   0.75000   0.00000  Uiso   1.00
O1551  O     0.83332   0.54873   0.22702   0.00000  Uiso   1.00
O1552  O     0.54874   0.66668   0.77298   0.00000  Uiso   1.00
O1553  O     0.95127   0.83332   0.22702   0.00000  Uiso   1.00
O1554  O     0.83332   0.54873   0.77298   0.00000  Uiso   1.00
O1555  O     0.66668   0.95126   0.22702   0.00000  Uiso   1.00
O1556  O     0.95127   0.66668   0.22702   0.00000  Uiso   1.00
O1557  O     0.54874   0.83332   0.77298   0.00000  Uiso   1.00
O1558  O     0.66668   0.54873   0.22702   0.00000  Uiso   1.00
O1559  O     0.83332   0.95126   0.77298   0.00000  Uiso   1.00
O1560  O     0.54874   0.83332   0.22702   0.00000  Uiso   1.00
O1561  O     0.75000   0.96538   0.33749   0.00000  Uiso   1.00
O1562  O     0.95127   0.66668   0.77298   0.00000  Uiso   1.00
O1563  O     0.83332   0.95126   0.22702   0.00000  Uiso   1.00
O1564  O     0.66668   0.54873   0.77298   0.00000  Uiso   1.00
O1565  O     0.75000   0.53461   0.66251   0.00000  Uiso   1.00
O1566  O     0.53462   0.75000   0.33749   0.00000  Uiso   1.00
O1567  O     0.96539   0.75000   0.66251   0.00000  Uiso   1.00
O1568  O     0.75000   0.53461   0.33749   0.00000  Uiso   1.00
Zn1569 Zn    0.70053   0.50000   0.21730   0.00000  Uiso   1.00
Zn1570 Zn    0.54948   0.75000   0.28270   0.00000  Uiso   1.00
Zn1571 Zn    0.75000   0.95052   0.71730   0.00000  Uiso   1.00
Zn1572 Zn    0.75000   0.54947   0.28270   0.00000  Uiso   1.00
Zn1573 Zn    0.54948   0.75000   0.71730   0.00000  Uiso   1.00
Zn1574 Zn    0.95053   0.75000   0.28270   0.00000  Uiso   1.00
Zn1575 Zn    0.75000   0.54947   0.71730   0.00000  Uiso   1.00
Zn1576 Zn    0.75000   0.95052   0.28270   0.00000  Uiso   1.00
Zn1577 Zn    0.79948   0.50000   0.78270   0.00000  Uiso   1.00
Zn1578 Zn    0.50000   0.70053   0.21730   0.00000  Uiso   1.00
Zn1579 Zn    0.50000   0.79948   0.78270   0.00000  Uiso   1.00
Zn1580 Zn    0.79948   0.50000   0.21730   0.00000  Uiso   1.00
Zn1581 Zn    0.70053   0.50000   0.78270   0.00000  Uiso   1.00
Zn1582 Zn    0.50000   0.79948   0.21730   0.00000  Uiso   1.00
Zn1583 Zn    0.50000   0.70053   0.78270   0.00000  Uiso   1.00
Zn1584 Zn    0.95053   0.75000   0.71730   0.00000  Uiso   1.00
loop_
_geom_bond_atom_site_label_1
_geom_bond_atom_site_label_2
_geom_bond_distance
_geom_bond_site_symmetry_2
_ccdc_geom_bond_type
C1     C124    1.461   .     S
C1     O373    1.267   .     A
C1     O1172   1.274   .     S
C2     O371    1.276   .     A
C2     O343    1.275   .     A
C2     C100    1.422   .     S
C3     C143    1.439   .     A
C3     C67     1.524   .     S
C3     C6      1.410   1_554 S
C4     C144    1.415   .     A
C4     C70     1.522   .     S
C4     C167    1.401   1_556 S
C5     C145    1.431   .     A
C5     C72     1.532   .     S
C5     C166    1.428   1_554 S
C6     C146    1.409   .     A
C6     C74     1.529   .     S
C6     C3      1.410   1_556 S
C7     C76     1.526   .     S
C7     C148    1.432   .     A
C7     C168    1.417   1_554 S
C8     C105    1.525   .     S
C8     H263    1.111   .     S
C8     C9      1.530   .     S
C8     H274    1.094   .     S
C9     H169    1.111   .     S
C9     H241    1.108   .     S
C9     H252    1.111   .     S
C10    C11     1.530   .     S
C10    H170    1.094   .     S
C10    H318    1.111   .     S
C10    C502    1.525   1_455 S
C11    H307    1.111   .     S
C11    H285    1.111   .     S
C11    H296    1.107   .     S
C12    H214    1.111   .     S
C12    C107    1.523   .     S
C12    H225    1.099   .     S
C12    C806    1.529   .     S
C13    C99     1.423   .     S
C13    O344    1.275   .     A
C13    O368    1.273   .     A
C14    H181    1.111   .     S
C14    H192    1.106   .     S
C14    H203    1.111   .     S
C14    C804    1.529   1_545 S
C15    H242    1.111   .     S
C15    C108    1.529   .     S
C15    H240    1.108   .     S
C15    C808    1.529   1_545 S
C16    H239    1.111   .     S
C16    H238    1.111   .     S
C16    H236    1.107   .     S
C16    C807    1.529   .     S
C17    C109    1.529   .     S
C17    H247    1.111   .     S
C17    H246    1.107   .     S
C17    C414    1.529   .     S
C18    H243    1.107   .     S
C18    H244    1.111   .     S
C18    H245    1.111   .     S
C18    C413    1.529   1_455 S
C19    C20     1.529   .     S
C19    H251    1.106   .     S
C19    C506    1.528   1_455 S
C19    H649    1.111   1_455 S
C20    H249    1.111   .     S
C20    H250    1.111   .     S
C20    H248    1.107   .     S
C21    C22     1.530   .     S
C21    H258    1.096   .     S
C21    C903    1.525   .     S
C21    H1049   1.111   .     S
C22    H255    1.107   .     S
C22    H256    1.111   .     S
C22    H254    1.111   .     S
C23    C112    1.527   .     S
C23    H264    1.111   .     S
C23    H262    1.109   .     S
C23    C817    1.529   .     S
C24    C98     1.423   .     S
C24    O345    1.275   .     A
C24    O369    1.274   .     A
C25    H260    1.111   .     S
C25    H261    1.111   .     S
C25    H259    1.107   .     S
C25    C815    1.529   1_545 S
C26    H269    1.109   .     S
C26    C27     1.531   .     S
C26    C113    1.531   .     S
C26    H268    1.100   .     S
C27    H266    1.111   .     S
C27    H267    1.110   .     S
C27    H1057   1.109   1_545 S
C28    H275    1.095   .     S
C28    H273    1.110   .     S
C28    C29     1.530   .     S
C28    C115    1.525   .     S
C29    H271    1.108   .     S
C29    H270    1.111   .     S
C29    H272    1.111   .     S
C30    H280    1.110   .     S
C30    C116    1.530   .     S
C30    C31     1.529   .     S
C30    H279    1.102   .     S
C31    H276    1.106   .     S
C31    H278    1.111   .     S
C31    H277    1.111   .     S
C32    H286    1.095   .     S
C32    C117    1.528   .     S
C32    C33     1.530   .     S
C32    H284    1.111   .     S
C33    H283    1.111   .     S
C33    H282    1.107   .     S
C33    H281    1.111   .     S
C34    C118    1.524   .     S
C34    H291    1.110   .     S
C34    C36     1.530   .     S
C34    H290    1.109   .     S
C35    O346    1.273   .     A
C35    O375    1.274   .     A
C35    C97     1.422   .     S
C36    H289    1.110   .     S
C36    H288    1.111   .     S
C36    H1079   1.108   .     S
C37    H297    1.110   .     S
C37    C38     1.530   .     S
C37    H295    1.102   .     S
C37    C119    1.535   .     S
C38    H293    1.111   .     S
C38    H294    1.111   .     S
C38    H292    1.108   .     S
C39    C120    1.528   .     S
C39    C40     1.529   .     S
C39    H302    1.111   .     S
C39    H301    1.109   .     S
C40    H300    1.111   .     S
C40    H299    1.111   .     S
C40    H298    1.107   .     S
C41    H306    1.097   .     S
C41    C42     1.529   .     S
C41    H308    1.107   .     S
C41    C121    1.531   .     S
C42    H303    1.110   .     S
C42    H305    1.107   .     S
C42    H304    1.110   .     S
C43    C44     1.531   .     S
C43    H312    1.107   .     S
C43    C157    1.526   .     S
C43    H313    1.101   .     S
C44    H309    1.109   .     S
C44    H311    1.110   .     S
C44    H310    1.111   .     S
C45    H317    1.107   .     S
C45    C47     1.531   .     S
C45    H319    1.106   .     S
C45    C159    1.530   .     S
C46    O376    1.274   .     A
C46    C96     1.422   .     S
C46    O347    1.273   .     A
C47    H316    1.111   .     S
C47    H314    1.109   .     S
C47    H315    1.111   .     S
C48    C160    1.523   .     S
C48    H324    1.104   .     S
C48    C49     1.533   .     S
C48    H323    1.106   .     S
C49    H321    1.108   .     S
C49    H320    1.110   .     S
C49    H322    1.110   .     S
C50    H171    1.104   .     S
C50    H328    1.105   .     S
C50    C51     1.529   .     S
C50    C161    1.530   .     S
C51    H326    1.111   .     S
C51    H327    1.109   .     S
C51    H325    1.110   .     S
C52    H175    1.108   .     S
C52    C53     1.534   .     S
C52    C162    1.528   .     S
C52    H176    1.107   .     S
C53    H172    1.110   .     S
C53    H174    1.108   .     S
C53    H569    1.108   .     S
C54    C163    1.526   .     S
C54    C55     1.534   .     S
C54    H182    1.105   .     S
C54    H180    1.107   .     S
C55    H179    1.110   .     S
C55    H177    1.108   .     S
C55    H574    1.108   .     S
C56    C164    1.530   .     S
C56    H187    1.108   .     S
C56    C58     1.535   .     S
C56    H186    1.107   .     S
C57    C104    1.424   .     S
C57    O372    1.275   .     A
C57    O348    1.274   .     A
C58    H183    1.107   .     S
C58    H184    1.110   .     S
C58    H185    1.111   .     S
C59    H191    1.106   .     S
C59    C60     1.530   .     S
C59    H193    1.106   .     S
C59    C165    1.530   .     S
C60    H188    1.111   .     S
C60    H190    1.110   .     S
C60    H189    1.108   .     S
C61    C166    1.531   .     S
C61    H197    1.104   .     S
C61    C62     1.529   .     S
C61    H198    1.103   .     S
C62    H196    1.111   .     S
C62    H194    1.110   .     S
C62    H195    1.111   .     S
C63    H202    1.110   .     S
C63    C167    1.519   .     S
C63    C64     1.529   .     S
C63    H204    1.105   .     S
C64    H201    1.110   .     S
C64    H200    1.111   .     S
C64    H199    1.110   1_554 S
C65    H208    1.107   .     S
C65    C168    1.530   .     S
C65    H209    1.105   .     S
C65    C66     1.529   .     S
C66    H207    1.110   .     S
C66    H206    1.111   .     S
C66    H205    1.109   1_556 S
C67    H215    1.107   .     S
C67    C69     1.531   .     S
C67    H213    1.101   .     S
C68    O349    1.275   .     A
C68    C102    1.424   .     S
C68    O374    1.275   .     A
C69    H211    1.109   .     S
C69    H210    1.111   .     S
C69    H212    1.110   .     S
C70    H219    1.110   .     S
C70    C71     1.530   .     S
C70    H220    1.110   .     S
C71    H218    1.110   .     S
C71    H217    1.111   .     S
C71    H216    1.110   1_556 S
C72    H224    1.110   .     S
C72    C73     1.539   .     S
C72    H226    1.109   .     S
C73    H221    1.110   .     S
C73    H223    1.111   .     S
C73    H222    1.111   .     S
C74    C75     1.528   .     S
C74    H231    1.109   .     S
C74    H230    1.111   .     S
C75    H229    1.111   .     S
C75    H228    1.111   .     S
C75    H227    1.108   1_556 S
C76    H237    1.106   .     S
C76    C77     1.537   .     S
C76    H235    1.107   .     S
C77    H234    1.110   .     S
C77    H233    1.109   .     S
C77    H232    1.106   .     S
C78    O361    1.275   .     A
C78    O350    1.273   .     A
C78    C93     1.423   .     S
C79    O363    1.275   .     A
C79    C91     1.423   .     S
C79    O352    1.273   .     A
C80    O359    1.275   .     A
C80    O353    1.276   .     A
C80    C90     1.422   .     S
C81    O330    1.270   .     A
C81    C126    1.462   .     S
C81    O1169   1.273   .     S
C82    C89     1.422   .     S
C82    O354    1.276   .     A
C82    O360    1.275   .     A
C83    O366    1.274   .     A
C83    C88     1.424   .     S
C83    O355    1.275   .     A
C84    O356    1.275   .     A
C84    C87     1.424   .     S
C84    O367    1.275   .     A
C85    C95     1.422   .     S
C85    O357    1.274   .     A
C85    O364    1.273   .     A
C86    O358    1.274   .     A
C86    C94     1.422   .     S
C86    O365    1.273   .     A
C87    C104    1.199   .     T
C88    C102    1.199   .     T
C89    C101    1.198   .     T
C90    C100    1.198   .     T
C91    C99     1.199   .     T
C92    C122    1.477   .     S
C92    O331    1.274   .     A
C92    O774    1.273   .     S
C93    C98     1.199   .     T
C94    C97     1.198   .     T
C95    C96     1.198   .     T
C101   C158    1.422   .     S
C103   O332    1.272   .     A
C103   C519    1.475   1_455 S
C103   O775    1.274   1_455 S
C105   C518    1.420   1_455 S
C105   C531    1.428   1_455 S
C106   C137    1.422   .     A
C106   C123    1.414   .     A
C106   C406    1.525   .     S
C107   C124    1.412   .     A
C107   C138    1.419   .     A
C108   C139    1.414   .     A
C108   C918    1.412   1_545 S
C109   C131    1.413   .     A
C109   C122    1.413   .     A
C110   C123    1.415   .     A
C110   C132    1.417   .     A
C110   C415    1.528   .     S
C111   C133    1.416   .     A
C111   C813    1.525   1_545 S
C111   C916    1.408   1_545 S
C112   C134    1.414   .     A
C112   C126    1.413   .     A
C113   C144    1.414   .     A
C113   C127    1.426   .     A
C114   C129    1.458   .     S
C114   O729    1.270   .     S
C114   O733    1.270   .     S
C115   C128    1.417   .     A
C115   C145    1.416   .     A
C116   C146    1.419   .     A
C116   C129    1.413   .     A
C117   C148    1.404   .     A
C117   C526    1.401   1_455 S
C118   C140    1.408   .     A
C118   C919    1.417   .     S
C119   C141    1.411   .     A
C119   C920    1.410   1_545 S
C120   C142    1.410   .     A
C120   C525    1.407   1_455 S
C121   C130    1.422   .     A
C121   C143    1.439   .     A
C122   C501    1.420   .     S
C123   C499    1.475   .     S
C124   C903    1.408   .     S
C125   O730    1.267   .     A
C125   C130    1.462   .     S
C125   O734    1.273   .     S
C126   C900    1.412   .     S
C127   C136    1.473   .     S
C127   C910    1.417   1_545 S
C128   C147    1.461   .     S
C128   C911    1.410   .     S
C129   C516    1.407   .     S
C130   C513    1.401   .     S
C131   C149    1.403   .     A
C131   C157    1.410   .     A
C132   C150    1.404   .     A
C132   C159    1.416   .     A
C133   C160    1.429   .     A
C133   C943    1.418   1_545 S
C134   C161    1.418   .     A
C134   C152    1.409   .     A
C135   C149    1.414   .     A
C135   C162    1.436   .     A
C135   C501    1.428   .     S
C136   O335    1.278   .     S
C136   O339    1.269   .     S
C137   C163    1.433   .     A
C137   C150    1.416   .     A
C138   C151    1.416   .     A
C138   C164    1.432   .     A
C139   C165    1.414   .     A
C139   C944    1.409   1_545 S
C140   C153    1.403   .     A
C140   C166    1.417   .     A
C141   C167    1.409   .     A
C141   C946    1.413   1_545 S
C142   C168    1.408   .     A
C142   C551    1.410   1_455 S
C143   C156    1.432   .     A
C144   C945    1.414   1_545 S
C145   C154    1.413   .     A
C146   C155    1.410   .     A
C147   O1128   1.273   .     S
C147   O1133   1.266   .     S
C148   C552    1.419   1_455 S
C149   C150    1.406   .     A
C151   C152    1.399   .     A
C151   C925    1.418   .     S
C152   C931    1.409   .     S
C153   C936    1.414   .     S
C153   C154    1.403   1_556 S
C154   C933    1.413   .     S
C154   C153    1.403   1_554 S
C155   C538    1.410   .     S
C155   C156    1.410   1_556 S
C156   C544    1.419   .     S
C156   C155    1.410   1_554 S
C157   C163    1.425   .     A
C158   O370    1.276   .     A
C158   O342    1.275   .     A
C159   C162    1.430   .     A
C160   C165    1.422   .     A
C161   C164    1.426   .     A
C166   C5      1.428   1_556 S
C167   C4      1.401   1_554 S
C168   C7      1.417   1_556 S
H173   C449    1.108   1_455 S
H178   C451    1.108   1_455 S
H199   C64     1.110   1_556 S
H205   C66     1.109   1_554 S
H216   C71     1.110   1_554 S
H227   C75     1.108   1_554 S
H253   C415    1.111   .     S
H257   C813    1.111   1_545 S
H265   C819    1.109   .     S
H287   C828    1.108   1_545 S
O329   Zn1180  1.933   1_545 S
O329   Zn381   1.934   .     S
O329   Zn384   1.935   .     S
O329   Zn392   1.929   .     S
O330   Zn383   1.939   .     S
O331   Zn386   1.940   .     S
O332   Zn385   1.940   .     S
O333   Zn395   1.940   .     S
O333   C510    1.270   1_455 S
O334   C521    1.267   1_455 A
O334   Zn394   1.940   .     S
O335   Zn389   1.938   .     S
O336   Zn381   1.938   .     S
O336   C939    1.273   1_545 S
O337   Zn391   1.939   .     S
O337   C510    1.270   1_455 S
O338   Zn390   1.939   .     S
O338   C521    1.273   1_455 S
O339   Zn393   1.940   .     S
O340   Zn387   1.933   .     S
O340   Zn1175  1.935   1_545 S
O340   Zn389   1.934   .     S
O340   Zn393   1.929   .     S
O341   Zn392   1.940   .     S
O341   C939    1.266   1_545 S
O342   Zn384   1.915   .     S
O343   Zn383   1.915   .     S
O344   Zn386   1.918   .     S
O345   Zn385   1.918   .     S
O346   Zn388   1.914   .     S
O347   Zn387   1.914   .     S
O348   Zn382   1.917   .     S
O349   Zn396   1.917   .     S
O350   Zn383   1.915   .     S
O351   Zn390   1.935   .     S
O351   Zn394   1.933   .     S
O351   Zn382   1.934   .     S
O351   Zn782   1.929   1_455 S
O352   Zn384   1.915   .     S
O353   Zn396   1.916   .     S
O354   Zn382   1.916   .     S
O355   Zn387   1.917   .     S
O356   Zn388   1.917   .     S
O357   Zn385   1.916   .     S
O358   Zn386   1.916   .     S
O359   Zn787   1.915   .     S
O360   Zn390   1.915   .     S
O361   Zn1185  1.918   .     S
O362   Zn385   1.929   .     S
O362   Zn391   1.935   .     S
O362   Zn395   1.933   .     S
O362   Zn792   1.934   1_455 S
O363   Zn392   1.918   .     S
O364   Zn395   1.914   .     S
O365   Zn790   1.914   .     S
O366   Zn389   1.917   .     S
O367   Zn1173  1.917   .     S
O368   Zn786   1.915   .     S
O369   Zn391   1.915   .     S
O370   Zn381   1.916   .     S
O371   Zn1181  1.916   .     S
O372   Zn394   1.917   .     S
O373   Zn388   1.940   .     S
O374   Zn791   1.917   .     S
O375   Zn1184  1.916   .     S
O376   Zn393   1.916   .     S
O377   Zn387   1.940   .     S
O377   C873    1.273   1_545 S
O378   Zn382   1.938   .     S
O378   C488    1.273   1_455 S
O379   Zn396   1.938   .     S
O379   C499    1.274   .     S
O380   Zn384   1.939   .     S
O380   C793    1.274   1_545 S
Zn381  O1159   1.917   1_545 S
Zn383  O1132   1.935   .     S
Zn386  O747    1.929   .     S
Zn388  O1121   1.933   .     S
Zn389  O1163   1.916   1_545 S
Zn390  O764    1.915   1_455 S
Zn391  O755    1.915   1_455 S
Zn392  O1167   1.916   1_545 S
Zn393  O1153   1.918   1_545 S
Zn394  O761    1.914   1_455 S
Zn395  O770    1.917   1_455 S
Zn396  O758    1.934   .     S
C397   C520    1.461   .     S
C397   O769    1.267   .     A
C397   O1568   1.274   .     S
C398   O767    1.276   .     A
C398   O739    1.275   .     A
C398   C496    1.422   .     S
C399   C539    1.439   .     A
C399   C463    1.524   .     S
C399   C402    1.410   1_554 S
C400   C540    1.415   .     A
C400   C466    1.522   .     S
C400   C563    1.401   1_556 S
C401   C541    1.431   .     A
C401   C468    1.532   .     S
C401   C562    1.428   1_554 S
C402   C542    1.409   .     A
C402   C470    1.529   .     S
C402   C399    1.410   1_556 S
C403   C472    1.526   .     S
C403   C544    1.432   .     A
C403   C564    1.417   1_554 S
C404   C501    1.525   .     S
C404   H659    1.111   .     S
C404   C405    1.530   .     S
C404   H670    1.094   .     S
C405   H565    1.111   .     S
C405   H637    1.108   .     S
C405   H648    1.111   .     S
C406   C407    1.530   .     S
C406   H566    1.094   .     S
C406   H714    1.111   .     S
C407   H703    1.111   .     S
C407   H681    1.111   .     S
C407   H692    1.107   .     S
C408   H610    1.111   .     S
C408   C503    1.523   .     S
C408   H621    1.099   .     S
C408   C1202   1.529   .     S
C409   C495    1.423   .     S
C409   O740    1.275   .     A
C409   O764    1.273   .     A
C410   H577    1.111   .     S
C410   H588    1.106   .     S
C410   H599    1.111   .     S
C410   C1200   1.529   1_545 S
C411   H638    1.111   .     S
C411   C504    1.529   .     S
C411   H636    1.108   .     S
C411   C1204   1.529   1_545 S
C412   H635    1.111   .     S
C412   H634    1.111   .     S
C412   H632    1.107   .     S
C412   C1203   1.529   .     S
C413   C505    1.529   .     S
C413   H643    1.111   .     S
C413   H642    1.107   .     S
C413   C18     1.529   1_655 S
C414   H639    1.107   .     S
C414   H640    1.111   .     S
C414   H641    1.111   .     S
C415   C416    1.529   .     S
C415   H647    1.106   .     S
C416   H645    1.111   .     S
C416   H646    1.111   .     S
C416   H644    1.107   .     S
C417   C418    1.530   .     S
C417   H654    1.096   .     S
C417   C1299   1.525   .     S
C417   H1445   1.111   .     S
C418   H651    1.107   .     S
C418   H652    1.111   .     S
C418   H650    1.111   .     S
C419   C508    1.527   .     S
C419   H660    1.111   .     S
C419   H658    1.109   .     S
C419   C1213   1.529   .     S
C420   C494    1.423   .     S
C420   O741    1.275   .     A
C420   O765    1.274   .     A
C421   H656    1.111   .     S
C421   H657    1.111   .     S
C421   H655    1.107   .     S
C421   C1211   1.529   1_545 S
C422   H665    1.109   .     S
C422   C423    1.531   .     S
C422   C509    1.531   .     S
C422   H664    1.100   .     S
C423   H662    1.111   .     S
C423   H663    1.110   .     S
C423   H1453   1.109   1_545 S
C424   H671    1.095   .     S
C424   H669    1.110   .     S
C424   C425    1.530   .     S
C424   C511    1.525   .     S
C425   H667    1.108   .     S
C425   H666    1.111   .     S
C425   H668    1.111   .     S
C426   H676    1.110   .     S
C426   C512    1.530   .     S
C426   C427    1.529   .     S
C426   H675    1.102   .     S
C427   H672    1.106   .     S
C427   H674    1.111   .     S
C427   H673    1.111   .     S
C428   H682    1.095   .     S
C428   C513    1.528   .     S
C428   C429    1.530   .     S
C428   H680    1.111   .     S
C429   H679    1.111   .     S
C429   H678    1.107   .     S
C429   H677    1.111   .     S
C430   C514    1.524   .     S
C430   H687    1.110   .     S
C430   C432    1.530   .     S
C430   H686    1.109   .     S
C431   O742    1.273   .     A
C431   O771    1.274   .     A
C431   C493    1.422   .     S
C432   H685    1.110   .     S
C432   H684    1.111   .     S
C432   H1475   1.108   .     S
C433   H693    1.110   .     S
C433   C434    1.530   .     S
C433   H691    1.102   .     S
C433   C515    1.535   .     S
C434   H689    1.111   .     S
C434   H690    1.111   .     S
C434   H688    1.108   .     S
C435   C516    1.528   .     S
C435   C436    1.529   .     S
C435   H698    1.111   .     S
C435   H697    1.109   .     S
C436   H696    1.111   .     S
C436   H695    1.111   .     S
C436   H694    1.107   .     S
C437   H702    1.097   .     S
C437   C438    1.529   .     S
C437   H704    1.107   .     S
C437   C517    1.531   .     S
C438   H699    1.110   .     S
C438   H701    1.107   .     S
C438   H700    1.110   .     S
C439   C440    1.531   .     S
C439   H708    1.107   .     S
C439   C553    1.526   .     S
C439   H709    1.101   .     S
C440   H705    1.109   .     S
C440   H707    1.110   .     S
C440   H706    1.111   .     S
C441   H713    1.107   .     S
C441   C443    1.531   .     S
C441   H715    1.106   .     S
C441   C555    1.530   .     S
C442   O772    1.274   .     A
C442   C492    1.422   .     S
C442   O743    1.273   .     A
C443   H712    1.111   .     S
C443   H710    1.109   .     S
C443   H711    1.111   .     S
C444   C556    1.523   .     S
C444   H720    1.104   .     S
C444   C445    1.533   .     S
C444   H719    1.106   .     S
C445   H717    1.108   .     S
C445   H716    1.110   .     S
C445   H718    1.110   .     S
C446   H567    1.104   .     S
C446   H724    1.105   .     S
C446   C447    1.529   .     S
C446   C557    1.530   .     S
C447   H722    1.111   .     S
C447   H723    1.109   .     S
C447   H721    1.110   .     S
C448   H571    1.108   .     S
C448   C449    1.534   .     S
C448   C558    1.528   .     S
C448   H572    1.107   .     S
C449   H568    1.110   .     S
C449   H570    1.108   .     S
C449   H173    1.108   1_655 S
C450   C559    1.526   .     S
C450   C451    1.534   .     S
C450   H578    1.105   .     S
C450   H576    1.107   .     S
C451   H575    1.110   .     S
C451   H573    1.108   .     S
C451   H178    1.108   1_655 S
C452   C560    1.530   .     S
C452   H583    1.108   .     S
C452   C454    1.535   .     S
C452   H582    1.107   .     S
C453   C500    1.424   .     S
C453   O768    1.275   .     A
C453   O744    1.274   .     A
C454   H579    1.107   .     S
C454   H580    1.110   .     S
C454   H581    1.111   .     S
C455   H587    1.106   .     S
C455   C456    1.530   .     S
C455   H589    1.106   .     S
C455   C561    1.530   .     S
C456   H584    1.111   .     S
C456   H586    1.110   .     S
C456   H585    1.108   .     S
C457   C562    1.531   .     S
C457   H593    1.104   .     S
C457   C458    1.529   .     S
C457   H594    1.103   .     S
C458   H592    1.111   .     S
C458   H590    1.110   .     S
C458   H591    1.111   .     S
C459   H598    1.110   .     S
C459   C563    1.519   .     S
C459   C460    1.529   .     S
C459   H600    1.105   .     S
C460   H597    1.110   .     S
C460   H596    1.111   .     S
C460   H595    1.110   1_554 S
C461   H604    1.107   .     S
C461   C564    1.530   .     S
C461   H605    1.105   .     S
C461   C462    1.529   .     S
C462   H603    1.110   .     S
C462   H602    1.111   .     S
C462   H601    1.109   1_556 S
C463   H611    1.107   .     S
C463   C465    1.531   .     S
C463   H609    1.101   .     S
C464   O745    1.275   .     A
C464   C498    1.424   .     S
C464   O770    1.275   .     A
C465   H607    1.109   .     S
C465   H606    1.111   .     S
C465   H608    1.110   .     S
C466   H615    1.110   .     S
C466   C467    1.530   .     S
C466   H616    1.110   .     S
C467   H614    1.110   .     S
C467   H613    1.111   .     S
C467   H612    1.110   1_556 S
C468   H620    1.110   .     S
C468   C469    1.539   .     S
C468   H622    1.109   .     S
C469   H617    1.110   .     S
C469   H619    1.111   .     S
C469   H618    1.111   .     S
C470   C471    1.528   .     S
C470   H627    1.109   .     S
C470   H626    1.111   .     S
C471   H625    1.111   .     S
C471   H624    1.111   .     S
C471   H623    1.108   1_556 S
C472   H633    1.106   .     S
C472   C473    1.537   .     S
C472   H631    1.107   .     S
C473   H630    1.110   .     S
C473   H629    1.109   .     S
C473   H628    1.106   .     S
C474   O757    1.275   .     A
C474   O746    1.273   .     A
C474   C489    1.423   .     S
C475   O759    1.275   .     A
C475   C487    1.423   .     S
C475   O748    1.273   .     A
C476   O755    1.275   .     A
C476   O749    1.276   .     A
C476   C486    1.422   .     S
C477   O726    1.270   .     A
C477   C522    1.462   .     S
C477   O1565   1.273   .     S
C478   C485    1.422   .     S
C478   O750    1.276   .     A
C478   O756    1.275   .     A
C479   O762    1.274   .     A
C479   C484    1.424   .     S
C479   O751    1.275   .     A
C480   O752    1.275   .     A
C480   C483    1.424   .     S
C480   O763    1.275   .     A
C481   C491    1.422   .     S
C481   O753    1.274   .     A
C481   O760    1.273   .     A
C482   O754    1.274   .     A
C482   C490    1.422   .     S
C482   O761    1.273   .     A
C483   C500    1.199   .     T
C484   C498    1.199   .     T
C485   C497    1.198   .     T
C486   C496    1.198   .     T
C487   C495    1.199   .     T
C488   C518    1.477   .     S
C488   O727    1.274   .     A
C488   O378    1.273   1_655 S
C489   C494    1.199   .     T
C490   C493    1.198   .     T
C491   C492    1.198   .     T
C497   C554    1.422   .     S
C499   O728    1.272   .     A
C502   C533    1.422   .     A
C502   C519    1.414   .     A
C502   C10     1.525   1_655 S
C503   C520    1.412   .     A
C503   C534    1.419   .     A
C504   C535    1.414   .     A
C504   C1314   1.412   1_545 S
C505   C527    1.413   .     A
C505   C518    1.413   .     A
C506   C519    1.415   .     A
C506   C528    1.417   .     A
C506   C19     1.528   1_655 S
C507   C529    1.416   .     A
C507   C1209   1.525   1_545 S
C507   C1312   1.408   1_545 S
C508   C530    1.414   .     A
C508   C522    1.413   .     A
C509   C540    1.414   .     A
C509   C523    1.426   .     A
C510   C525    1.458   .     S
C510   O333    1.270   1_655 S
C510   O337    1.270   1_655 S
C511   C524    1.417   .     A
C511   C541    1.416   .     A
C512   C542    1.419   .     A
C512   C525    1.413   .     A
C513   C544    1.404   .     A
C514   C536    1.408   .     A
C514   C1315   1.417   .     S
C515   C537    1.411   .     A
C515   C1316   1.410   1_545 S
C516   C538    1.410   .     A
C517   C526    1.422   .     A
C517   C539    1.439   .     A
C518   C105    1.420   1_655 S
C519   C103    1.475   1_655 S
C520   C1299   1.408   .     S
C521   O334    1.267   1_655 A
C521   C526    1.462   .     S
C521   O338    1.273   1_655 S
C522   C1296   1.412   .     S
C523   C532    1.473   .     S
C523   C1306   1.417   1_545 S
C524   C543    1.461   .     S
C524   C1307   1.410   .     S
C525   C120    1.407   1_655 S
C526   C117    1.401   1_655 S
C527   C545    1.403   .     A
C527   C553    1.410   .     A
C528   C546    1.404   .     A
C528   C555    1.416   .     A
C529   C556    1.429   .     A
C529   C1339   1.418   1_545 S
C530   C557    1.418   .     A
C530   C548    1.409   .     A
C531   C545    1.414   .     A
C531   C558    1.436   .     A
C531   C105    1.428   1_655 S
C532   O731    1.278   .     S
C532   O735    1.269   .     S
C533   C559    1.433   .     A
C533   C546    1.416   .     A
C534   C547    1.416   .     A
C534   C560    1.432   .     A
C535   C561    1.414   .     A
C535   C1340   1.409   1_545 S
C536   C549    1.403   .     A
C536   C562    1.417   .     A
C537   C563    1.409   .     A
C537   C1342   1.413   1_545 S
C538   C564    1.408   .     A
C539   C552    1.432   .     A
C540   C1341   1.414   1_545 S
C541   C550    1.413   .     A
C542   C551    1.410   .     A
C543   O1524   1.273   .     S
C543   O1529   1.266   .     S
C545   C546    1.406   .     A
C547   C548    1.399   .     A
C547   C1321   1.418   .     S
C548   C1327   1.409   .     S
C549   C1332   1.414   .     S
C549   C550    1.403   1_556 S
C550   C1329   1.413   .     S
C550   C549    1.403   1_554 S
C551   C142    1.410   1_655 S
C551   C552    1.410   1_556 S
C552   C148    1.419   1_655 S
C552   C551    1.410   1_554 S
C553   C559    1.425   .     A
C554   O766    1.276   .     A
C554   O738    1.275   .     A
C555   C558    1.430   .     A
C556   C561    1.422   .     A
C557   C560    1.426   .     A
C562   C401    1.428   1_556 S
C563   C400    1.401   1_554 S
C564   C403    1.417   1_556 S
H595   C460    1.110   1_556 S
H601   C462    1.109   1_554 S
H612   C467    1.110   1_554 S
H623   C471    1.108   1_554 S
H649   C19     1.111   1_655 S
H653   C1209   1.111   1_545 S
H661   C1215   1.109   .     S
H683   C1224   1.108   1_545 S
O725   Zn1576  1.933   1_545 S
O725   Zn777   1.934   .     S
O725   Zn780   1.935   .     S
O725   Zn788   1.929   .     S
O726   Zn779   1.939   .     S
O727   Zn782   1.940   .     S
O728   Zn781   1.940   .     S
O729   Zn791   1.940   .     S
O730   Zn790   1.940   .     S
O731   Zn785   1.938   .     S
O732   Zn777   1.938   .     S
O732   C1335   1.273   1_545 S
O733   Zn787   1.939   .     S
O734   Zn786   1.939   .     S
O735   Zn789   1.940   .     S
O736   Zn783   1.933   .     S
O736   Zn1571  1.935   1_545 S
O736   Zn785   1.934   .     S
O736   Zn789   1.929   .     S
O737   Zn788   1.940   .     S
O737   C1335   1.266   1_545 S
O738   Zn780   1.915   .     S
O739   Zn779   1.915   .     S
O740   Zn782   1.918   .     S
O741   Zn781   1.918   .     S
O742   Zn784   1.914   .     S
O743   Zn783   1.914   .     S
O744   Zn778   1.917   .     S
O745   Zn792   1.917   .     S
O746   Zn779   1.915   .     S
O747   Zn786   1.935   .     S
O747   Zn790   1.933   .     S
O747   Zn778   1.934   .     S
O748   Zn780   1.915   .     S
O749   Zn792   1.916   .     S
O750   Zn778   1.916   .     S
O751   Zn783   1.917   .     S
O752   Zn784   1.917   .     S
O753   Zn781   1.916   .     S
O754   Zn782   1.916   .     S
O755   Zn391   1.915   1_655 S
O756   Zn786   1.915   .     S
O757   Zn1581  1.918   .     S
O758   Zn781   1.929   .     S
O758   Zn787   1.935   .     S
O758   Zn791   1.933   .     S
O759   Zn788   1.918   .     S
O760   Zn791   1.914   .     S
O761   Zn394   1.914   1_655 S
O762   Zn785   1.917   .     S
O763   Zn1569  1.917   .     S
O764   Zn390   1.915   1_655 S
O765   Zn787   1.915   .     S
O766   Zn777   1.916   .     S
O767   Zn1577  1.916   .     S
O768   Zn790   1.917   .     S
O769   Zn784   1.940   .     S
O770   Zn395   1.917   1_655 S
O771   Zn1580  1.916   .     S
O772   Zn789   1.916   .     S
O773   Zn783   1.940   .     S
O773   C1269   1.273   1_545 S
O774   Zn778   1.938   .     S
O775   Zn792   1.938   .     S
O775   C103    1.274   1_655 S
O776   Zn780   1.939   .     S
O776   C1189   1.274   1_545 S
Zn777  O1555   1.917   1_545 S
Zn779  O1528   1.935   .     S
Zn782  O351    1.929   1_655 S
Zn784  O1517   1.933   .     S
Zn785  O1559   1.916   1_545 S
Zn788  O1563   1.916   1_545 S
Zn789  O1549   1.918   1_545 S
Zn792  O362    1.934   1_655 S
C793   C916    1.461   .     S
C793   O1165   1.267   .     A
C793   O380    1.274   1_565 S
C794   O1163   1.276   .     A
C794   O1135   1.275   .     A
C794   C892    1.422   .     S
C795   C935    1.439   .     A
C795   C859    1.524   .     S
C795   C798    1.410   1_554 S
C796   C936    1.415   .     A
C796   C862    1.522   .     S
C796   C959    1.401   1_556 S
C797   C937    1.431   .     A
C797   C864    1.532   .     S
C797   C958    1.428   1_554 S
C798   C938    1.409   .     A
C798   C866    1.529   .     S
C798   C795    1.410   1_556 S
C799   C868    1.526   .     S
C799   C940    1.432   .     A
C799   C960    1.417   1_554 S
C800   C897    1.525   .     S
C800   H1055   1.111   .     S
C800   C801    1.530   .     S
C800   H1066   1.094   .     S
C801   H961    1.111   .     S
C801   H1033   1.108   .     S
C801   H1044   1.111   .     S
C802   C803    1.530   .     S
C802   H962    1.094   .     S
C802   H1110   1.111   .     S
C802   C1294   1.525   1_455 S
C803   H1099   1.111   .     S
C803   H1077   1.111   .     S
C803   H1088   1.107   .     S
C804   H1006   1.111   .     S
C804   C899    1.523   .     S
C804   H1017   1.099   .     S
C804   C14     1.529   1_565 S
C805   C891    1.423   .     S
C805   O1136   1.275   .     A
C805   O1160   1.273   .     A
C806   H973    1.111   .     S
C806   H984    1.106   .     S
C806   H995    1.111   .     S
C807   H1034   1.111   .     S
C807   C900    1.529   .     S
C807   H1032   1.108   .     S
C808   H1031   1.111   .     S
C808   H1030   1.111   .     S
C808   H1028   1.107   .     S
C808   C15     1.529   1_565 S
C809   C901    1.529   .     S
C809   H1039   1.111   .     S
C809   H1038   1.107   .     S
C809   C1206   1.529   .     S
C810   H1035   1.107   .     S
C810   H1036   1.111   .     S
C810   H1037   1.111   .     S
C810   C1205   1.529   1_455 S
C811   C812    1.529   .     S
C811   H1043   1.106   .     S
C811   C1298   1.528   1_455 S
C811   H1441   1.111   1_455 S
C812   H1041   1.111   .     S
C812   H1042   1.111   .     S
C812   H1040   1.107   .     S
C813   C814    1.530   .     S
C813   H1050   1.096   .     S
C813   C111    1.525   1_565 S
C813   H257    1.111   1_565 S
C814   H1047   1.107   .     S
C814   H1048   1.111   .     S
C814   H1046   1.111   .     S
C815   C904    1.527   .     S
C815   H1056   1.111   .     S
C815   H1054   1.109   .     S
C815   C25     1.529   1_565 S
C816   C890    1.423   .     S
C816   O1137   1.275   .     A
C816   O1161   1.274   .     A
C817   H1052   1.111   .     S
C817   H1053   1.111   .     S
C817   H1051   1.107   .     S
C818   H1061   1.109   .     S
C818   C819    1.531   .     S
C818   C905    1.531   .     S
C818   H1060   1.100   .     S
C819   H1058   1.111   .     S
C819   H1059   1.110   .     S
C820   H1067   1.095   .     S
C820   H1065   1.110   .     S
C820   C821    1.530   .     S
C820   C907    1.525   .     S
C821   H1063   1.108   .     S
C821   H1062   1.111   .     S
C821   H1064   1.111   .     S
C822   H1072   1.110   .     S
C822   C908    1.530   .     S
C822   C823    1.529   .     S
C822   H1071   1.102   .     S
C823   H1068   1.106   .     S
C823   H1070   1.111   .     S
C823   H1069   1.111   .     S
C824   H1078   1.095   .     S
C824   C909    1.528   .     S
C824   C825    1.530   .     S
C824   H1076   1.111   .     S
C825   H1075   1.111   .     S
C825   H1074   1.107   .     S
C825   H1073   1.111   .     S
C826   C910    1.524   .     S
C826   H1083   1.110   .     S
C826   C828    1.530   .     S
C826   H1082   1.109   .     S
C827   O1138   1.273   .     A
C827   O1167   1.274   .     A
C827   C889    1.422   .     S
C828   H1081   1.110   .     S
C828   H1080   1.111   .     S
C828   H287    1.108   1_565 S
C829   H1089   1.110   .     S
C829   C830    1.530   .     S
C829   H1087   1.102   .     S
C829   C911    1.535   .     S
C830   H1085   1.111   .     S
C830   H1086   1.111   .     S
C830   H1084   1.108   .     S
C831   C912    1.528   .     S
C831   C832    1.529   .     S
C831   H1094   1.111   .     S
C831   H1093   1.109   .     S
C832   H1092   1.111   .     S
C832   H1091   1.111   .     S
C832   H1090   1.107   .     S
C833   H1098   1.097   .     S
C833   C834    1.529   .     S
C833   H1100   1.107   .     S
C833   C913    1.531   .     S
C834   H1095   1.110   .     S
C834   H1097   1.107   .     S
C834   H1096   1.110   .     S
C835   C836    1.531   .     S
C835   H1104   1.107   .     S
C835   C949    1.526   .     S
C835   H1105   1.101   .     S
C836   H1101   1.109   .     S
C836   H1103   1.110   .     S
C836   H1102   1.111   .     S
C837   H1109   1.107   .     S
C837   C839    1.531   .     S
C837   H1111   1.106   .     S
C837   C951    1.530   .     S
C838   O1168   1.274   .     A
C838   C888    1.422   .     S
C838   O1139   1.273   .     A
C839   H1108   1.111   .     S
C839   H1106   1.109   .     S
C839   H1107   1.111   .     S
C840   C952    1.523   .     S
C840   H1116   1.104   .     S
C840   C841    1.533   .     S
C840   H1115   1.106   .     S
C841   H1113   1.108   .     S
C841   H1112   1.110   .     S
C841   H1114   1.110   .     S
C842   H963    1.104   .     S
C842   H1120   1.105   .     S
C842   C843    1.529   .     S
C842   C953    1.530   .     S
C843   H1118   1.111   .     S
C843   H1119   1.109   .     S
C843   H1117   1.110   .     S
C844   H967    1.108   .     S
C844   C845    1.534   .     S
C844   C954    1.528   .     S
C844   H968    1.107   .     S
C845   H964    1.110   .     S
C845   H966    1.108   .     S
C845   H1361   1.108   .     S
C846   C955    1.526   .     S
C846   C847    1.534   .     S
C846   H974    1.105   .     S
C846   H972    1.107   .     S
C847   H971    1.110   .     S
C847   H969    1.108   .     S
C847   H1366   1.108   .     S
C848   C956    1.530   .     S
C848   H979    1.108   .     S
C848   C850    1.535   .     S
C848   H978    1.107   .     S
C849   C896    1.424   .     S
C849   O1164   1.275   .     A
C849   O1140   1.274   .     A
C850   H975    1.107   .     S
C850   H976    1.110   .     S
C850   H977    1.111   .     S
C851   H983    1.106   .     S
C851   C852    1.530   .     S
C851   H985    1.106   .     S
C851   C957    1.530   .     S
C852   H980    1.111   .     S
C852   H982    1.110   .     S
C852   H981    1.108   .     S
C853   C958    1.531   .     S
C853   H989    1.104   .     S
C853   C854    1.529   .     S
C853   H990    1.103   .     S
C854   H988    1.111   .     S
C854   H986    1.110   .     S
C854   H987    1.111   .     S
C855   H994    1.110   .     S
C855   C959    1.519   .     S
C855   C856    1.529   .     S
C855   H996    1.105   .     S
C856   H993    1.110   .     S
C856   H992    1.111   .     S
C856   H991    1.110   1_554 S
C857   H1000   1.107   .     S
C857   C960    1.530   .     S
C857   H1001   1.105   .     S
C857   C858    1.529   .     S
C858   H999    1.110   .     S
C858   H998    1.111   .     S
C858   H997    1.109   1_556 S
C859   H1007   1.107   .     S
C859   C861    1.531   .     S
C859   H1005   1.101   .     S
C860   O1141   1.275   .     A
C860   C894    1.424   .     S
C860   O1166   1.275   .     A
C861   H1003   1.109   .     S
C861   H1002   1.111   .     S
C861   H1004   1.110   .     S
C862   H1011   1.110   .     S
C862   C863    1.530   .     S
C862   H1012   1.110   .     S
C863   H1010   1.110   .     S
C863   H1009   1.111   .     S
C863   H1008   1.110   1_556 S
C864   H1016   1.110   .     S
C864   C865    1.539   .     S
C864   H1018   1.109   .     S
C865   H1013   1.110   .     S
C865   H1015   1.111   .     S
C865   H1014   1.111   .     S
C866   C867    1.528   .     S
C866   H1023   1.109   .     S
C866   H1022   1.111   .     S
C867   H1021   1.111   .     S
C867   H1020   1.111   .     S
C867   H1019   1.108   1_556 S
C868   H1029   1.106   .     S
C868   C869    1.537   .     S
C868   H1027   1.107   .     S
C869   H1026   1.110   .     S
C869   H1025   1.109   .     S
C869   H1024   1.106   .     S
C870   O1153   1.275   .     A
C870   O1142   1.273   .     A
C870   C885    1.423   .     S
C871   O1155   1.275   .     A
C871   C883    1.423   .     S
C871   O1144   1.273   .     A
C872   O1151   1.275   .     A
C872   O1145   1.276   .     A
C872   C882    1.422   .     S
C873   O1122   1.270   .     A
C873   C918    1.462   .     S
C873   O377    1.273   1_565 S
C874   C881    1.422   .     S
C874   O1146   1.276   .     A
C874   O1152   1.275   .     A
C875   O1158   1.274   .     A
C875   C880    1.424   .     S
C875   O1147   1.275   .     A
C876   O1148   1.275   .     A
C876   C879    1.424   .     S
C876   O1159   1.275   .     A
C877   C887    1.422   .     S
C877   O1149   1.274   .     A
C877   O1156   1.273   .     A
C878   O1150   1.274   .     A
C878   C886    1.422   .     S
C878   O1157   1.273   .     A
C879   C896    1.199   .     T
C880   C894    1.199   .     T
C881   C893    1.198   .     T
C882   C892    1.198   .     T
C883   C891    1.199   .     T
C884   C914    1.477   .     S
C884   O1123   1.274   .     A
C884   O1566   1.273   .     S
C885   C890    1.199   .     T
C886   C889    1.198   .     T
C887   C888    1.198   .     T
C893   C950    1.422   .     S
C895   O1124   1.272   .     A
C895   C1311   1.475   1_455 S
C895   O1567   1.274   1_455 S
C897   C1310   1.420   1_455 S
C897   C1323   1.428   1_455 S
C898   C929    1.422   .     A
C898   C915    1.414   .     A
C898   C1198   1.525   .     S
C899   C916    1.412   .     A
C899   C930    1.419   .     A
C900   C931    1.414   .     A
C901   C923    1.413   .     A
C901   C914    1.413   .     A
C902   C915    1.415   .     A
C902   C924    1.417   .     A
C902   C1207   1.528   .     S
C903   C925    1.416   .     A
C904   C926    1.414   .     A
C904   C918    1.413   .     A
C905   C936    1.414   .     A
C905   C919    1.426   .     A
C906   C921    1.458   .     S
C906   O1521   1.270   .     S
C906   O1525   1.270   .     S
C907   C920    1.417   .     A
C907   C937    1.416   .     A
C908   C938    1.419   .     A
C908   C921    1.413   .     A
C909   C940    1.404   .     A
C909   C1318   1.401   1_455 S
C910   C932    1.408   .     A
C910   C127    1.417   1_565 S
C911   C933    1.411   .     A
C912   C934    1.410   .     A
C912   C1317   1.407   1_455 S
C913   C922    1.422   .     A
C913   C935    1.439   .     A
C914   C1293   1.420   .     S
C915   C1291   1.475   .     S
C916   C111    1.408   1_565 S
C917   O1522   1.267   .     A
C917   C922    1.462   .     S
C917   O1526   1.273   .     S
C918   C108    1.412   1_565 S
C919   C928    1.473   .     S
C920   C939    1.461   .     S
C920   C119    1.410   1_565 S
C921   C1308   1.407   .     S
C922   C1305   1.401   .     S
C923   C941    1.403   .     A
C923   C949    1.410   .     A
C924   C942    1.404   .     A
C924   C951    1.416   .     A
C925   C952    1.429   .     A
C926   C953    1.418   .     A
C926   C944    1.409   .     A
C927   C941    1.414   .     A
C927   C954    1.436   .     A
C927   C1293   1.428   .     S
C928   O1127   1.278   .     S
C928   O1131   1.269   .     S
C929   C955    1.433   .     A
C929   C942    1.416   .     A
C930   C943    1.416   .     A
C930   C956    1.432   .     A
C931   C957    1.414   .     A
C932   C945    1.403   .     A
C932   C958    1.417   .     A
C933   C959    1.409   .     A
C934   C960    1.408   .     A
C934   C1343   1.410   1_455 S
C935   C948    1.432   .     A
C937   C946    1.413   .     A
C938   C947    1.410   .     A
C939   O336    1.273   1_565 S
C939   O341    1.266   1_565 S
C940   C1344   1.419   1_455 S
C941   C942    1.406   .     A
C943   C944    1.399   .     A
C943   C133    1.418   1_565 S
C944   C139    1.409   1_565 S
C945   C144    1.414   1_565 S
C945   C946    1.403   1_556 S
C946   C141    1.413   1_565 S
C946   C945    1.403   1_554 S
C947   C1330   1.410   .     S
C947   C948    1.410   1_556 S
C948   C1336   1.419   .     S
C948   C947    1.410   1_554 S
C949   C955    1.425   .     A
C950   O1162   1.276   .     A
C950   O1134   1.275   .     A
C951   C954    1.430   .     A
C952   C957    1.422   .     A
C953   C956    1.426   .     A
C958   C797    1.428   1_556 S
C959   C796    1.401   1_554 S
C960   C799    1.417   1_556 S
H965   C1241   1.108   1_455 S
H970   C1243   1.108   1_455 S
H991   C856    1.110   1_556 S
H997   C858    1.109   1_554 S
H1008  C863    1.110   1_554 S
H1019  C867    1.108   1_554 S
H1045  C1207   1.111   .     S
H1057  C27     1.109   1_565 S
O1121  Zn1173  1.934   .     S
O1121  Zn1176  1.935   .     S
O1121  Zn1184  1.929   .     S
O1122  Zn1175  1.939   .     S
O1123  Zn1178  1.940   .     S
O1124  Zn1177  1.940   .     S
O1125  Zn1187  1.940   .     S
O1125  C1302   1.270   1_455 S
O1126  C1313   1.267   1_455 A
O1126  Zn1186  1.940   .     S
O1127  Zn1181  1.938   .     S
O1128  Zn1173  1.938   .     S
O1129  Zn1183  1.939   .     S
O1129  C1302   1.270   1_455 S
O1130  Zn1182  1.939   .     S
O1130  C1313   1.273   1_455 S
O1131  Zn1185  1.940   .     S
O1132  Zn1179  1.933   .     S
O1132  Zn1181  1.934   .     S
O1132  Zn1185  1.929   .     S
O1133  Zn1184  1.940   .     S
O1134  Zn1176  1.915   .     S
O1135  Zn1175  1.915   .     S
O1136  Zn1178  1.918   .     S
O1137  Zn1177  1.918   .     S
O1138  Zn1180  1.914   .     S
O1139  Zn1179  1.914   .     S
O1140  Zn1174  1.917   .     S
O1141  Zn1188  1.917   .     S
O1142  Zn1175  1.915   .     S
O1143  Zn1182  1.935   .     S
O1143  Zn1186  1.933   .     S
O1143  Zn1174  1.934   .     S
O1143  Zn1574  1.929   1_455 S
O1144  Zn1176  1.915   .     S
O1145  Zn1188  1.916   .     S
O1146  Zn1174  1.916   .     S
O1147  Zn1179  1.917   .     S
O1148  Zn1180  1.917   .     S
O1149  Zn1177  1.916   .     S
O1150  Zn1178  1.916   .     S
O1151  Zn1579  1.915   .     S
O1152  Zn1182  1.915   .     S
O1153  Zn393   1.918   1_565 S
O1154  Zn1177  1.929   .     S
O1154  Zn1183  1.935   .     S
O1154  Zn1187  1.933   .     S
O1154  Zn1584  1.934   1_455 S
O1155  Zn1184  1.918   .     S
O1156  Zn1187  1.914   .     S
O1157  Zn1582  1.914   .     S
O1158  Zn1181  1.917   .     S
O1159  Zn381   1.917   1_565 S
O1160  Zn1578  1.915   .     S
O1161  Zn1183  1.915   .     S
O1162  Zn1173  1.916   .     S
O1163  Zn389   1.916   1_565 S
O1164  Zn1186  1.917   .     S
O1165  Zn1180  1.940   .     S
O1166  Zn1583  1.917   .     S
O1167  Zn392   1.916   1_565 S
O1168  Zn1185  1.916   .     S
O1169  Zn1179  1.940   .     S
O1170  Zn1174  1.938   .     S
O1170  C1280   1.273   1_455 S
O1171  Zn1188  1.938   .     S
O1171  C1291   1.274   .     S
O1172  Zn1176  1.939   .     S
Zn1175 O340    1.935   1_565 S
Zn1178 O1539   1.929   .     S
Zn1180 O329    1.933   1_565 S
Zn1182 O1556   1.915   1_455 S
Zn1183 O1547   1.915   1_455 S
Zn1186 O1553   1.914   1_455 S
Zn1187 O1562   1.917   1_455 S
Zn1188 O1550   1.934   .     S
C1189  C1312   1.461   .     S
C1189  O1561   1.267   .     A
C1189  O776    1.274   1_565 S
C1190  O1559   1.276   .     A
C1190  O1531   1.275   .     A
C1190  C1288   1.422   .     S
C1191  C1331   1.439   .     A
C1191  C1255   1.524   .     S
C1191  C1194   1.410   1_554 S
C1192  C1332   1.415   .     A
C1192  C1258   1.522   .     S
C1192  C1355   1.401   1_556 S
C1193  C1333   1.431   .     A
C1193  C1260   1.532   .     S
C1193  C1354   1.428   1_554 S
C1194  C1334   1.409   .     A
C1194  C1262   1.529   .     S
C1194  C1191   1.410   1_556 S
C1195  C1264   1.526   .     S
C1195  C1336   1.432   .     A
C1195  C1356   1.417   1_554 S
C1196  C1293   1.525   .     S
C1196  H1451   1.111   .     S
C1196  C1197   1.530   .     S
C1196  H1462   1.094   .     S
C1197  H1357   1.111   .     S
C1197  H1429   1.108   .     S
C1197  H1440   1.111   .     S
C1198  C1199   1.530   .     S
C1198  H1358   1.094   .     S
C1198  H1506   1.111   .     S
C1199  H1495   1.111   .     S
C1199  H1473   1.111   .     S
C1199  H1484   1.107   .     S
C1200  H1402   1.111   .     S
C1200  C1295   1.523   .     S
C1200  H1413   1.099   .     S
C1200  C410    1.529   1_565 S
C1201  C1287   1.423   .     S
C1201  O1532   1.275   .     A
C1201  O1556   1.273   .     A
C1202  H1369   1.111   .     S
C1202  H1380   1.106   .     S
C1202  H1391   1.111   .     S
C1203  H1430   1.111   .     S
C1203  C1296   1.529   .     S
C1203  H1428   1.108   .     S
C1204  H1427   1.111   .     S
C1204  H1426   1.111   .     S
C1204  H1424   1.107   .     S
C1204  C411    1.529   1_565 S
C1205  C1297   1.529   .     S
C1205  H1435   1.111   .     S
C1205  H1434   1.107   .     S
C1205  C810    1.529   1_655 S
C1206  H1431   1.107   .     S
C1206  H1432   1.111   .     S
C1206  H1433   1.111   .     S
C1207  C1208   1.529   .     S
C1207  H1439   1.106   .     S
C1208  H1437   1.111   .     S
C1208  H1438   1.111   .     S
C1208  H1436   1.107   .     S
C1209  C1210   1.530   .     S
C1209  H1446   1.096   .     S
C1209  C507    1.525   1_565 S
C1209  H653    1.111   1_565 S
C1210  H1443   1.107   .     S
C1210  H1444   1.111   .     S
C1210  H1442   1.111   .     S
C1211  C1300   1.527   .     S
C1211  H1452   1.111   .     S
C1211  H1450   1.109   .     S
C1211  C421    1.529   1_565 S
C1212  C1286   1.423   .     S
C1212  O1533   1.275   .     A
C1212  O1557   1.274   .     A
C1213  H1448   1.111   .     S
C1213  H1449   1.111   .     S
C1213  H1447   1.107   .     S
C1214  H1457   1.109   .     S
C1214  C1215   1.531   .     S
C1214  C1301   1.531   .     S
C1214  H1456   1.100   .     S
C1215  H1454   1.111   .     S
C1215  H1455   1.110   .     S
C1216  H1463   1.095   .     S
C1216  H1461   1.110   .     S
C1216  C1217   1.530   .     S
C1216  C1303   1.525   .     S
C1217  H1459   1.108   .     S
C1217  H1458   1.111   .     S
C1217  H1460   1.111   .     S
C1218  H1468   1.110   .     S
C1218  C1304   1.530   .     S
C1218  C1219   1.529   .     S
C1218  H1467   1.102   .     S
C1219  H1464   1.106   .     S
C1219  H1466   1.111   .     S
C1219  H1465   1.111   .     S
C1220  H1474   1.095   .     S
C1220  C1305   1.528   .     S
C1220  C1221   1.530   .     S
C1220  H1472   1.111   .     S
C1221  H1471   1.111   .     S
C1221  H1470   1.107   .     S
C1221  H1469   1.111   .     S
C1222  C1306   1.524   .     S
C1222  H1479   1.110   .     S
C1222  C1224   1.530   .     S
C1222  H1478   1.109   .     S
C1223  O1534   1.273   .     A
C1223  O1563   1.274   .     A
C1223  C1285   1.422   .     S
C1224  H1477   1.110   .     S
C1224  H1476   1.111   .     S
C1224  H683    1.108   1_565 S
C1225  H1485   1.110   .     S
C1225  C1226   1.530   .     S
C1225  H1483   1.102   .     S
C1225  C1307   1.535   .     S
C1226  H1481   1.111   .     S
C1226  H1482   1.111   .     S
C1226  H1480   1.108   .     S
C1227  C1308   1.528   .     S
C1227  C1228   1.529   .     S
C1227  H1490   1.111   .     S
C1227  H1489   1.109   .     S
C1228  H1488   1.111   .     S
C1228  H1487   1.111   .     S
C1228  H1486   1.107   .     S
C1229  H1494   1.097   .     S
C1229  C1230   1.529   .     S
C1229  H1496   1.107   .     S
C1229  C1309   1.531   .     S
C1230  H1491   1.110   .     S
C1230  H1493   1.107   .     S
C1230  H1492   1.110   .     S
C1231  C1232   1.531   .     S
C1231  H1500   1.107   .     S
C1231  C1345   1.526   .     S
C1231  H1501   1.101   .     S
C1232  H1497   1.109   .     S
C1232  H1499   1.110   .     S
C1232  H1498   1.111   .     S
C1233  H1505   1.107   .     S
C1233  C1235   1.531   .     S
C1233  H1507   1.106   .     S
C1233  C1347   1.530   .     S
C1234  O1564   1.274   .     A
C1234  C1284   1.422   .     S
C1234  O1535   1.273   .     A
C1235  H1504   1.111   .     S
C1235  H1502   1.109   .     S
C1235  H1503   1.111   .     S
C1236  C1348   1.523   .     S
C1236  H1512   1.104   .     S
C1236  C1237   1.533   .     S
C1236  H1511   1.106   .     S
C1237  H1509   1.108   .     S
C1237  H1508   1.110   .     S
C1237  H1510   1.110   .     S
C1238  H1359   1.104   .     S
C1238  H1516   1.105   .     S
C1238  C1239   1.529   .     S
C1238  C1349   1.530   .     S
C1239  H1514   1.111   .     S
C1239  H1515   1.109   .     S
C1239  H1513   1.110   .     S
C1240  H1363   1.108   .     S
C1240  C1241   1.534   .     S
C1240  C1350   1.528   .     S
C1240  H1364   1.107   .     S
C1241  H1360   1.110   .     S
C1241  H1362   1.108   .     S
C1241  H965    1.108   1_655 S
C1242  C1351   1.526   .     S
C1242  C1243   1.534   .     S
C1242  H1370   1.105   .     S
C1242  H1368   1.107   .     S
C1243  H1367   1.110   .     S
C1243  H1365   1.108   .     S
C1243  H970    1.108   1_655 S
C1244  C1352   1.530   .     S
C1244  H1375   1.108   .     S
C1244  C1246   1.535   .     S
C1244  H1374   1.107   .     S
C1245  C1292   1.424   .     S
C1245  O1560   1.275   .     A
C1245  O1536   1.274   .     A
C1246  H1371   1.107   .     S
C1246  H1372   1.110   .     S
C1246  H1373   1.111   .     S
C1247  H1379   1.106   .     S
C1247  C1248   1.530   .     S
C1247  H1381   1.106   .     S
C1247  C1353   1.530   .     S
C1248  H1376   1.111   .     S
C1248  H1378   1.110   .     S
C1248  H1377   1.108   .     S
C1249  C1354   1.531   .     S
C1249  H1385   1.104   .     S
C1249  C1250   1.529   .     S
C1249  H1386   1.103   .     S
C1250  H1384   1.111   .     S
C1250  H1382   1.110   .     S
C1250  H1383   1.111   .     S
C1251  H1390   1.110   .     S
C1251  C1355   1.519   .     S
C1251  C1252   1.529   .     S
C1251  H1392   1.105   .     S
C1252  H1389   1.110   .     S
C1252  H1388   1.111   .     S
C1252  H1387   1.110   1_554 S
C1253  H1396   1.107   .     S
C1253  C1356   1.530   .     S
C1253  H1397   1.105   .     S
C1253  C1254   1.529   .     S
C1254  H1395   1.110   .     S
C1254  H1394   1.111   .     S
C1254  H1393   1.109   1_556 S
C1255  H1403   1.107   .     S
C1255  C1257   1.531   .     S
C1255  H1401   1.101   .     S
C1256  O1537   1.275   .     A
C1256  C1290   1.424   .     S
C1256  O1562   1.275   .     A
C1257  H1399   1.109   .     S
C1257  H1398   1.111   .     S
C1257  H1400   1.110   .     S
C1258  H1407   1.110   .     S
C1258  C1259   1.530   .     S
C1258  H1408   1.110   .     S
C1259  H1406   1.110   .     S
C1259  H1405   1.111   .     S
C1259  H1404   1.110   1_556 S
C1260  H1412   1.110   .     S
C1260  C1261   1.539   .     S
C1260  H1414   1.109   .     S
C1261  H1409   1.110   .     S
C1261  H1411   1.111   .     S
C1261  H1410   1.111   .     S
C1262  C1263   1.528   .     S
C1262  H1419   1.109   .     S
C1262  H1418   1.111   .     S
C1263  H1417   1.111   .     S
C1263  H1416   1.111   .     S
C1263  H1415   1.108   1_556 S
C1264  H1425   1.106   .     S
C1264  C1265   1.537   .     S
C1264  H1423   1.107   .     S
C1265  H1422   1.110   .     S
C1265  H1421   1.109   .     S
C1265  H1420   1.106   .     S
C1266  O1549   1.275   .     A
C1266  O1538   1.273   .     A
C1266  C1281   1.423   .     S
C1267  O1551   1.275   .     A
C1267  C1279   1.423   .     S
C1267  O1540   1.273   .     A
C1268  O1547   1.275   .     A
C1268  O1541   1.276   .     A
C1268  C1278   1.422   .     S
C1269  O1518   1.270   .     A
C1269  C1314   1.462   .     S
C1269  O773    1.273   1_565 S
C1270  C1277   1.422   .     S
C1270  O1542   1.276   .     A
C1270  O1548   1.275   .     A
C1271  O1554   1.274   .     A
C1271  C1276   1.424   .     S
C1271  O1543   1.275   .     A
C1272  O1544   1.275   .     A
C1272  C1275   1.424   .     S
C1272  O1555   1.275   .     A
C1273  C1283   1.422   .     S
C1273  O1545   1.274   .     A
C1273  O1552   1.273   .     A
C1274  O1546   1.274   .     A
C1274  C1282   1.422   .     S
C1274  O1553   1.273   .     A
C1275  C1292   1.199   .     T
C1276  C1290   1.199   .     T
C1277  C1289   1.198   .     T
C1278  C1288   1.198   .     T
C1279  C1287   1.199   .     T
C1280  C1310   1.477   .     S
C1280  O1519   1.274   .     A
C1280  O1170   1.273   1_655 S
C1281  C1286   1.199   .     T
C1282  C1285   1.198   .     T
C1283  C1284   1.198   .     T
C1289  C1346   1.422   .     S
C1291  O1520   1.272   .     A
C1294  C1325   1.422   .     A
C1294  C1311   1.414   .     A
C1294  C802    1.525   1_655 S
C1295  C1312   1.412   .     A
C1295  C1326   1.419   .     A
C1296  C1327   1.414   .     A
C1297  C1319   1.413   .     A
C1297  C1310   1.413   .     A
C1298  C1311   1.415   .     A
C1298  C1320   1.417   .     A
C1298  C811    1.528   1_655 S
C1299  C1321   1.416   .     A
C1300  C1322   1.414   .     A
C1300  C1314   1.413   .     A
C1301  C1332   1.414   .     A
C1301  C1315   1.426   .     A
C1302  C1317   1.458   .     S
C1302  O1125   1.270   1_655 S
C1302  O1129   1.270   1_655 S
C1303  C1316   1.417   .     A
C1303  C1333   1.416   .     A
C1304  C1334   1.419   .     A
C1304  C1317   1.413   .     A
C1305  C1336   1.404   .     A
C1306  C1328   1.408   .     A
C1306  C523    1.417   1_565 S
C1307  C1329   1.411   .     A
C1308  C1330   1.410   .     A
C1309  C1318   1.422   .     A
C1309  C1331   1.439   .     A
C1310  C897    1.420   1_655 S
C1311  C895    1.475   1_655 S
C1312  C507    1.408   1_565 S
C1313  O1126   1.267   1_655 A
C1313  C1318   1.462   .     S
C1313  O1130   1.273   1_655 S
C1314  C504    1.412   1_565 S
C1315  C1324   1.473   .     S
C1316  C1335   1.461   .     S
C1316  C515    1.410   1_565 S
C1317  C912    1.407   1_655 S
C1318  C909    1.401   1_655 S
C1319  C1337   1.403   .     A
C1319  C1345   1.410   .     A
C1320  C1338   1.404   .     A
C1320  C1347   1.416   .     A
C1321  C1348   1.429   .     A
C1322  C1349   1.418   .     A
C1322  C1340   1.409   .     A
C1323  C1337   1.414   .     A
C1323  C1350   1.436   .     A
C1323  C897    1.428   1_655 S
C1324  O1523   1.278   .     S
C1324  O1527   1.269   .     S
C1325  C1351   1.433   .     A
C1325  C1338   1.416   .     A
C1326  C1339   1.416   .     A
C1326  C1352   1.432   .     A
C1327  C1353   1.414   .     A
C1328  C1341   1.403   .     A
C1328  C1354   1.417   .     A
C1329  C1355   1.409   .     A
C1330  C1356   1.408   .     A
C1331  C1344   1.432   .     A
C1333  C1342   1.413   .     A
C1334  C1343   1.410   .     A
C1335  O732    1.273   1_565 S
C1335  O737    1.266   1_565 S
C1337  C1338   1.406   .     A
C1339  C1340   1.399   .     A
C1339  C529    1.418   1_565 S
C1340  C535    1.409   1_565 S
C1341  C540    1.414   1_565 S
C1341  C1342   1.403   1_556 S
C1342  C537    1.413   1_565 S
C1342  C1341   1.403   1_554 S
C1343  C934    1.410   1_655 S
C1343  C1344   1.410   1_556 S
C1344  C940    1.419   1_655 S
C1344  C1343   1.410   1_554 S
C1345  C1351   1.425   .     A
C1346  O1558   1.276   .     A
C1346  O1530   1.275   .     A
C1347  C1350   1.430   .     A
C1348  C1353   1.422   .     A
C1349  C1352   1.426   .     A
C1354  C1193   1.428   1_556 S
C1355  C1192   1.401   1_554 S
C1356  C1195   1.417   1_556 S
H1387  C1252   1.110   1_556 S
H1393  C1254   1.109   1_554 S
H1404  C1259   1.110   1_554 S
H1415  C1263   1.108   1_554 S
H1441  C811    1.111   1_655 S
H1453  C423    1.109   1_565 S
O1517  Zn1569  1.934   .     S
O1517  Zn1572  1.935   .     S
O1517  Zn1580  1.929   .     S
O1518  Zn1571  1.939   .     S
O1519  Zn1574  1.940   .     S
O1520  Zn1573  1.940   .     S
O1521  Zn1583  1.940   .     S
O1522  Zn1582  1.940   .     S
O1523  Zn1577  1.938   .     S
O1524  Zn1569  1.938   .     S
O1525  Zn1579  1.939   .     S
O1526  Zn1578  1.939   .     S
O1527  Zn1581  1.940   .     S
O1528  Zn1575  1.933   .     S
O1528  Zn1577  1.934   .     S
O1528  Zn1581  1.929   .     S
O1529  Zn1580  1.940   .     S
O1530  Zn1572  1.915   .     S
O1531  Zn1571  1.915   .     S
O1532  Zn1574  1.918   .     S
O1533  Zn1573  1.918   .     S
O1534  Zn1576  1.914   .     S
O1535  Zn1575  1.914   .     S
O1536  Zn1570  1.917   .     S
O1537  Zn1584  1.917   .     S
O1538  Zn1571  1.915   .     S
O1539  Zn1578  1.935   .     S
O1539  Zn1582  1.933   .     S
O1539  Zn1570  1.934   .     S
O1540  Zn1572  1.915   .     S
O1541  Zn1584  1.916   .     S
O1542  Zn1570  1.916   .     S
O1543  Zn1575  1.917   .     S
O1544  Zn1576  1.917   .     S
O1545  Zn1573  1.916   .     S
O1546  Zn1574  1.916   .     S
O1547  Zn1183  1.915   1_655 S
O1548  Zn1578  1.915   .     S
O1549  Zn789   1.918   1_565 S
O1550  Zn1573  1.929   .     S
O1550  Zn1579  1.935   .     S
O1550  Zn1583  1.933   .     S
O1551  Zn1580  1.918   .     S
O1552  Zn1583  1.914   .     S
O1553  Zn1186  1.914   1_655 S
O1554  Zn1577  1.917   .     S
O1555  Zn777   1.917   1_565 S
O1556  Zn1182  1.915   1_655 S
O1557  Zn1579  1.915   .     S
O1558  Zn1569  1.916   .     S
O1559  Zn785   1.916   1_565 S
O1560  Zn1582  1.917   .     S
O1561  Zn1576  1.940   .     S
O1562  Zn1187  1.917   1_655 S
O1563  Zn788   1.916   1_565 S
O1564  Zn1581  1.916   .     S
O1565  Zn1575  1.940   .     S
O1566  Zn1570  1.938   .     S
O1567  Zn1584  1.938   .     S
O1567  C895    1.274   1_655 S
O1568  Zn1572  1.939   .     S
Zn1571 O736    1.935   1_565 S
Zn1574 O1143   1.929   1_655 S
Zn1576 O725    1.933   1_565 S
Zn1584 O1154   1.934   1_655 S
