data_str_m1_o1_o17_pcu_sym.71
_audit_creation_date              2020-01-03
_audit_creation_method            'Materials Studio'
_symmetry_space_group_name_H-M    'P1'
_symmetry_Int_Tables_number       1
_symmetry_cell_setting            triclinic
loop_
_symmetry_equiv_pos_as_xyz
  x,y,z
_cell_length_a                    36.6416
_cell_length_b                    36.6422
_cell_length_c                    34.5148
_cell_angle_alpha                 90.0000
_cell_angle_beta                  90.0000
_cell_angle_gamma                 90.0104
loop_
_atom_site_label
_atom_site_type_symbol
_atom_site_fract_x
_atom_site_fract_y
_atom_site_fract_z
_atom_site_U_iso_or_equiv
_atom_site_adp_type
_atom_site_occupancy
C1     C     0.02723   0.26956   0.41855   0.00000  Uiso   1.00
C2     C     0.22146   0.48260   0.08131   0.00000  Uiso   1.00
C3     C     0.23008   0.47327   0.54074   0.00000  Uiso   1.00
C4     C     0.02787   0.26877   0.45920   0.00000  Uiso   1.00
C5     C     0.47291   0.23062   0.54073   0.00000  Uiso   1.00
C6     C     0.23008   0.47327   0.45926   0.00000  Uiso   1.00
C7     C     0.26922   0.02753   0.54081   0.00000  Uiso   1.00
C8     C     0.22290   0.48064   0.95927   0.00000  Uiso   1.00
C9     C     0.27785   0.01879   0.04080   0.00000  Uiso   1.00
C10    C     0.01919   0.22279   0.95927   0.00000  Uiso   1.00
C11    C     0.48135   0.27794   0.04080   0.00000  Uiso   1.00
C12    C     0.27785   0.01879   0.95920   0.00000  Uiso   1.00
C13    C     0.48056   0.27731   0.91855   0.00000  Uiso   1.00
C14    C     0.22290   0.48064   0.04073   0.00000  Uiso   1.00
C15    C     0.48135   0.27794   0.95920   0.00000  Uiso   1.00
C16    C     0.01919   0.22279   0.04073   0.00000  Uiso   1.00
C17    C     0.09807   0.34819   0.25010   0.00000  Uiso   1.00
C18    C     0.40188   0.15186   0.74998   0.00000  Uiso   1.00
C19    C     0.15190   0.09815   0.24994   0.00000  Uiso   1.00
C20    C     0.34811   0.40185   0.75003   0.00000  Uiso   1.00
C21    C     0.40188   0.15186   0.25002   0.00000  Uiso   1.00
C22    C     0.09807   0.34819   0.74990   0.00000  Uiso   1.00
C23    C     0.34811   0.40185   0.24997   0.00000  Uiso   1.00
C24    C     0.01723   0.22136   0.08131   0.00000  Uiso   1.00
C25    C     0.15190   0.09815   0.75006   0.00000  Uiso   1.00
C26    C     0.09816   0.15190   0.75006   0.00000  Uiso   1.00
C27    C     0.40184   0.34809   0.24994   0.00000  Uiso   1.00
C28    C     0.15183   0.40192   0.74993   0.00000  Uiso   1.00
C29    C     0.34813   0.09812   0.25002   0.00000  Uiso   1.00
C30    C     0.40184   0.34809   0.75006   0.00000  Uiso   1.00
C31    C     0.09816   0.15190   0.24994   0.00000  Uiso   1.00
C32    C     0.34813   0.09812   0.74998   0.00000  Uiso   1.00
C33    C     0.15183   0.40192   0.25007   0.00000  Uiso   1.00
C34    C     0.00045   0.24964   0.47957   0.00000  Uiso   1.00
C35    C     0.22146   0.48260   0.91869   0.00000  Uiso   1.00
C36    C     0.00045   0.24964   0.52043   0.00000  Uiso   1.00
C37    C     0.24960   0.00046   0.47957   0.00000  Uiso   1.00
C38    C     0.24960   0.00046   0.52043   0.00000  Uiso   1.00
C39    C     0.25044   0.49966   0.97957   0.00000  Uiso   1.00
C40    C     0.25044   0.49966   0.02043   0.00000  Uiso   1.00
C41    C     0.00033   0.25043   0.97957   0.00000  Uiso   1.00
C42    C     0.00033   0.25043   0.02043   0.00000  Uiso   1.00
C43    C     0.04192   0.32380   0.39081   0.00000  Uiso   1.00
C44    C     0.41274   0.23719   0.60228   0.00000  Uiso   1.00
C45    C     0.23544   0.41299   0.39769   0.00000  Uiso   1.00
C46    C     0.27722   0.01958   0.08146   0.00000  Uiso   1.00
C47    C     0.32444   0.04066   0.60926   0.00000  Uiso   1.00
C48    C     0.41274   0.23718   0.39771   0.00000  Uiso   1.00
C49    C     0.04193   0.32380   0.60919   0.00000  Uiso   1.00
C50    C     0.32444   0.04067   0.39074   0.00000  Uiso   1.00
C51    C     0.23544   0.41299   0.60231   0.00000  Uiso   1.00
C52    C     0.29188   0.07383   0.89079   0.00000  Uiso   1.00
C53    C     0.16273   0.48722   0.10227   0.00000  Uiso   1.00
C54    C     0.42637   0.29223   0.89082   0.00000  Uiso   1.00
C55    C     0.01224   0.16267   0.10227   0.00000  Uiso   1.00
C56    C     0.16273   0.48721   0.89772   0.00000  Uiso   1.00
C57    C     0.01723   0.22136   0.91869   0.00000  Uiso   1.00
C58    C     0.29187   0.07383   0.10922   0.00000  Uiso   1.00
C59    C     0.01223   0.16266   0.89773   0.00000  Uiso   1.00
C60    C     0.42637   0.29223   0.10918   0.00000  Uiso   1.00
C61    C     0.48056   0.27731   0.08145   0.00000  Uiso   1.00
C62    C     0.49960   0.25063   0.39836   0.00000  Uiso   1.00
C63    C     0.49960   0.25063   0.60165   0.00000  Uiso   1.00
C64    C     0.25057   0.49960   0.39835   0.00000  Uiso   1.00
C65    C     0.47146   0.23258   0.58131   0.00000  Uiso   1.00
C66    C     0.25057   0.49960   0.60165   0.00000  Uiso   1.00
C67    C     0.24960   0.00064   0.89836   0.00000  Uiso   1.00
C68    C     0.24960   0.00064   0.10164   0.00000  Uiso   1.00
C69    C     0.49935   0.24959   0.89836   0.00000  Uiso   1.00
C70    C     0.49935   0.24959   0.10164   0.00000  Uiso   1.00
C71    C     0.44752   0.20956   0.47991   0.00000  Uiso   1.00
C72    C     0.05554   0.28674   0.52014   0.00000  Uiso   1.00
C73    C     0.28768   0.05487   0.47986   0.00000  Uiso   1.00
C74    C     0.20854   0.44829   0.52010   0.00000  Uiso   1.00
C75    C     0.05554   0.28674   0.47986   0.00000  Uiso   1.00
C76    C     0.23201   0.47180   0.41867   0.00000  Uiso   1.00
C77    C     0.44752   0.20956   0.52009   0.00000  Uiso   1.00
C78    C     0.20854   0.44829   0.47990   0.00000  Uiso   1.00
C79    C     0.28768   0.05487   0.52014   0.00000  Uiso   1.00
C80    C     0.19751   0.45958   0.97991   0.00000  Uiso   1.00
C81    C     0.30552   0.03677   0.02014   0.00000  Uiso   1.00
C82    C     0.04010   0.19728   0.97991   0.00000  Uiso   1.00
C83    C     0.46353   0.30570   0.02014   0.00000  Uiso   1.00
C84    C     0.30552   0.03677   0.97986   0.00000  Uiso   1.00
C85    C     0.19751   0.45958   0.02009   0.00000  Uiso   1.00
C86    C     0.46353   0.30570   0.97986   0.00000  Uiso   1.00
C87    C     0.26998   0.02689   0.58147   0.00000  Uiso   1.00
C88    C     0.04010   0.19728   0.02009   0.00000  Uiso   1.00
C89    C     0.24998   0.49993   0.35591   0.00000  Uiso   1.00
C90    C     0.24998   0.49993   0.64409   0.00000  Uiso   1.00
C91    C     0.49993   0.25000   0.35591   0.00000  Uiso   1.00
C92    C     0.49993   0.25000   0.64409   0.00000  Uiso   1.00
C93    C     0.49999   0.24993   0.85592   0.00000  Uiso   1.00
C94    C     0.49999   0.24993   0.14409   0.00000  Uiso   1.00
C95    C     0.24993   0.00001   0.85591   0.00000  Uiso   1.00
C96    C     0.24993   0.00001   0.14409   0.00000  Uiso   1.00
C97    C     0.17995   0.07006   0.24998   0.00000  Uiso   1.00
C98    C     0.47147   0.23258   0.41869   0.00000  Uiso   1.00
C99    C     0.32005   0.42994   0.75000   0.00000  Uiso   1.00
C100   C     0.42995   0.17994   0.25001   0.00000  Uiso   1.00
C101   C     0.07004   0.32008   0.74997   0.00000  Uiso   1.00
C102   C     0.32005   0.42994   0.25000   0.00000  Uiso   1.00
C103   C     0.17995   0.07006   0.75002   0.00000  Uiso   1.00
C104   C     0.07004   0.32008   0.25003   0.00000  Uiso   1.00
C105   C     0.42995   0.17994   0.74999   0.00000  Uiso   1.00
C106   C     0.17994   0.42996   0.74998   0.00000  Uiso   1.00
C107   C     0.32006   0.07005   0.25000   0.00000  Uiso   1.00
C108   C     0.42993   0.32004   0.75002   0.00000  Uiso   1.00
C109   C     0.02723   0.26956   0.58146   0.00000  Uiso   1.00
C110   C     0.07006   0.17995   0.24998   0.00000  Uiso   1.00
C111   C     0.32006   0.07005   0.75000   0.00000  Uiso   1.00
C112   C     0.17994   0.42996   0.25002   0.00000  Uiso   1.00
C113   C     0.07006   0.17995   0.75002   0.00000  Uiso   1.00
C114   C     0.42993   0.32004   0.24998   0.00000  Uiso   1.00
C115   C     0.12260   0.40415   0.22399   0.00000  Uiso   1.00
C116   C     0.37713   0.09612   0.77638   0.00000  Uiso   1.00
C117   C     0.09545   0.12220   0.22451   0.00000  Uiso   1.00
C118   C     0.40434   0.37759   0.77577   0.00000  Uiso   1.00
C119   C     0.37713   0.09612   0.22363   0.00000  Uiso   1.00
C120   C     0.26998   0.02690   0.41853   0.00000  Uiso   1.00
C121   C     0.12260   0.40415   0.77601   0.00000  Uiso   1.00
C122   C     0.40434   0.37759   0.22423   0.00000  Uiso   1.00
C123   C     0.09545   0.12220   0.77549   0.00000  Uiso   1.00
C124   C     0.12219   0.09545   0.77548   0.00000  Uiso   1.00
C125   C     0.37761   0.40434   0.22425   0.00000  Uiso   1.00
C126   C     0.09585   0.37742   0.77599   0.00000  Uiso   1.00
C127   C     0.40388   0.12285   0.22364   0.00000  Uiso   1.00
C128   C     0.37761   0.40434   0.77575   0.00000  Uiso   1.00
C129   C     0.12219   0.09545   0.22452   0.00000  Uiso   1.00
C130   C     0.40388   0.12285   0.77636   0.00000  Uiso   1.00
C131   C     0.23201   0.47180   0.58133   0.00000  Uiso   1.00
C132   C     0.09585   0.37742   0.22401   0.00000  Uiso   1.00
C133   C     0.37288   0.15386   0.72358   0.00000  Uiso   1.00
C134   C     0.12726   0.34600   0.27624   0.00000  Uiso   1.00
C135   C     0.34558   0.37232   0.72436   0.00000  Uiso   1.00
C136   C     0.15462   0.12789   0.27533   0.00000  Uiso   1.00
C137   C     0.12726   0.34600   0.72377   0.00000  Uiso   1.00
C138   C     0.37288   0.15386   0.27642   0.00000  Uiso   1.00
C139   C     0.15462   0.12789   0.72467   0.00000  Uiso   1.00
C140   C     0.34558   0.37232   0.27564   0.00000  Uiso   1.00
C141   C     0.37232   0.34557   0.27563   0.00000  Uiso   1.00
C142   C     0.27722   0.01958   0.91854   0.00000  Uiso   1.00
C143   C     0.12789   0.15462   0.72467   0.00000  Uiso   1.00
C144   C     0.34614   0.12711   0.27642   0.00000  Uiso   1.00
C145   C     0.15402   0.37273   0.72378   0.00000  Uiso   1.00
C146   C     0.12789   0.15462   0.27533   0.00000  Uiso   1.00
C147   C     0.37232   0.34557   0.72437   0.00000  Uiso   1.00
C148   C     0.15402   0.37273   0.27622   0.00000  Uiso   1.00
C149   C     0.34614   0.12711   0.72358   0.00000  Uiso   1.00
C150   C     0.47291   0.23062   0.45927   0.00000  Uiso   1.00
C151   C     0.02786   0.26877   0.54080   0.00000  Uiso   1.00
C152   C     0.26922   0.02753   0.45919   0.00000  Uiso   1.00
H153   H     0.42738   0.19301   0.46513   0.00000  Uiso   1.00
H154   H     0.32724   0.05113   0.03499   0.00000  Uiso   1.00
H155   H     0.05653   0.17705   0.96514   0.00000  Uiso   1.00
H156   H     0.44930   0.32750   0.03499   0.00000  Uiso   1.00
H157   H     0.32724   0.05113   0.96501   0.00000  Uiso   1.00
H158   H     0.17737   0.44303   0.03487   0.00000  Uiso   1.00
H159   H     0.44930   0.32750   0.96501   0.00000  Uiso   1.00
H160   H     0.05653   0.17705   0.03486   0.00000  Uiso   1.00
H161   H     0.12040   0.42645   0.20352   0.00000  Uiso   1.00
H162   H     0.37916   0.07399   0.79707   0.00000  Uiso   1.00
H163   H     0.07273   0.11958   0.20462   0.00000  Uiso   1.00
H164   H     0.07727   0.30108   0.53499   0.00000  Uiso   1.00
H165   H     0.42688   0.38003   0.79590   0.00000  Uiso   1.00
H166   H     0.37916   0.07399   0.20293   0.00000  Uiso   1.00
H167   H     0.12040   0.42645   0.79648   0.00000  Uiso   1.00
H168   H     0.42688   0.38003   0.20410   0.00000  Uiso   1.00
H169   H     0.07273   0.11958   0.79538   0.00000  Uiso   1.00
H170   H     0.11957   0.07273   0.79536   0.00000  Uiso   1.00
H171   H     0.38007   0.42690   0.20414   0.00000  Uiso   1.00
H172   H     0.07353   0.37963   0.79644   0.00000  Uiso   1.00
H173   H     0.42603   0.12082   0.20296   0.00000  Uiso   1.00
H174   H     0.38007   0.42690   0.79586   0.00000  Uiso   1.00
H175   H     0.30242   0.07634   0.46501   0.00000  Uiso   1.00
H176   H     0.11957   0.07273   0.20464   0.00000  Uiso   1.00
H177   H     0.42603   0.12082   0.79704   0.00000  Uiso   1.00
H178   H     0.07353   0.37963   0.20356   0.00000  Uiso   1.00
H179   H     0.37085   0.17600   0.70290   0.00000  Uiso   1.00
H180   H     0.12945   0.32370   0.29671   0.00000  Uiso   1.00
H181   H     0.32303   0.36986   0.70424   0.00000  Uiso   1.00
H182   H     0.17735   0.13051   0.29521   0.00000  Uiso   1.00
H183   H     0.12945   0.32370   0.70329   0.00000  Uiso   1.00
H184   H     0.37085   0.17600   0.29710   0.00000  Uiso   1.00
H185   H     0.17735   0.13051   0.70480   0.00000  Uiso   1.00
H186   H     0.19160   0.42847   0.53487   0.00000  Uiso   1.00
H187   H     0.32303   0.36986   0.29576   0.00000  Uiso   1.00
H188   H     0.36986   0.32301   0.29575   0.00000  Uiso   1.00
H189   H     0.13051   0.17735   0.70480   0.00000  Uiso   1.00
H190   H     0.32401   0.12913   0.29711   0.00000  Uiso   1.00
H191   H     0.17632   0.37054   0.70331   0.00000  Uiso   1.00
H192   H     0.13051   0.17735   0.29521   0.00000  Uiso   1.00
H193   H     0.36986   0.32302   0.70425   0.00000  Uiso   1.00
H194   H     0.17632   0.37054   0.29669   0.00000  Uiso   1.00
H195   H     0.32401   0.12913   0.70289   0.00000  Uiso   1.00
H196   H     0.03631   0.33901   0.41808   0.00000  Uiso   1.00
H197   H     0.07727   0.30108   0.46501   0.00000  Uiso   1.00
H198   H     0.01723   0.32372   0.37204   0.00000  Uiso   1.00
H199   H     0.06370   0.33868   0.37502   0.00000  Uiso   1.00
H200   H     0.39999   0.23950   0.57319   0.00000  Uiso   1.00
H201   H     0.41888   0.26498   0.61360   0.00000  Uiso   1.00
H202   H     0.39235   0.22464   0.62195   0.00000  Uiso   1.00
H203   H     0.23737   0.40014   0.42676   0.00000  Uiso   1.00
H204   H     0.26340   0.41857   0.38652   0.00000  Uiso   1.00
H205   H     0.22254   0.39291   0.37791   0.00000  Uiso   1.00
H206   H     0.33957   0.03475   0.58201   0.00000  Uiso   1.00
H207   H     0.32391   0.01600   0.62807   0.00000  Uiso   1.00
H208   H     0.42738   0.19301   0.53487   0.00000  Uiso   1.00
H209   H     0.33968   0.06220   0.62503   0.00000  Uiso   1.00
H210   H     0.41889   0.26498   0.38643   0.00000  Uiso   1.00
H211   H     0.39998   0.23948   0.42680   0.00000  Uiso   1.00
H212   H     0.39236   0.22465   0.37802   0.00000  Uiso   1.00
H213   H     0.01724   0.32372   0.62796   0.00000  Uiso   1.00
H214   H     0.03631   0.33901   0.58192   0.00000  Uiso   1.00
H215   H     0.06371   0.33868   0.62498   0.00000  Uiso   1.00
H216   H     0.32391   0.01601   0.37193   0.00000  Uiso   1.00
H217   H     0.33957   0.03475   0.41799   0.00000  Uiso   1.00
H218   H     0.33968   0.06221   0.37497   0.00000  Uiso   1.00
H219   H     0.19160   0.42847   0.46513   0.00000  Uiso   1.00
H220   H     0.26340   0.41857   0.61348   0.00000  Uiso   1.00
H221   H     0.23737   0.40014   0.57324   0.00000  Uiso   1.00
H222   H     0.22254   0.39291   0.62209   0.00000  Uiso   1.00
H223   H     0.28625   0.08904   0.91806   0.00000  Uiso   1.00
H224   H     0.26720   0.07372   0.87201   0.00000  Uiso   1.00
H225   H     0.31366   0.08871   0.87500   0.00000  Uiso   1.00
H226   H     0.14999   0.48954   0.07318   0.00000  Uiso   1.00
H227   H     0.16888   0.01502   0.11358   0.00000  Uiso   1.00
H228   H     0.14233   0.47468   0.12194   0.00000  Uiso   1.00
H229   H     0.41114   0.28669   0.91809   0.00000  Uiso   1.00
H230   H     0.30242   0.07634   0.53499   0.00000  Uiso   1.00
H231   H     0.42635   0.26753   0.87206   0.00000  Uiso   1.00
H232   H     0.41160   0.31406   0.87501   0.00000  Uiso   1.00
H233   H     0.00980   0.14995   0.07317   0.00000  Uiso   1.00
H234   H     0.48450   0.16898   0.11362   0.00000  Uiso   1.00
H235   H     0.02467   0.14218   0.12192   0.00000  Uiso   1.00
H236   H     0.16888   0.01501   0.88643   0.00000  Uiso   1.00
H237   H     0.14998   0.48952   0.92682   0.00000  Uiso   1.00
H238   H     0.14234   0.47468   0.87804   0.00000  Uiso   1.00
H239   H     0.26720   0.07371   0.12801   0.00000  Uiso   1.00
H240   H     0.28622   0.08903   0.08195   0.00000  Uiso   1.00
H241   H     0.17737   0.44302   0.96513   0.00000  Uiso   1.00
H242   H     0.31365   0.08872   0.12499   0.00000  Uiso   1.00
H243   H     0.48449   0.16898   0.88638   0.00000  Uiso   1.00
H244   H     0.00979   0.14995   0.92683   0.00000  Uiso   1.00
H245   H     0.02466   0.14218   0.87809   0.00000  Uiso   1.00
H246   H     0.42634   0.26753   0.12794   0.00000  Uiso   1.00
H247   H     0.41114   0.28669   0.08191   0.00000  Uiso   1.00
H248   H     0.41160   0.31406   0.12499   0.00000  Uiso   1.00
O249   O     0.25000  -0.00000   0.25000   0.00000  Uiso   1.00
O250   O     0.25000   0.46964   0.66245   0.00000  Uiso   1.00
O251   O     0.46964   0.25000   0.33755   0.00000  Uiso   1.00
O252   O     0.03037   0.25000   0.66245   0.00000  Uiso   1.00
O253   O     0.00000   0.21963   0.83755   0.00000  Uiso   1.00
O254   O     0.00000   0.28036   0.16245   0.00000  Uiso   1.00
O255   O     0.28037  -0.00000   0.83755   0.00000  Uiso   1.00
O256   O     0.21964   0.00000   0.16245   0.00000  Uiso   1.00
O257   O     0.00000   0.28036   0.83755   0.00000  Uiso   1.00
O258   O     0.00000   0.21963   0.16245   0.00000  Uiso   1.00
O259   O     0.21964  -0.00000   0.83755   0.00000  Uiso   1.00
O260   O     0.25000  -0.00000   0.75000   0.00000  Uiso   1.00
O261   O     0.28037   0.00000   0.16245   0.00000  Uiso   1.00
O262   O     0.20725   0.07307   0.27302   0.00000  Uiso   1.00
O263   O     0.29276   0.42693   0.72698   0.00000  Uiso   1.00
O264   O     0.42693   0.20724   0.27302   0.00000  Uiso   1.00
O265   O     0.07308   0.29276   0.72698   0.00000  Uiso   1.00
O266   O     0.29276   0.42693   0.27302   0.00000  Uiso   1.00
O267   O     0.20725   0.07307   0.72698   0.00000  Uiso   1.00
O268   O     0.07308   0.29276   0.27302   0.00000  Uiso   1.00
O269   O     0.42693   0.20724   0.72698   0.00000  Uiso   1.00
O270   O     0.20725   0.42693   0.72698   0.00000  Uiso   1.00
O271   O     0.00000   0.25000   0.25000   0.00000  Uiso   1.00
O272   O     0.29276   0.07307   0.27302   0.00000  Uiso   1.00
O273   O     0.42693   0.29275   0.72698   0.00000  Uiso   1.00
O274   O     0.07308   0.20725   0.27302   0.00000  Uiso   1.00
O275   O     0.29276   0.07307   0.72698   0.00000  Uiso   1.00
O276   O     0.20725   0.42693   0.27302   0.00000  Uiso   1.00
O277   O     0.07308   0.20725   0.72698   0.00000  Uiso   1.00
O278   O     0.42693   0.29275   0.27302   0.00000  Uiso   1.00
O279   O     0.45725   0.32307   0.77302   0.00000  Uiso   1.00
O280   O     0.04276   0.17693   0.22698   0.00000  Uiso   1.00
O281   O     0.17693   0.45725   0.77302   0.00000  Uiso   1.00
O282   O     0.00000   0.25000   0.75000   0.00000  Uiso   1.00
O283   O     0.32308   0.04275   0.22698   0.00000  Uiso   1.00
O284   O     0.04276   0.17693   0.77302   0.00000  Uiso   1.00
O285   O     0.45725   0.32307   0.22698   0.00000  Uiso   1.00
O286   O     0.32308   0.04275   0.77302   0.00000  Uiso   1.00
O287   O     0.17693   0.45725   0.22698   0.00000  Uiso   1.00
O288   O     0.45725   0.17692   0.22698   0.00000  Uiso   1.00
O289   O     0.04276   0.32308   0.77302   0.00000  Uiso   1.00
O290   O     0.17693   0.04275   0.22698   0.00000  Uiso   1.00
O291   O     0.32308   0.45725   0.77302   0.00000  Uiso   1.00
O292   O     0.04276   0.32308   0.22698   0.00000  Uiso   1.00
O293   O     0.25000   0.46964   0.33755   0.00000  Uiso   1.00
O294   O     0.45725   0.17692   0.77302   0.00000  Uiso   1.00
O295   O     0.32308   0.45725   0.22698   0.00000  Uiso   1.00
O296   O     0.17693   0.04275   0.77302   0.00000  Uiso   1.00
O297   O     0.05426   0.28805   0.39847   0.00000  Uiso   1.00
O298   O     0.44406   0.21465   0.60143   0.00000  Uiso   1.00
O299   O     0.21356   0.44477   0.39852   0.00000  Uiso   1.00
O300   O     0.28891   0.05361   0.60156   0.00000  Uiso   1.00
O301   O     0.44406   0.21465   0.39857   0.00000  Uiso   1.00
O302   O     0.05426   0.28804   0.60153   0.00000  Uiso   1.00
O303   O     0.28891   0.05361   0.39844   0.00000  Uiso   1.00
O304   O     0.25000   0.03036   0.66245   0.00000  Uiso   1.00
O305   O     0.21355   0.44477   0.60148   0.00000  Uiso   1.00
O306   O     0.30425   0.03808   0.89847   0.00000  Uiso   1.00
O307   O     0.19404   0.46468   0.10143   0.00000  Uiso   1.00
O308   O     0.46219   0.30442   0.89848   0.00000  Uiso   1.00
O309   O     0.03498   0.19384   0.10142   0.00000  Uiso   1.00
O310   O     0.19405   0.46467   0.89857   0.00000  Uiso   1.00
O311   O     0.30424   0.03808   0.10153   0.00000  Uiso   1.00
O312   O     0.03498   0.19384   0.89858   0.00000  Uiso   1.00
O313   O     0.46219   0.30442   0.10152   0.00000  Uiso   1.00
O314   O     0.03037   0.25000   0.33755   0.00000  Uiso   1.00
O315   O     0.46964   0.25000   0.66245   0.00000  Uiso   1.00
O316   O     0.25000   0.03036   0.33755   0.00000  Uiso   1.00
Zn317  Zn    0.20660   0.00000   0.21735   0.00000  Uiso   1.00
Zn318  Zn    0.04341   0.25000   0.28265   0.00000  Uiso   1.00
Zn319  Zn    0.25000   0.45660   0.71735   0.00000  Uiso   1.00
Zn320  Zn    0.25000   0.04340   0.28265   0.00000  Uiso   1.00
Zn321  Zn    0.04341   0.25000   0.71735   0.00000  Uiso   1.00
Zn322  Zn    0.45660   0.25000   0.28265   0.00000  Uiso   1.00
Zn323  Zn    0.25000   0.04340   0.71735   0.00000  Uiso   1.00
Zn324  Zn    0.25000   0.45660   0.28265   0.00000  Uiso   1.00
Zn325  Zn    0.29341  -0.00000   0.78265   0.00000  Uiso   1.00
Zn326  Zn    0.00000   0.20659   0.21735   0.00000  Uiso   1.00
Zn327  Zn    0.00000   0.29341   0.78265   0.00000  Uiso   1.00
Zn328  Zn    0.29341   0.00000   0.21735   0.00000  Uiso   1.00
Zn329  Zn    0.20660  -0.00000   0.78265   0.00000  Uiso   1.00
Zn330  Zn    0.00000   0.29341   0.21735   0.00000  Uiso   1.00
Zn331  Zn    0.00000   0.20659   0.78265   0.00000  Uiso   1.00
Zn332  Zn    0.45660   0.25000   0.71735   0.00000  Uiso   1.00
C333   C     0.52723   0.26956   0.41855   0.00000  Uiso   1.00
C334   C     0.72146   0.48260   0.08131   0.00000  Uiso   1.00
C335   C     0.73008   0.47327   0.54074   0.00000  Uiso   1.00
C336   C     0.52787   0.26877   0.45920   0.00000  Uiso   1.00
C337   C     0.97291   0.23062   0.54073   0.00000  Uiso   1.00
C338   C     0.73008   0.47327   0.45926   0.00000  Uiso   1.00
C339   C     0.76922   0.02753   0.54081   0.00000  Uiso   1.00
C340   C     0.72290   0.48064   0.95927   0.00000  Uiso   1.00
C341   C     0.77785   0.01879   0.04080   0.00000  Uiso   1.00
C342   C     0.51919   0.22279   0.95927   0.00000  Uiso   1.00
C343   C     0.98135   0.27794   0.04080   0.00000  Uiso   1.00
C344   C     0.77785   0.01879   0.95920   0.00000  Uiso   1.00
C345   C     0.98056   0.27731   0.91855   0.00000  Uiso   1.00
C346   C     0.72290   0.48064   0.04073   0.00000  Uiso   1.00
C347   C     0.98135   0.27794   0.95920   0.00000  Uiso   1.00
C348   C     0.51919   0.22279   0.04073   0.00000  Uiso   1.00
C349   C     0.59807   0.34819   0.25010   0.00000  Uiso   1.00
C350   C     0.90188   0.15186   0.74998   0.00000  Uiso   1.00
C351   C     0.65190   0.09815   0.24994   0.00000  Uiso   1.00
C352   C     0.84811   0.40185   0.75003   0.00000  Uiso   1.00
C353   C     0.90188   0.15186   0.25002   0.00000  Uiso   1.00
C354   C     0.59807   0.34819   0.74990   0.00000  Uiso   1.00
C355   C     0.84811   0.40185   0.24997   0.00000  Uiso   1.00
C356   C     0.51723   0.22136   0.08131   0.00000  Uiso   1.00
C357   C     0.65190   0.09815   0.75006   0.00000  Uiso   1.00
C358   C     0.59816   0.15190   0.75006   0.00000  Uiso   1.00
C359   C     0.90184   0.34809   0.24994   0.00000  Uiso   1.00
C360   C     0.65183   0.40192   0.74993   0.00000  Uiso   1.00
C361   C     0.84813   0.09812   0.25002   0.00000  Uiso   1.00
C362   C     0.90184   0.34809   0.75006   0.00000  Uiso   1.00
C363   C     0.59816   0.15190   0.24994   0.00000  Uiso   1.00
C364   C     0.84813   0.09812   0.74998   0.00000  Uiso   1.00
C365   C     0.65183   0.40192   0.25007   0.00000  Uiso   1.00
C366   C     0.50045   0.24964   0.47957   0.00000  Uiso   1.00
C367   C     0.72146   0.48260   0.91869   0.00000  Uiso   1.00
C368   C     0.50045   0.24964   0.52043   0.00000  Uiso   1.00
C369   C     0.74960   0.00046   0.47957   0.00000  Uiso   1.00
C370   C     0.74960   0.00046   0.52043   0.00000  Uiso   1.00
C371   C     0.75044   0.49966   0.97957   0.00000  Uiso   1.00
C372   C     0.75044   0.49966   0.02043   0.00000  Uiso   1.00
C373   C     0.50033   0.25043   0.97957   0.00000  Uiso   1.00
C374   C     0.50033   0.25043   0.02043   0.00000  Uiso   1.00
C375   C     0.54192   0.32380   0.39081   0.00000  Uiso   1.00
C376   C     0.91274   0.23719   0.60228   0.00000  Uiso   1.00
C377   C     0.73544   0.41299   0.39769   0.00000  Uiso   1.00
C378   C     0.77722   0.01958   0.08146   0.00000  Uiso   1.00
C379   C     0.82444   0.04066   0.60926   0.00000  Uiso   1.00
C380   C     0.91274   0.23718   0.39771   0.00000  Uiso   1.00
C381   C     0.54193   0.32380   0.60919   0.00000  Uiso   1.00
C382   C     0.82444   0.04067   0.39074   0.00000  Uiso   1.00
C383   C     0.73544   0.41299   0.60231   0.00000  Uiso   1.00
C384   C     0.79188   0.07383   0.89079   0.00000  Uiso   1.00
C385   C     0.66273   0.48722   0.10227   0.00000  Uiso   1.00
C386   C     0.92637   0.29223   0.89082   0.00000  Uiso   1.00
C387   C     0.51224   0.16267   0.10227   0.00000  Uiso   1.00
C388   C     0.66273   0.48721   0.89772   0.00000  Uiso   1.00
C389   C     0.51723   0.22136   0.91869   0.00000  Uiso   1.00
C390   C     0.79187   0.07383   0.10922   0.00000  Uiso   1.00
C391   C     0.51223   0.16266   0.89773   0.00000  Uiso   1.00
C392   C     0.92637   0.29223   0.10918   0.00000  Uiso   1.00
C393   C     0.98056   0.27731   0.08145   0.00000  Uiso   1.00
C394   C     0.99960   0.25063   0.39836   0.00000  Uiso   1.00
C395   C     0.99960   0.25063   0.60165   0.00000  Uiso   1.00
C396   C     0.75057   0.49960   0.39835   0.00000  Uiso   1.00
C397   C     0.97146   0.23258   0.58131   0.00000  Uiso   1.00
C398   C     0.75057   0.49960   0.60165   0.00000  Uiso   1.00
C399   C     0.74960   0.00064   0.89836   0.00000  Uiso   1.00
C400   C     0.74960   0.00064   0.10164   0.00000  Uiso   1.00
C401   C     0.99935   0.24959   0.89836   0.00000  Uiso   1.00
C402   C     0.99935   0.24959   0.10164   0.00000  Uiso   1.00
C403   C     0.94752   0.20956   0.47991   0.00000  Uiso   1.00
C404   C     0.55554   0.28674   0.52014   0.00000  Uiso   1.00
C405   C     0.78768   0.05487   0.47986   0.00000  Uiso   1.00
C406   C     0.70854   0.44829   0.52010   0.00000  Uiso   1.00
C407   C     0.55554   0.28674   0.47986   0.00000  Uiso   1.00
C408   C     0.73201   0.47180   0.41867   0.00000  Uiso   1.00
C409   C     0.94752   0.20956   0.52009   0.00000  Uiso   1.00
C410   C     0.70854   0.44829   0.47990   0.00000  Uiso   1.00
C411   C     0.78768   0.05487   0.52014   0.00000  Uiso   1.00
C412   C     0.69751   0.45958   0.97991   0.00000  Uiso   1.00
C413   C     0.80552   0.03677   0.02014   0.00000  Uiso   1.00
C414   C     0.54010   0.19728   0.97991   0.00000  Uiso   1.00
C415   C     0.96353   0.30570   0.02014   0.00000  Uiso   1.00
C416   C     0.80552   0.03677   0.97986   0.00000  Uiso   1.00
C417   C     0.69751   0.45958   0.02009   0.00000  Uiso   1.00
C418   C     0.96353   0.30570   0.97986   0.00000  Uiso   1.00
C419   C     0.76998   0.02689   0.58147   0.00000  Uiso   1.00
C420   C     0.54010   0.19728   0.02009   0.00000  Uiso   1.00
C421   C     0.74998   0.49993   0.35591   0.00000  Uiso   1.00
C422   C     0.74998   0.49993   0.64409   0.00000  Uiso   1.00
C423   C     0.99993   0.25000   0.35591   0.00000  Uiso   1.00
C424   C     0.99993   0.25000   0.64409   0.00000  Uiso   1.00
C425   C     0.99999   0.24993   0.85592   0.00000  Uiso   1.00
C426   C     0.99999   0.24993   0.14409   0.00000  Uiso   1.00
C427   C     0.74993   0.00001   0.85591   0.00000  Uiso   1.00
C428   C     0.74993   0.00001   0.14409   0.00000  Uiso   1.00
C429   C     0.67995   0.07006   0.24998   0.00000  Uiso   1.00
C430   C     0.97147   0.23258   0.41869   0.00000  Uiso   1.00
C431   C     0.82005   0.42994   0.75000   0.00000  Uiso   1.00
C432   C     0.92995   0.17994   0.25001   0.00000  Uiso   1.00
C433   C     0.57004   0.32008   0.74997   0.00000  Uiso   1.00
C434   C     0.82005   0.42994   0.25000   0.00000  Uiso   1.00
C435   C     0.67995   0.07006   0.75002   0.00000  Uiso   1.00
C436   C     0.57004   0.32008   0.25003   0.00000  Uiso   1.00
C437   C     0.92995   0.17994   0.74999   0.00000  Uiso   1.00
C438   C     0.67994   0.42996   0.74998   0.00000  Uiso   1.00
C439   C     0.82006   0.07005   0.25000   0.00000  Uiso   1.00
C440   C     0.92993   0.32004   0.75002   0.00000  Uiso   1.00
C441   C     0.52723   0.26956   0.58146   0.00000  Uiso   1.00
C442   C     0.57006   0.17995   0.24998   0.00000  Uiso   1.00
C443   C     0.82006   0.07005   0.75000   0.00000  Uiso   1.00
C444   C     0.67994   0.42996   0.25002   0.00000  Uiso   1.00
C445   C     0.57006   0.17995   0.75002   0.00000  Uiso   1.00
C446   C     0.92993   0.32004   0.24998   0.00000  Uiso   1.00
C447   C     0.62260   0.40415   0.22399   0.00000  Uiso   1.00
C448   C     0.87713   0.09612   0.77638   0.00000  Uiso   1.00
C449   C     0.59545   0.12220   0.22451   0.00000  Uiso   1.00
C450   C     0.90434   0.37759   0.77577   0.00000  Uiso   1.00
C451   C     0.87713   0.09612   0.22363   0.00000  Uiso   1.00
C452   C     0.76998   0.02690   0.41853   0.00000  Uiso   1.00
C453   C     0.62260   0.40415   0.77601   0.00000  Uiso   1.00
C454   C     0.90434   0.37759   0.22423   0.00000  Uiso   1.00
C455   C     0.59545   0.12220   0.77549   0.00000  Uiso   1.00
C456   C     0.62219   0.09545   0.77548   0.00000  Uiso   1.00
C457   C     0.87761   0.40434   0.22425   0.00000  Uiso   1.00
C458   C     0.59585   0.37742   0.77599   0.00000  Uiso   1.00
C459   C     0.90388   0.12285   0.22364   0.00000  Uiso   1.00
C460   C     0.87761   0.40434   0.77575   0.00000  Uiso   1.00
C461   C     0.62219   0.09545   0.22452   0.00000  Uiso   1.00
C462   C     0.90388   0.12285   0.77636   0.00000  Uiso   1.00
C463   C     0.73201   0.47180   0.58133   0.00000  Uiso   1.00
C464   C     0.59585   0.37742   0.22401   0.00000  Uiso   1.00
C465   C     0.87288   0.15386   0.72358   0.00000  Uiso   1.00
C466   C     0.62726   0.34600   0.27624   0.00000  Uiso   1.00
C467   C     0.84558   0.37232   0.72436   0.00000  Uiso   1.00
C468   C     0.65462   0.12789   0.27533   0.00000  Uiso   1.00
C469   C     0.62726   0.34600   0.72377   0.00000  Uiso   1.00
C470   C     0.87288   0.15386   0.27642   0.00000  Uiso   1.00
C471   C     0.65462   0.12789   0.72467   0.00000  Uiso   1.00
C472   C     0.84558   0.37232   0.27564   0.00000  Uiso   1.00
C473   C     0.87232   0.34557   0.27563   0.00000  Uiso   1.00
C474   C     0.77722   0.01958   0.91854   0.00000  Uiso   1.00
C475   C     0.62789   0.15462   0.72467   0.00000  Uiso   1.00
C476   C     0.84614   0.12711   0.27642   0.00000  Uiso   1.00
C477   C     0.65402   0.37273   0.72378   0.00000  Uiso   1.00
C478   C     0.62789   0.15462   0.27533   0.00000  Uiso   1.00
C479   C     0.87232   0.34557   0.72437   0.00000  Uiso   1.00
C480   C     0.65402   0.37273   0.27622   0.00000  Uiso   1.00
C481   C     0.84614   0.12711   0.72358   0.00000  Uiso   1.00
C482   C     0.97291   0.23062   0.45927   0.00000  Uiso   1.00
C483   C     0.52786   0.26877   0.54080   0.00000  Uiso   1.00
C484   C     0.76922   0.02753   0.45919   0.00000  Uiso   1.00
H485   H     0.92738   0.19301   0.46513   0.00000  Uiso   1.00
H486   H     0.82724   0.05113   0.03499   0.00000  Uiso   1.00
H487   H     0.55653   0.17705   0.96514   0.00000  Uiso   1.00
H488   H     0.94930   0.32750   0.03499   0.00000  Uiso   1.00
H489   H     0.82724   0.05113   0.96501   0.00000  Uiso   1.00
H490   H     0.67737   0.44303   0.03487   0.00000  Uiso   1.00
H491   H     0.94930   0.32750   0.96501   0.00000  Uiso   1.00
H492   H     0.55653   0.17705   0.03486   0.00000  Uiso   1.00
H493   H     0.62040   0.42645   0.20352   0.00000  Uiso   1.00
H494   H     0.87916   0.07399   0.79707   0.00000  Uiso   1.00
H495   H     0.57273   0.11958   0.20462   0.00000  Uiso   1.00
H496   H     0.57727   0.30108   0.53499   0.00000  Uiso   1.00
H497   H     0.92688   0.38003   0.79590   0.00000  Uiso   1.00
H498   H     0.87916   0.07399   0.20293   0.00000  Uiso   1.00
H499   H     0.62040   0.42645   0.79648   0.00000  Uiso   1.00
H500   H     0.92688   0.38003   0.20410   0.00000  Uiso   1.00
H501   H     0.57273   0.11958   0.79538   0.00000  Uiso   1.00
H502   H     0.61957   0.07273   0.79536   0.00000  Uiso   1.00
H503   H     0.88007   0.42690   0.20414   0.00000  Uiso   1.00
H504   H     0.57353   0.37963   0.79644   0.00000  Uiso   1.00
H505   H     0.92603   0.12082   0.20296   0.00000  Uiso   1.00
H506   H     0.88007   0.42690   0.79586   0.00000  Uiso   1.00
H507   H     0.80242   0.07634   0.46501   0.00000  Uiso   1.00
H508   H     0.61957   0.07273   0.20464   0.00000  Uiso   1.00
H509   H     0.92603   0.12082   0.79704   0.00000  Uiso   1.00
H510   H     0.57353   0.37963   0.20356   0.00000  Uiso   1.00
H511   H     0.87085   0.17600   0.70290   0.00000  Uiso   1.00
H512   H     0.62945   0.32370   0.29671   0.00000  Uiso   1.00
H513   H     0.82303   0.36986   0.70424   0.00000  Uiso   1.00
H514   H     0.67735   0.13051   0.29521   0.00000  Uiso   1.00
H515   H     0.62945   0.32370   0.70329   0.00000  Uiso   1.00
H516   H     0.87085   0.17600   0.29710   0.00000  Uiso   1.00
H517   H     0.67735   0.13051   0.70480   0.00000  Uiso   1.00
H518   H     0.69160   0.42847   0.53487   0.00000  Uiso   1.00
H519   H     0.82303   0.36986   0.29576   0.00000  Uiso   1.00
H520   H     0.86986   0.32301   0.29575   0.00000  Uiso   1.00
H521   H     0.63051   0.17735   0.70480   0.00000  Uiso   1.00
H522   H     0.82401   0.12913   0.29711   0.00000  Uiso   1.00
H523   H     0.67632   0.37054   0.70331   0.00000  Uiso   1.00
H524   H     0.63051   0.17735   0.29521   0.00000  Uiso   1.00
H525   H     0.86986   0.32302   0.70425   0.00000  Uiso   1.00
H526   H     0.67632   0.37054   0.29669   0.00000  Uiso   1.00
H527   H     0.82401   0.12913   0.70289   0.00000  Uiso   1.00
H528   H     0.53631   0.33901   0.41808   0.00000  Uiso   1.00
H529   H     0.57727   0.30108   0.46501   0.00000  Uiso   1.00
H530   H     0.51723   0.32372   0.37204   0.00000  Uiso   1.00
H531   H     0.56370   0.33868   0.37502   0.00000  Uiso   1.00
H532   H     0.89999   0.23950   0.57319   0.00000  Uiso   1.00
H533   H     0.91888   0.26498   0.61360   0.00000  Uiso   1.00
H534   H     0.89235   0.22464   0.62195   0.00000  Uiso   1.00
H535   H     0.73737   0.40014   0.42676   0.00000  Uiso   1.00
H536   H     0.76340   0.41857   0.38652   0.00000  Uiso   1.00
H537   H     0.72254   0.39291   0.37791   0.00000  Uiso   1.00
H538   H     0.83957   0.03475   0.58201   0.00000  Uiso   1.00
H539   H     0.82391   0.01600   0.62807   0.00000  Uiso   1.00
H540   H     0.92738   0.19301   0.53487   0.00000  Uiso   1.00
H541   H     0.83968   0.06220   0.62503   0.00000  Uiso   1.00
H542   H     0.91889   0.26498   0.38643   0.00000  Uiso   1.00
H543   H     0.89998   0.23948   0.42680   0.00000  Uiso   1.00
H544   H     0.89236   0.22465   0.37802   0.00000  Uiso   1.00
H545   H     0.51724   0.32372   0.62796   0.00000  Uiso   1.00
H546   H     0.53631   0.33901   0.58192   0.00000  Uiso   1.00
H547   H     0.56371   0.33868   0.62498   0.00000  Uiso   1.00
H548   H     0.82391   0.01601   0.37193   0.00000  Uiso   1.00
H549   H     0.83957   0.03475   0.41799   0.00000  Uiso   1.00
H550   H     0.83968   0.06221   0.37497   0.00000  Uiso   1.00
H551   H     0.69160   0.42847   0.46513   0.00000  Uiso   1.00
H552   H     0.76340   0.41857   0.61348   0.00000  Uiso   1.00
H553   H     0.73737   0.40014   0.57324   0.00000  Uiso   1.00
H554   H     0.72254   0.39291   0.62209   0.00000  Uiso   1.00
H555   H     0.78625   0.08904   0.91806   0.00000  Uiso   1.00
H556   H     0.76720   0.07372   0.87201   0.00000  Uiso   1.00
H557   H     0.81366   0.08871   0.87500   0.00000  Uiso   1.00
H558   H     0.64999   0.48954   0.07318   0.00000  Uiso   1.00
H559   H     0.66888   0.01502   0.11358   0.00000  Uiso   1.00
H560   H     0.64233   0.47468   0.12194   0.00000  Uiso   1.00
H561   H     0.91114   0.28669   0.91809   0.00000  Uiso   1.00
H562   H     0.80242   0.07634   0.53499   0.00000  Uiso   1.00
H563   H     0.92635   0.26753   0.87206   0.00000  Uiso   1.00
H564   H     0.91160   0.31406   0.87501   0.00000  Uiso   1.00
H565   H     0.50980   0.14995   0.07317   0.00000  Uiso   1.00
H566   H     0.98450   0.16898   0.11362   0.00000  Uiso   1.00
H567   H     0.52467   0.14218   0.12192   0.00000  Uiso   1.00
H568   H     0.66888   0.01501   0.88643   0.00000  Uiso   1.00
H569   H     0.64998   0.48952   0.92682   0.00000  Uiso   1.00
H570   H     0.64234   0.47468   0.87804   0.00000  Uiso   1.00
H571   H     0.76720   0.07371   0.12801   0.00000  Uiso   1.00
H572   H     0.78622   0.08903   0.08195   0.00000  Uiso   1.00
H573   H     0.67737   0.44302   0.96513   0.00000  Uiso   1.00
H574   H     0.81365   0.08872   0.12499   0.00000  Uiso   1.00
H575   H     0.98449   0.16898   0.88638   0.00000  Uiso   1.00
H576   H     0.50979   0.14995   0.92683   0.00000  Uiso   1.00
H577   H     0.52466   0.14218   0.87809   0.00000  Uiso   1.00
H578   H     0.92634   0.26753   0.12794   0.00000  Uiso   1.00
H579   H     0.91114   0.28669   0.08191   0.00000  Uiso   1.00
H580   H     0.91160   0.31406   0.12499   0.00000  Uiso   1.00
O581   O     0.75000  -0.00000   0.25000   0.00000  Uiso   1.00
O582   O     0.75000   0.46964   0.66245   0.00000  Uiso   1.00
O583   O     0.96964   0.25000   0.33755   0.00000  Uiso   1.00
O584   O     0.53037   0.25000   0.66245   0.00000  Uiso   1.00
O585   O     0.50000   0.21963   0.83755   0.00000  Uiso   1.00
O586   O     0.50000   0.28036   0.16245   0.00000  Uiso   1.00
O587   O     0.78037  -0.00000   0.83755   0.00000  Uiso   1.00
O588   O     0.71964   0.00000   0.16245   0.00000  Uiso   1.00
O589   O     0.50000   0.28036   0.83755   0.00000  Uiso   1.00
O590   O     0.50000   0.21963   0.16245   0.00000  Uiso   1.00
O591   O     0.71964  -0.00000   0.83755   0.00000  Uiso   1.00
O592   O     0.75000  -0.00000   0.75000   0.00000  Uiso   1.00
O593   O     0.78037   0.00000   0.16245   0.00000  Uiso   1.00
O594   O     0.70725   0.07307   0.27302   0.00000  Uiso   1.00
O595   O     0.79276   0.42693   0.72698   0.00000  Uiso   1.00
O596   O     0.92693   0.20724   0.27302   0.00000  Uiso   1.00
O597   O     0.57308   0.29276   0.72698   0.00000  Uiso   1.00
O598   O     0.79276   0.42693   0.27302   0.00000  Uiso   1.00
O599   O     0.70725   0.07307   0.72698   0.00000  Uiso   1.00
O600   O     0.57308   0.29276   0.27302   0.00000  Uiso   1.00
O601   O     0.92693   0.20724   0.72698   0.00000  Uiso   1.00
O602   O     0.70725   0.42693   0.72698   0.00000  Uiso   1.00
O603   O     0.50000   0.25000   0.25000   0.00000  Uiso   1.00
O604   O     0.79276   0.07307   0.27302   0.00000  Uiso   1.00
O605   O     0.92693   0.29275   0.72698   0.00000  Uiso   1.00
O606   O     0.57308   0.20725   0.27302   0.00000  Uiso   1.00
O607   O     0.79276   0.07307   0.72698   0.00000  Uiso   1.00
O608   O     0.70725   0.42693   0.27302   0.00000  Uiso   1.00
O609   O     0.57308   0.20725   0.72698   0.00000  Uiso   1.00
O610   O     0.92693   0.29275   0.27302   0.00000  Uiso   1.00
O611   O     0.95725   0.32307   0.77302   0.00000  Uiso   1.00
O612   O     0.54276   0.17693   0.22698   0.00000  Uiso   1.00
O613   O     0.67693   0.45725   0.77302   0.00000  Uiso   1.00
O614   O     0.50000   0.25000   0.75000   0.00000  Uiso   1.00
O615   O     0.82308   0.04275   0.22698   0.00000  Uiso   1.00
O616   O     0.54276   0.17693   0.77302   0.00000  Uiso   1.00
O617   O     0.95725   0.32307   0.22698   0.00000  Uiso   1.00
O618   O     0.82308   0.04275   0.77302   0.00000  Uiso   1.00
O619   O     0.67693   0.45725   0.22698   0.00000  Uiso   1.00
O620   O     0.95725   0.17692   0.22698   0.00000  Uiso   1.00
O621   O     0.54276   0.32308   0.77302   0.00000  Uiso   1.00
O622   O     0.67693   0.04275   0.22698   0.00000  Uiso   1.00
O623   O     0.82308   0.45725   0.77302   0.00000  Uiso   1.00
O624   O     0.54276   0.32308   0.22698   0.00000  Uiso   1.00
O625   O     0.75000   0.46964   0.33755   0.00000  Uiso   1.00
O626   O     0.95725   0.17692   0.77302   0.00000  Uiso   1.00
O627   O     0.82308   0.45725   0.22698   0.00000  Uiso   1.00
O628   O     0.67693   0.04275   0.77302   0.00000  Uiso   1.00
O629   O     0.55426   0.28805   0.39847   0.00000  Uiso   1.00
O630   O     0.94406   0.21465   0.60143   0.00000  Uiso   1.00
O631   O     0.71356   0.44477   0.39852   0.00000  Uiso   1.00
O632   O     0.78891   0.05361   0.60156   0.00000  Uiso   1.00
O633   O     0.94406   0.21465   0.39857   0.00000  Uiso   1.00
O634   O     0.55426   0.28804   0.60153   0.00000  Uiso   1.00
O635   O     0.78891   0.05361   0.39844   0.00000  Uiso   1.00
O636   O     0.75000   0.03036   0.66245   0.00000  Uiso   1.00
O637   O     0.71355   0.44477   0.60148   0.00000  Uiso   1.00
O638   O     0.80425   0.03808   0.89847   0.00000  Uiso   1.00
O639   O     0.69404   0.46468   0.10143   0.00000  Uiso   1.00
O640   O     0.96219   0.30442   0.89848   0.00000  Uiso   1.00
O641   O     0.53498   0.19384   0.10142   0.00000  Uiso   1.00
O642   O     0.69405   0.46467   0.89857   0.00000  Uiso   1.00
O643   O     0.80424   0.03808   0.10153   0.00000  Uiso   1.00
O644   O     0.53498   0.19384   0.89858   0.00000  Uiso   1.00
O645   O     0.96219   0.30442   0.10152   0.00000  Uiso   1.00
O646   O     0.53037   0.25000   0.33755   0.00000  Uiso   1.00
O647   O     0.96964   0.25000   0.66245   0.00000  Uiso   1.00
O648   O     0.75000   0.03036   0.33755   0.00000  Uiso   1.00
Zn649  Zn    0.70660   0.00000   0.21735   0.00000  Uiso   1.00
Zn650  Zn    0.54341   0.25000   0.28265   0.00000  Uiso   1.00
Zn651  Zn    0.75000   0.45660   0.71735   0.00000  Uiso   1.00
Zn652  Zn    0.75000   0.04340   0.28265   0.00000  Uiso   1.00
Zn653  Zn    0.54341   0.25000   0.71735   0.00000  Uiso   1.00
Zn654  Zn    0.95660   0.25000   0.28265   0.00000  Uiso   1.00
Zn655  Zn    0.75000   0.04340   0.71735   0.00000  Uiso   1.00
Zn656  Zn    0.75000   0.45660   0.28265   0.00000  Uiso   1.00
Zn657  Zn    0.79341  -0.00000   0.78265   0.00000  Uiso   1.00
Zn658  Zn    0.50000   0.20659   0.21735   0.00000  Uiso   1.00
Zn659  Zn    0.50000   0.29341   0.78265   0.00000  Uiso   1.00
Zn660  Zn    0.79341   0.00000   0.21735   0.00000  Uiso   1.00
Zn661  Zn    0.70660  -0.00000   0.78265   0.00000  Uiso   1.00
Zn662  Zn    0.50000   0.29341   0.21735   0.00000  Uiso   1.00
Zn663  Zn    0.50000   0.20659   0.78265   0.00000  Uiso   1.00
Zn664  Zn    0.95660   0.25000   0.71735   0.00000  Uiso   1.00
C665   C     0.02723   0.76956   0.41855   0.00000  Uiso   1.00
C666   C     0.22146   0.98260   0.08131   0.00000  Uiso   1.00
C667   C     0.23008   0.97327   0.54074   0.00000  Uiso   1.00
C668   C     0.02787   0.76877   0.45920   0.00000  Uiso   1.00
C669   C     0.47291   0.73062   0.54073   0.00000  Uiso   1.00
C670   C     0.23008   0.97327   0.45926   0.00000  Uiso   1.00
C671   C     0.26922   0.52753   0.54081   0.00000  Uiso   1.00
C672   C     0.22290   0.98064   0.95927   0.00000  Uiso   1.00
C673   C     0.27785   0.51879   0.04080   0.00000  Uiso   1.00
C674   C     0.01919   0.72279   0.95927   0.00000  Uiso   1.00
C675   C     0.48135   0.77794   0.04080   0.00000  Uiso   1.00
C676   C     0.27785   0.51879   0.95920   0.00000  Uiso   1.00
C677   C     0.48056   0.77731   0.91855   0.00000  Uiso   1.00
C678   C     0.22290   0.98064   0.04073   0.00000  Uiso   1.00
C679   C     0.48135   0.77794   0.95920   0.00000  Uiso   1.00
C680   C     0.01919   0.72279   0.04073   0.00000  Uiso   1.00
C681   C     0.09807   0.84819   0.25010   0.00000  Uiso   1.00
C682   C     0.40188   0.65186   0.74998   0.00000  Uiso   1.00
C683   C     0.15190   0.59815   0.24994   0.00000  Uiso   1.00
C684   C     0.34811   0.90185   0.75003   0.00000  Uiso   1.00
C685   C     0.40188   0.65186   0.25002   0.00000  Uiso   1.00
C686   C     0.09807   0.84819   0.74990   0.00000  Uiso   1.00
C687   C     0.34811   0.90185   0.24997   0.00000  Uiso   1.00
C688   C     0.01723   0.72136   0.08131   0.00000  Uiso   1.00
C689   C     0.15190   0.59815   0.75006   0.00000  Uiso   1.00
C690   C     0.09816   0.65190   0.75006   0.00000  Uiso   1.00
C691   C     0.40184   0.84809   0.24994   0.00000  Uiso   1.00
C692   C     0.15183   0.90192   0.74993   0.00000  Uiso   1.00
C693   C     0.34813   0.59812   0.25002   0.00000  Uiso   1.00
C694   C     0.40184   0.84809   0.75006   0.00000  Uiso   1.00
C695   C     0.09816   0.65190   0.24994   0.00000  Uiso   1.00
C696   C     0.34813   0.59812   0.74998   0.00000  Uiso   1.00
C697   C     0.15183   0.90192   0.25007   0.00000  Uiso   1.00
C698   C     0.00045   0.74964   0.47957   0.00000  Uiso   1.00
C699   C     0.22146   0.98260   0.91869   0.00000  Uiso   1.00
C700   C     0.00045   0.74964   0.52043   0.00000  Uiso   1.00
C701   C     0.24960   0.50046   0.47957   0.00000  Uiso   1.00
C702   C     0.24960   0.50046   0.52043   0.00000  Uiso   1.00
C703   C     0.25044   0.99966   0.97957   0.00000  Uiso   1.00
C704   C     0.25044   0.99966   0.02043   0.00000  Uiso   1.00
C705   C     0.00033   0.75043   0.97957   0.00000  Uiso   1.00
C706   C     0.00033   0.75043   0.02043   0.00000  Uiso   1.00
C707   C     0.04192   0.82380   0.39081   0.00000  Uiso   1.00
C708   C     0.41274   0.73719   0.60228   0.00000  Uiso   1.00
C709   C     0.23544   0.91299   0.39769   0.00000  Uiso   1.00
C710   C     0.27722   0.51958   0.08146   0.00000  Uiso   1.00
C711   C     0.32444   0.54066   0.60926   0.00000  Uiso   1.00
C712   C     0.41274   0.73718   0.39771   0.00000  Uiso   1.00
C713   C     0.04193   0.82380   0.60919   0.00000  Uiso   1.00
C714   C     0.32444   0.54067   0.39074   0.00000  Uiso   1.00
C715   C     0.23544   0.91299   0.60231   0.00000  Uiso   1.00
C716   C     0.29188   0.57383   0.89079   0.00000  Uiso   1.00
C717   C     0.16273   0.98722   0.10227   0.00000  Uiso   1.00
C718   C     0.42637   0.79223   0.89082   0.00000  Uiso   1.00
C719   C     0.01224   0.66267   0.10227   0.00000  Uiso   1.00
C720   C     0.16273   0.98721   0.89772   0.00000  Uiso   1.00
C721   C     0.01723   0.72136   0.91869   0.00000  Uiso   1.00
C722   C     0.29187   0.57383   0.10922   0.00000  Uiso   1.00
C723   C     0.01223   0.66266   0.89773   0.00000  Uiso   1.00
C724   C     0.42637   0.79223   0.10918   0.00000  Uiso   1.00
C725   C     0.48056   0.77731   0.08145   0.00000  Uiso   1.00
C726   C     0.49960   0.75063   0.39836   0.00000  Uiso   1.00
C727   C     0.49960   0.75063   0.60165   0.00000  Uiso   1.00
C728   C     0.25057   0.99960   0.39835   0.00000  Uiso   1.00
C729   C     0.47146   0.73258   0.58131   0.00000  Uiso   1.00
C730   C     0.25057   0.99960   0.60165   0.00000  Uiso   1.00
C731   C     0.24960   0.50064   0.89836   0.00000  Uiso   1.00
C732   C     0.24960   0.50064   0.10164   0.00000  Uiso   1.00
C733   C     0.49935   0.74959   0.89836   0.00000  Uiso   1.00
C734   C     0.49935   0.74959   0.10164   0.00000  Uiso   1.00
C735   C     0.44752   0.70956   0.47991   0.00000  Uiso   1.00
C736   C     0.05554   0.78674   0.52014   0.00000  Uiso   1.00
C737   C     0.28768   0.55487   0.47986   0.00000  Uiso   1.00
C738   C     0.20854   0.94829   0.52010   0.00000  Uiso   1.00
C739   C     0.05554   0.78674   0.47986   0.00000  Uiso   1.00
C740   C     0.23201   0.97180   0.41867   0.00000  Uiso   1.00
C741   C     0.44752   0.70956   0.52009   0.00000  Uiso   1.00
C742   C     0.20854   0.94829   0.47990   0.00000  Uiso   1.00
C743   C     0.28768   0.55487   0.52014   0.00000  Uiso   1.00
C744   C     0.19751   0.95958   0.97991   0.00000  Uiso   1.00
C745   C     0.30552   0.53677   0.02014   0.00000  Uiso   1.00
C746   C     0.04010   0.69728   0.97991   0.00000  Uiso   1.00
C747   C     0.46353   0.80570   0.02014   0.00000  Uiso   1.00
C748   C     0.30552   0.53677   0.97986   0.00000  Uiso   1.00
C749   C     0.19751   0.95958   0.02009   0.00000  Uiso   1.00
C750   C     0.46353   0.80570   0.97986   0.00000  Uiso   1.00
C751   C     0.26998   0.52689   0.58147   0.00000  Uiso   1.00
C752   C     0.04010   0.69728   0.02009   0.00000  Uiso   1.00
C753   C     0.24998   0.99993   0.35591   0.00000  Uiso   1.00
C754   C     0.24998   0.99993   0.64409   0.00000  Uiso   1.00
C755   C     0.49993   0.75000   0.35591   0.00000  Uiso   1.00
C756   C     0.49993   0.75000   0.64409   0.00000  Uiso   1.00
C757   C     0.49999   0.74993   0.85592   0.00000  Uiso   1.00
C758   C     0.49999   0.74993   0.14409   0.00000  Uiso   1.00
C759   C     0.24993   0.50001   0.85591   0.00000  Uiso   1.00
C760   C     0.24993   0.50001   0.14409   0.00000  Uiso   1.00
C761   C     0.17995   0.57006   0.24998   0.00000  Uiso   1.00
C762   C     0.47147   0.73258   0.41869   0.00000  Uiso   1.00
C763   C     0.32005   0.92994   0.75000   0.00000  Uiso   1.00
C764   C     0.42995   0.67994   0.25001   0.00000  Uiso   1.00
C765   C     0.07004   0.82008   0.74997   0.00000  Uiso   1.00
C766   C     0.32005   0.92994   0.25000   0.00000  Uiso   1.00
C767   C     0.17995   0.57006   0.75002   0.00000  Uiso   1.00
C768   C     0.07004   0.82008   0.25003   0.00000  Uiso   1.00
C769   C     0.42995   0.67994   0.74999   0.00000  Uiso   1.00
C770   C     0.17994   0.92996   0.74998   0.00000  Uiso   1.00
C771   C     0.32006   0.57005   0.25000   0.00000  Uiso   1.00
C772   C     0.42993   0.82004   0.75002   0.00000  Uiso   1.00
C773   C     0.02723   0.76956   0.58146   0.00000  Uiso   1.00
C774   C     0.07006   0.67995   0.24998   0.00000  Uiso   1.00
C775   C     0.32006   0.57005   0.75000   0.00000  Uiso   1.00
C776   C     0.17994   0.92996   0.25002   0.00000  Uiso   1.00
C777   C     0.07006   0.67995   0.75002   0.00000  Uiso   1.00
C778   C     0.42993   0.82004   0.24998   0.00000  Uiso   1.00
C779   C     0.12260   0.90415   0.22399   0.00000  Uiso   1.00
C780   C     0.37713   0.59612   0.77638   0.00000  Uiso   1.00
C781   C     0.09545   0.62220   0.22451   0.00000  Uiso   1.00
C782   C     0.40434   0.87759   0.77577   0.00000  Uiso   1.00
C783   C     0.37713   0.59612   0.22363   0.00000  Uiso   1.00
C784   C     0.26998   0.52690   0.41853   0.00000  Uiso   1.00
C785   C     0.12260   0.90415   0.77601   0.00000  Uiso   1.00
C786   C     0.40434   0.87759   0.22423   0.00000  Uiso   1.00
C787   C     0.09545   0.62220   0.77549   0.00000  Uiso   1.00
C788   C     0.12219   0.59545   0.77548   0.00000  Uiso   1.00
C789   C     0.37761   0.90434   0.22425   0.00000  Uiso   1.00
C790   C     0.09585   0.87742   0.77599   0.00000  Uiso   1.00
C791   C     0.40388   0.62285   0.22364   0.00000  Uiso   1.00
C792   C     0.37761   0.90434   0.77575   0.00000  Uiso   1.00
C793   C     0.12219   0.59545   0.22452   0.00000  Uiso   1.00
C794   C     0.40388   0.62285   0.77636   0.00000  Uiso   1.00
C795   C     0.23201   0.97180   0.58133   0.00000  Uiso   1.00
C796   C     0.09585   0.87742   0.22401   0.00000  Uiso   1.00
C797   C     0.37288   0.65386   0.72358   0.00000  Uiso   1.00
C798   C     0.12726   0.84600   0.27624   0.00000  Uiso   1.00
C799   C     0.34558   0.87232   0.72436   0.00000  Uiso   1.00
C800   C     0.15462   0.62789   0.27533   0.00000  Uiso   1.00
C801   C     0.12726   0.84600   0.72377   0.00000  Uiso   1.00
C802   C     0.37288   0.65386   0.27642   0.00000  Uiso   1.00
C803   C     0.15462   0.62789   0.72467   0.00000  Uiso   1.00
C804   C     0.34558   0.87232   0.27564   0.00000  Uiso   1.00
C805   C     0.37232   0.84557   0.27563   0.00000  Uiso   1.00
C806   C     0.27722   0.51958   0.91854   0.00000  Uiso   1.00
C807   C     0.12789   0.65462   0.72467   0.00000  Uiso   1.00
C808   C     0.34614   0.62711   0.27642   0.00000  Uiso   1.00
C809   C     0.15402   0.87273   0.72378   0.00000  Uiso   1.00
C810   C     0.12789   0.65462   0.27533   0.00000  Uiso   1.00
C811   C     0.37232   0.84557   0.72437   0.00000  Uiso   1.00
C812   C     0.15402   0.87273   0.27622   0.00000  Uiso   1.00
C813   C     0.34614   0.62711   0.72358   0.00000  Uiso   1.00
C814   C     0.47291   0.73062   0.45927   0.00000  Uiso   1.00
C815   C     0.02786   0.76877   0.54080   0.00000  Uiso   1.00
C816   C     0.26922   0.52753   0.45919   0.00000  Uiso   1.00
H817   H     0.42738   0.69301   0.46513   0.00000  Uiso   1.00
H818   H     0.32724   0.55113   0.03499   0.00000  Uiso   1.00
H819   H     0.05653   0.67705   0.96514   0.00000  Uiso   1.00
H820   H     0.44930   0.82750   0.03499   0.00000  Uiso   1.00
H821   H     0.32724   0.55113   0.96501   0.00000  Uiso   1.00
H822   H     0.17737   0.94303   0.03487   0.00000  Uiso   1.00
H823   H     0.44930   0.82750   0.96501   0.00000  Uiso   1.00
H824   H     0.05653   0.67705   0.03486   0.00000  Uiso   1.00
H825   H     0.12040   0.92645   0.20352   0.00000  Uiso   1.00
H826   H     0.37916   0.57399   0.79707   0.00000  Uiso   1.00
H827   H     0.07273   0.61958   0.20462   0.00000  Uiso   1.00
H828   H     0.07727   0.80108   0.53499   0.00000  Uiso   1.00
H829   H     0.42688   0.88003   0.79590   0.00000  Uiso   1.00
H830   H     0.37916   0.57399   0.20293   0.00000  Uiso   1.00
H831   H     0.12040   0.92645   0.79648   0.00000  Uiso   1.00
H832   H     0.42688   0.88003   0.20410   0.00000  Uiso   1.00
H833   H     0.07273   0.61958   0.79538   0.00000  Uiso   1.00
H834   H     0.11957   0.57273   0.79536   0.00000  Uiso   1.00
H835   H     0.38007   0.92690   0.20414   0.00000  Uiso   1.00
H836   H     0.07353   0.87963   0.79644   0.00000  Uiso   1.00
H837   H     0.42603   0.62082   0.20296   0.00000  Uiso   1.00
H838   H     0.38007   0.92690   0.79586   0.00000  Uiso   1.00
H839   H     0.30242   0.57634   0.46501   0.00000  Uiso   1.00
H840   H     0.11957   0.57273   0.20464   0.00000  Uiso   1.00
H841   H     0.42603   0.62082   0.79704   0.00000  Uiso   1.00
H842   H     0.07353   0.87963   0.20356   0.00000  Uiso   1.00
H843   H     0.37085   0.67600   0.70290   0.00000  Uiso   1.00
H844   H     0.12945   0.82370   0.29671   0.00000  Uiso   1.00
H845   H     0.32303   0.86986   0.70424   0.00000  Uiso   1.00
H846   H     0.17735   0.63051   0.29521   0.00000  Uiso   1.00
H847   H     0.12945   0.82370   0.70329   0.00000  Uiso   1.00
H848   H     0.37085   0.67600   0.29710   0.00000  Uiso   1.00
H849   H     0.17735   0.63051   0.70480   0.00000  Uiso   1.00
H850   H     0.19160   0.92847   0.53487   0.00000  Uiso   1.00
H851   H     0.32303   0.86986   0.29576   0.00000  Uiso   1.00
H852   H     0.36986   0.82301   0.29575   0.00000  Uiso   1.00
H853   H     0.13051   0.67735   0.70480   0.00000  Uiso   1.00
H854   H     0.32401   0.62913   0.29711   0.00000  Uiso   1.00
H855   H     0.17632   0.87054   0.70331   0.00000  Uiso   1.00
H856   H     0.13051   0.67735   0.29521   0.00000  Uiso   1.00
H857   H     0.36986   0.82302   0.70425   0.00000  Uiso   1.00
H858   H     0.17632   0.87054   0.29669   0.00000  Uiso   1.00
H859   H     0.32401   0.62913   0.70289   0.00000  Uiso   1.00
H860   H     0.03631   0.83901   0.41808   0.00000  Uiso   1.00
H861   H     0.07727   0.80108   0.46501   0.00000  Uiso   1.00
H862   H     0.01723   0.82372   0.37204   0.00000  Uiso   1.00
H863   H     0.06370   0.83868   0.37502   0.00000  Uiso   1.00
H864   H     0.39999   0.73950   0.57319   0.00000  Uiso   1.00
H865   H     0.41888   0.76498   0.61360   0.00000  Uiso   1.00
H866   H     0.39235   0.72464   0.62195   0.00000  Uiso   1.00
H867   H     0.23737   0.90014   0.42676   0.00000  Uiso   1.00
H868   H     0.26340   0.91857   0.38652   0.00000  Uiso   1.00
H869   H     0.22254   0.89291   0.37791   0.00000  Uiso   1.00
H870   H     0.33957   0.53475   0.58201   0.00000  Uiso   1.00
H871   H     0.32391   0.51600   0.62807   0.00000  Uiso   1.00
H872   H     0.42738   0.69301   0.53487   0.00000  Uiso   1.00
H873   H     0.33968   0.56220   0.62503   0.00000  Uiso   1.00
H874   H     0.41889   0.76498   0.38643   0.00000  Uiso   1.00
H875   H     0.39998   0.73948   0.42680   0.00000  Uiso   1.00
H876   H     0.39236   0.72465   0.37802   0.00000  Uiso   1.00
H877   H     0.01724   0.82372   0.62796   0.00000  Uiso   1.00
H878   H     0.03631   0.83901   0.58192   0.00000  Uiso   1.00
H879   H     0.06371   0.83868   0.62498   0.00000  Uiso   1.00
H880   H     0.32391   0.51601   0.37193   0.00000  Uiso   1.00
H881   H     0.33957   0.53475   0.41799   0.00000  Uiso   1.00
H882   H     0.33968   0.56221   0.37497   0.00000  Uiso   1.00
H883   H     0.19160   0.92847   0.46513   0.00000  Uiso   1.00
H884   H     0.26340   0.91857   0.61348   0.00000  Uiso   1.00
H885   H     0.23737   0.90014   0.57324   0.00000  Uiso   1.00
H886   H     0.22254   0.89291   0.62209   0.00000  Uiso   1.00
H887   H     0.28625   0.58904   0.91806   0.00000  Uiso   1.00
H888   H     0.26720   0.57372   0.87201   0.00000  Uiso   1.00
H889   H     0.31366   0.58871   0.87500   0.00000  Uiso   1.00
H890   H     0.14999   0.98954   0.07318   0.00000  Uiso   1.00
H891   H     0.16888   0.51502   0.11358   0.00000  Uiso   1.00
H892   H     0.14233   0.97468   0.12194   0.00000  Uiso   1.00
H893   H     0.41114   0.78669   0.91809   0.00000  Uiso   1.00
H894   H     0.30242   0.57634   0.53499   0.00000  Uiso   1.00
H895   H     0.42635   0.76753   0.87206   0.00000  Uiso   1.00
H896   H     0.41160   0.81406   0.87501   0.00000  Uiso   1.00
H897   H     0.00980   0.64995   0.07317   0.00000  Uiso   1.00
H898   H     0.48450   0.66898   0.11362   0.00000  Uiso   1.00
H899   H     0.02467   0.64218   0.12192   0.00000  Uiso   1.00
H900   H     0.16888   0.51501   0.88643   0.00000  Uiso   1.00
H901   H     0.14998   0.98952   0.92682   0.00000  Uiso   1.00
H902   H     0.14234   0.97468   0.87804   0.00000  Uiso   1.00
H903   H     0.26720   0.57371   0.12801   0.00000  Uiso   1.00
H904   H     0.28622   0.58903   0.08195   0.00000  Uiso   1.00
H905   H     0.17737   0.94302   0.96513   0.00000  Uiso   1.00
H906   H     0.31365   0.58872   0.12499   0.00000  Uiso   1.00
H907   H     0.48449   0.66898   0.88638   0.00000  Uiso   1.00
H908   H     0.00979   0.64995   0.92683   0.00000  Uiso   1.00
H909   H     0.02466   0.64218   0.87809   0.00000  Uiso   1.00
H910   H     0.42634   0.76753   0.12794   0.00000  Uiso   1.00
H911   H     0.41114   0.78669   0.08191   0.00000  Uiso   1.00
H912   H     0.41160   0.81406   0.12499   0.00000  Uiso   1.00
O913   O     0.25000   0.50000   0.25000   0.00000  Uiso   1.00
O914   O     0.25000   0.96964   0.66245   0.00000  Uiso   1.00
O915   O     0.46964   0.75000   0.33755   0.00000  Uiso   1.00
O916   O     0.03037   0.75000   0.66245   0.00000  Uiso   1.00
O917   O     0.00000   0.71963   0.83755   0.00000  Uiso   1.00
O918   O     0.00000   0.78036   0.16245   0.00000  Uiso   1.00
O919   O     0.28037   0.50000   0.83755   0.00000  Uiso   1.00
O920   O     0.21964   0.50000   0.16245   0.00000  Uiso   1.00
O921   O     0.00000   0.78036   0.83755   0.00000  Uiso   1.00
O922   O     0.00000   0.71963   0.16245   0.00000  Uiso   1.00
O923   O     0.21964   0.50000   0.83755   0.00000  Uiso   1.00
O924   O     0.25000   0.50000   0.75000   0.00000  Uiso   1.00
O925   O     0.28037   0.50000   0.16245   0.00000  Uiso   1.00
O926   O     0.20725   0.57307   0.27302   0.00000  Uiso   1.00
O927   O     0.29276   0.92693   0.72698   0.00000  Uiso   1.00
O928   O     0.42693   0.70724   0.27302   0.00000  Uiso   1.00
O929   O     0.07308   0.79276   0.72698   0.00000  Uiso   1.00
O930   O     0.29276   0.92693   0.27302   0.00000  Uiso   1.00
O931   O     0.20725   0.57307   0.72698   0.00000  Uiso   1.00
O932   O     0.07308   0.79276   0.27302   0.00000  Uiso   1.00
O933   O     0.42693   0.70724   0.72698   0.00000  Uiso   1.00
O934   O     0.20725   0.92693   0.72698   0.00000  Uiso   1.00
O935   O     0.00000   0.75000   0.25000   0.00000  Uiso   1.00
O936   O     0.29276   0.57307   0.27302   0.00000  Uiso   1.00
O937   O     0.42693   0.79275   0.72698   0.00000  Uiso   1.00
O938   O     0.07308   0.70725   0.27302   0.00000  Uiso   1.00
O939   O     0.29276   0.57307   0.72698   0.00000  Uiso   1.00
O940   O     0.20725   0.92693   0.27302   0.00000  Uiso   1.00
O941   O     0.07308   0.70725   0.72698   0.00000  Uiso   1.00
O942   O     0.42693   0.79275   0.27302   0.00000  Uiso   1.00
O943   O     0.45725   0.82307   0.77302   0.00000  Uiso   1.00
O944   O     0.04276   0.67693   0.22698   0.00000  Uiso   1.00
O945   O     0.17693   0.95725   0.77302   0.00000  Uiso   1.00
O946   O     0.00000   0.75000   0.75000   0.00000  Uiso   1.00
O947   O     0.32308   0.54275   0.22698   0.00000  Uiso   1.00
O948   O     0.04276   0.67693   0.77302   0.00000  Uiso   1.00
O949   O     0.45725   0.82307   0.22698   0.00000  Uiso   1.00
O950   O     0.32308   0.54275   0.77302   0.00000  Uiso   1.00
O951   O     0.17693   0.95725   0.22698   0.00000  Uiso   1.00
O952   O     0.45725   0.67692   0.22698   0.00000  Uiso   1.00
O953   O     0.04276   0.82308   0.77302   0.00000  Uiso   1.00
O954   O     0.17693   0.54275   0.22698   0.00000  Uiso   1.00
O955   O     0.32308   0.95725   0.77302   0.00000  Uiso   1.00
O956   O     0.04276   0.82308   0.22698   0.00000  Uiso   1.00
O957   O     0.25000   0.96964   0.33755   0.00000  Uiso   1.00
O958   O     0.45725   0.67692   0.77302   0.00000  Uiso   1.00
O959   O     0.32308   0.95725   0.22698   0.00000  Uiso   1.00
O960   O     0.17693   0.54275   0.77302   0.00000  Uiso   1.00
O961   O     0.05426   0.78805   0.39847   0.00000  Uiso   1.00
O962   O     0.44406   0.71465   0.60143   0.00000  Uiso   1.00
O963   O     0.21356   0.94477   0.39852   0.00000  Uiso   1.00
O964   O     0.28891   0.55361   0.60156   0.00000  Uiso   1.00
O965   O     0.44406   0.71465   0.39857   0.00000  Uiso   1.00
O966   O     0.05426   0.78804   0.60153   0.00000  Uiso   1.00
O967   O     0.28891   0.55361   0.39844   0.00000  Uiso   1.00
O968   O     0.25000   0.53036   0.66245   0.00000  Uiso   1.00
O969   O     0.21355   0.94477   0.60148   0.00000  Uiso   1.00
O970   O     0.30425   0.53808   0.89847   0.00000  Uiso   1.00
O971   O     0.19404   0.96468   0.10143   0.00000  Uiso   1.00
O972   O     0.46219   0.80442   0.89848   0.00000  Uiso   1.00
O973   O     0.03498   0.69384   0.10142   0.00000  Uiso   1.00
O974   O     0.19405   0.96467   0.89857   0.00000  Uiso   1.00
O975   O     0.30424   0.53808   0.10153   0.00000  Uiso   1.00
O976   O     0.03498   0.69384   0.89858   0.00000  Uiso   1.00
O977   O     0.46219   0.80442   0.10152   0.00000  Uiso   1.00
O978   O     0.03037   0.75000   0.33755   0.00000  Uiso   1.00
O979   O     0.46964   0.75000   0.66245   0.00000  Uiso   1.00
O980   O     0.25000   0.53036   0.33755   0.00000  Uiso   1.00
Zn981  Zn    0.20660   0.50000   0.21735   0.00000  Uiso   1.00
Zn982  Zn    0.04341   0.75000   0.28265   0.00000  Uiso   1.00
Zn983  Zn    0.25000   0.95660   0.71735   0.00000  Uiso   1.00
Zn984  Zn    0.25000   0.54340   0.28265   0.00000  Uiso   1.00
Zn985  Zn    0.04341   0.75000   0.71735   0.00000  Uiso   1.00
Zn986  Zn    0.45660   0.75000   0.28265   0.00000  Uiso   1.00
Zn987  Zn    0.25000   0.54340   0.71735   0.00000  Uiso   1.00
Zn988  Zn    0.25000   0.95660   0.28265   0.00000  Uiso   1.00
Zn989  Zn    0.29341   0.50000   0.78265   0.00000  Uiso   1.00
Zn990  Zn    0.00000   0.70659   0.21735   0.00000  Uiso   1.00
Zn991  Zn    0.00000   0.79341   0.78265   0.00000  Uiso   1.00
Zn992  Zn    0.29341   0.50000   0.21735   0.00000  Uiso   1.00
Zn993  Zn    0.20660   0.50000   0.78265   0.00000  Uiso   1.00
Zn994  Zn    0.00000   0.79341   0.21735   0.00000  Uiso   1.00
Zn995  Zn    0.00000   0.70659   0.78265   0.00000  Uiso   1.00
Zn996  Zn    0.45660   0.75000   0.71735   0.00000  Uiso   1.00
C997   C     0.52723   0.76956   0.41855   0.00000  Uiso   1.00
C998   C     0.72146   0.98260   0.08131   0.00000  Uiso   1.00
C999   C     0.73008   0.97327   0.54074   0.00000  Uiso   1.00
C1000  C     0.52787   0.76877   0.45920   0.00000  Uiso   1.00
C1001  C     0.97291   0.73062   0.54073   0.00000  Uiso   1.00
C1002  C     0.73008   0.97327   0.45926   0.00000  Uiso   1.00
C1003  C     0.76922   0.52753   0.54081   0.00000  Uiso   1.00
C1004  C     0.72290   0.98064   0.95927   0.00000  Uiso   1.00
C1005  C     0.77785   0.51879   0.04080   0.00000  Uiso   1.00
C1006  C     0.51919   0.72279   0.95927   0.00000  Uiso   1.00
C1007  C     0.98135   0.77794   0.04080   0.00000  Uiso   1.00
C1008  C     0.77785   0.51879   0.95920   0.00000  Uiso   1.00
C1009  C     0.98056   0.77731   0.91855   0.00000  Uiso   1.00
C1010  C     0.72290   0.98064   0.04073   0.00000  Uiso   1.00
C1011  C     0.98135   0.77794   0.95920   0.00000  Uiso   1.00
C1012  C     0.51919   0.72279   0.04073   0.00000  Uiso   1.00
C1013  C     0.59807   0.84819   0.25010   0.00000  Uiso   1.00
C1014  C     0.90188   0.65186   0.74998   0.00000  Uiso   1.00
C1015  C     0.65190   0.59815   0.24994   0.00000  Uiso   1.00
C1016  C     0.84811   0.90185   0.75003   0.00000  Uiso   1.00
C1017  C     0.90188   0.65186   0.25002   0.00000  Uiso   1.00
C1018  C     0.59807   0.84819   0.74990   0.00000  Uiso   1.00
C1019  C     0.84811   0.90185   0.24997   0.00000  Uiso   1.00
C1020  C     0.51723   0.72136   0.08131   0.00000  Uiso   1.00
C1021  C     0.65190   0.59815   0.75006   0.00000  Uiso   1.00
C1022  C     0.59816   0.65190   0.75006   0.00000  Uiso   1.00
C1023  C     0.90184   0.84809   0.24994   0.00000  Uiso   1.00
C1024  C     0.65183   0.90192   0.74993   0.00000  Uiso   1.00
C1025  C     0.84813   0.59812   0.25002   0.00000  Uiso   1.00
C1026  C     0.90184   0.84809   0.75006   0.00000  Uiso   1.00
C1027  C     0.59816   0.65190   0.24994   0.00000  Uiso   1.00
C1028  C     0.84813   0.59812   0.74998   0.00000  Uiso   1.00
C1029  C     0.65183   0.90192   0.25007   0.00000  Uiso   1.00
C1030  C     0.50045   0.74964   0.47957   0.00000  Uiso   1.00
C1031  C     0.72146   0.98260   0.91869   0.00000  Uiso   1.00
C1032  C     0.50045   0.74964   0.52043   0.00000  Uiso   1.00
C1033  C     0.74960   0.50046   0.47957   0.00000  Uiso   1.00
C1034  C     0.74960   0.50046   0.52043   0.00000  Uiso   1.00
C1035  C     0.75044   0.99966   0.97957   0.00000  Uiso   1.00
C1036  C     0.75044   0.99966   0.02043   0.00000  Uiso   1.00
C1037  C     0.50033   0.75043   0.97957   0.00000  Uiso   1.00
C1038  C     0.50033   0.75043   0.02043   0.00000  Uiso   1.00
C1039  C     0.54192   0.82380   0.39081   0.00000  Uiso   1.00
C1040  C     0.91274   0.73719   0.60228   0.00000  Uiso   1.00
C1041  C     0.73544   0.91299   0.39769   0.00000  Uiso   1.00
C1042  C     0.77722   0.51958   0.08146   0.00000  Uiso   1.00
C1043  C     0.82444   0.54066   0.60926   0.00000  Uiso   1.00
C1044  C     0.91274   0.73718   0.39771   0.00000  Uiso   1.00
C1045  C     0.54193   0.82380   0.60919   0.00000  Uiso   1.00
C1046  C     0.82444   0.54067   0.39074   0.00000  Uiso   1.00
C1047  C     0.73544   0.91299   0.60231   0.00000  Uiso   1.00
C1048  C     0.79188   0.57383   0.89079   0.00000  Uiso   1.00
C1049  C     0.66273   0.98722   0.10227   0.00000  Uiso   1.00
C1050  C     0.92637   0.79223   0.89082   0.00000  Uiso   1.00
C1051  C     0.51224   0.66267   0.10227   0.00000  Uiso   1.00
C1052  C     0.66273   0.98721   0.89772   0.00000  Uiso   1.00
C1053  C     0.51723   0.72136   0.91869   0.00000  Uiso   1.00
C1054  C     0.79187   0.57383   0.10922   0.00000  Uiso   1.00
C1055  C     0.51223   0.66266   0.89773   0.00000  Uiso   1.00
C1056  C     0.92637   0.79223   0.10918   0.00000  Uiso   1.00
C1057  C     0.98056   0.77731   0.08145   0.00000  Uiso   1.00
C1058  C     0.99960   0.75063   0.39836   0.00000  Uiso   1.00
C1059  C     0.99960   0.75063   0.60165   0.00000  Uiso   1.00
C1060  C     0.75057   0.99960   0.39835   0.00000  Uiso   1.00
C1061  C     0.97146   0.73258   0.58131   0.00000  Uiso   1.00
C1062  C     0.75057   0.99960   0.60165   0.00000  Uiso   1.00
C1063  C     0.74960   0.50064   0.89836   0.00000  Uiso   1.00
C1064  C     0.74960   0.50064   0.10164   0.00000  Uiso   1.00
C1065  C     0.99935   0.74959   0.89836   0.00000  Uiso   1.00
C1066  C     0.99935   0.74959   0.10164   0.00000  Uiso   1.00
C1067  C     0.94752   0.70956   0.47991   0.00000  Uiso   1.00
C1068  C     0.55554   0.78674   0.52014   0.00000  Uiso   1.00
C1069  C     0.78768   0.55487   0.47986   0.00000  Uiso   1.00
C1070  C     0.70854   0.94829   0.52010   0.00000  Uiso   1.00
C1071  C     0.55554   0.78674   0.47986   0.00000  Uiso   1.00
C1072  C     0.73201   0.97180   0.41867   0.00000  Uiso   1.00
C1073  C     0.94752   0.70956   0.52009   0.00000  Uiso   1.00
C1074  C     0.70854   0.94829   0.47990   0.00000  Uiso   1.00
C1075  C     0.78768   0.55487   0.52014   0.00000  Uiso   1.00
C1076  C     0.69751   0.95958   0.97991   0.00000  Uiso   1.00
C1077  C     0.80552   0.53677   0.02014   0.00000  Uiso   1.00
C1078  C     0.54010   0.69728   0.97991   0.00000  Uiso   1.00
C1079  C     0.96353   0.80570   0.02014   0.00000  Uiso   1.00
C1080  C     0.80552   0.53677   0.97986   0.00000  Uiso   1.00
C1081  C     0.69751   0.95958   0.02009   0.00000  Uiso   1.00
C1082  C     0.96353   0.80570   0.97986   0.00000  Uiso   1.00
C1083  C     0.76998   0.52689   0.58147   0.00000  Uiso   1.00
C1084  C     0.54010   0.69728   0.02009   0.00000  Uiso   1.00
C1085  C     0.74998   0.99993   0.35591   0.00000  Uiso   1.00
C1086  C     0.74998   0.99993   0.64409   0.00000  Uiso   1.00
C1087  C     0.99993   0.75000   0.35591   0.00000  Uiso   1.00
C1088  C     0.99993   0.75000   0.64409   0.00000  Uiso   1.00
C1089  C     0.99999   0.74993   0.85592   0.00000  Uiso   1.00
C1090  C     0.99999   0.74993   0.14409   0.00000  Uiso   1.00
C1091  C     0.74993   0.50001   0.85591   0.00000  Uiso   1.00
C1092  C     0.74993   0.50001   0.14409   0.00000  Uiso   1.00
C1093  C     0.67995   0.57006   0.24998   0.00000  Uiso   1.00
C1094  C     0.97147   0.73258   0.41869   0.00000  Uiso   1.00
C1095  C     0.82005   0.92994   0.75000   0.00000  Uiso   1.00
C1096  C     0.92995   0.67994   0.25001   0.00000  Uiso   1.00
C1097  C     0.57004   0.82008   0.74997   0.00000  Uiso   1.00
C1098  C     0.82005   0.92994   0.25000   0.00000  Uiso   1.00
C1099  C     0.67995   0.57006   0.75002   0.00000  Uiso   1.00
C1100  C     0.57004   0.82008   0.25003   0.00000  Uiso   1.00
C1101  C     0.92995   0.67994   0.74999   0.00000  Uiso   1.00
C1102  C     0.67994   0.92996   0.74998   0.00000  Uiso   1.00
C1103  C     0.82006   0.57005   0.25000   0.00000  Uiso   1.00
C1104  C     0.92993   0.82004   0.75002   0.00000  Uiso   1.00
C1105  C     0.52723   0.76956   0.58146   0.00000  Uiso   1.00
C1106  C     0.57006   0.67995   0.24998   0.00000  Uiso   1.00
C1107  C     0.82006   0.57005   0.75000   0.00000  Uiso   1.00
C1108  C     0.67994   0.92996   0.25002   0.00000  Uiso   1.00
C1109  C     0.57006   0.67995   0.75002   0.00000  Uiso   1.00
C1110  C     0.92993   0.82004   0.24998   0.00000  Uiso   1.00
C1111  C     0.62260   0.90415   0.22399   0.00000  Uiso   1.00
C1112  C     0.87713   0.59612   0.77638   0.00000  Uiso   1.00
C1113  C     0.59545   0.62220   0.22451   0.00000  Uiso   1.00
C1114  C     0.90434   0.87759   0.77577   0.00000  Uiso   1.00
C1115  C     0.87713   0.59612   0.22363   0.00000  Uiso   1.00
C1116  C     0.76998   0.52690   0.41853   0.00000  Uiso   1.00
C1117  C     0.62260   0.90415   0.77601   0.00000  Uiso   1.00
C1118  C     0.90434   0.87759   0.22423   0.00000  Uiso   1.00
C1119  C     0.59545   0.62220   0.77549   0.00000  Uiso   1.00
C1120  C     0.62219   0.59545   0.77548   0.00000  Uiso   1.00
C1121  C     0.87761   0.90434   0.22425   0.00000  Uiso   1.00
C1122  C     0.59585   0.87742   0.77599   0.00000  Uiso   1.00
C1123  C     0.90388   0.62285   0.22364   0.00000  Uiso   1.00
C1124  C     0.87761   0.90434   0.77575   0.00000  Uiso   1.00
C1125  C     0.62219   0.59545   0.22452   0.00000  Uiso   1.00
C1126  C     0.90388   0.62285   0.77636   0.00000  Uiso   1.00
C1127  C     0.73201   0.97180   0.58133   0.00000  Uiso   1.00
C1128  C     0.59585   0.87742   0.22401   0.00000  Uiso   1.00
C1129  C     0.87288   0.65386   0.72358   0.00000  Uiso   1.00
C1130  C     0.62726   0.84600   0.27624   0.00000  Uiso   1.00
C1131  C     0.84558   0.87232   0.72436   0.00000  Uiso   1.00
C1132  C     0.65462   0.62789   0.27533   0.00000  Uiso   1.00
C1133  C     0.62726   0.84600   0.72377   0.00000  Uiso   1.00
C1134  C     0.87288   0.65386   0.27642   0.00000  Uiso   1.00
C1135  C     0.65462   0.62789   0.72467   0.00000  Uiso   1.00
C1136  C     0.84558   0.87232   0.27564   0.00000  Uiso   1.00
C1137  C     0.87232   0.84557   0.27563   0.00000  Uiso   1.00
C1138  C     0.77722   0.51958   0.91854   0.00000  Uiso   1.00
C1139  C     0.62789   0.65462   0.72467   0.00000  Uiso   1.00
C1140  C     0.84614   0.62711   0.27642   0.00000  Uiso   1.00
C1141  C     0.65402   0.87273   0.72378   0.00000  Uiso   1.00
C1142  C     0.62789   0.65462   0.27533   0.00000  Uiso   1.00
C1143  C     0.87232   0.84557   0.72437   0.00000  Uiso   1.00
C1144  C     0.65402   0.87273   0.27622   0.00000  Uiso   1.00
C1145  C     0.84614   0.62711   0.72358   0.00000  Uiso   1.00
C1146  C     0.97291   0.73062   0.45927   0.00000  Uiso   1.00
C1147  C     0.52786   0.76877   0.54080   0.00000  Uiso   1.00
C1148  C     0.76922   0.52753   0.45919   0.00000  Uiso   1.00
H1149  H     0.92738   0.69301   0.46513   0.00000  Uiso   1.00
H1150  H     0.82724   0.55113   0.03499   0.00000  Uiso   1.00
H1151  H     0.55653   0.67705   0.96514   0.00000  Uiso   1.00
H1152  H     0.94930   0.82750   0.03499   0.00000  Uiso   1.00
H1153  H     0.82724   0.55113   0.96501   0.00000  Uiso   1.00
H1154  H     0.67737   0.94303   0.03487   0.00000  Uiso   1.00
H1155  H     0.94930   0.82750   0.96501   0.00000  Uiso   1.00
H1156  H     0.55653   0.67705   0.03486   0.00000  Uiso   1.00
H1157  H     0.62040   0.92645   0.20352   0.00000  Uiso   1.00
H1158  H     0.87916   0.57399   0.79707   0.00000  Uiso   1.00
H1159  H     0.57273   0.61958   0.20462   0.00000  Uiso   1.00
H1160  H     0.57727   0.80108   0.53499   0.00000  Uiso   1.00
H1161  H     0.92688   0.88003   0.79590   0.00000  Uiso   1.00
H1162  H     0.87916   0.57399   0.20293   0.00000  Uiso   1.00
H1163  H     0.62040   0.92645   0.79648   0.00000  Uiso   1.00
H1164  H     0.92688   0.88003   0.20410   0.00000  Uiso   1.00
H1165  H     0.57273   0.61958   0.79538   0.00000  Uiso   1.00
H1166  H     0.61957   0.57273   0.79536   0.00000  Uiso   1.00
H1167  H     0.88007   0.92690   0.20414   0.00000  Uiso   1.00
H1168  H     0.57353   0.87963   0.79644   0.00000  Uiso   1.00
H1169  H     0.92603   0.62082   0.20296   0.00000  Uiso   1.00
H1170  H     0.88007   0.92690   0.79586   0.00000  Uiso   1.00
H1171  H     0.80242   0.57634   0.46501   0.00000  Uiso   1.00
H1172  H     0.61957   0.57273   0.20464   0.00000  Uiso   1.00
H1173  H     0.92603   0.62082   0.79704   0.00000  Uiso   1.00
H1174  H     0.57353   0.87963   0.20356   0.00000  Uiso   1.00
H1175  H     0.87085   0.67600   0.70290   0.00000  Uiso   1.00
H1176  H     0.62945   0.82370   0.29671   0.00000  Uiso   1.00
H1177  H     0.82303   0.86986   0.70424   0.00000  Uiso   1.00
H1178  H     0.67735   0.63051   0.29521   0.00000  Uiso   1.00
H1179  H     0.62945   0.82370   0.70329   0.00000  Uiso   1.00
H1180  H     0.87085   0.67600   0.29710   0.00000  Uiso   1.00
H1181  H     0.67735   0.63051   0.70480   0.00000  Uiso   1.00
H1182  H     0.69160   0.92847   0.53487   0.00000  Uiso   1.00
H1183  H     0.82303   0.86986   0.29576   0.00000  Uiso   1.00
H1184  H     0.86986   0.82301   0.29575   0.00000  Uiso   1.00
H1185  H     0.63051   0.67735   0.70480   0.00000  Uiso   1.00
H1186  H     0.82401   0.62913   0.29711   0.00000  Uiso   1.00
H1187  H     0.67632   0.87054   0.70331   0.00000  Uiso   1.00
H1188  H     0.63051   0.67735   0.29521   0.00000  Uiso   1.00
H1189  H     0.86986   0.82302   0.70425   0.00000  Uiso   1.00
H1190  H     0.67632   0.87054   0.29669   0.00000  Uiso   1.00
H1191  H     0.82401   0.62913   0.70289   0.00000  Uiso   1.00
H1192  H     0.53631   0.83901   0.41808   0.00000  Uiso   1.00
H1193  H     0.57727   0.80108   0.46501   0.00000  Uiso   1.00
H1194  H     0.51723   0.82372   0.37204   0.00000  Uiso   1.00
H1195  H     0.56370   0.83868   0.37502   0.00000  Uiso   1.00
H1196  H     0.89999   0.73950   0.57319   0.00000  Uiso   1.00
H1197  H     0.91888   0.76498   0.61360   0.00000  Uiso   1.00
H1198  H     0.89235   0.72464   0.62195   0.00000  Uiso   1.00
H1199  H     0.73737   0.90014   0.42676   0.00000  Uiso   1.00
H1200  H     0.76340   0.91857   0.38652   0.00000  Uiso   1.00
H1201  H     0.72254   0.89291   0.37791   0.00000  Uiso   1.00
H1202  H     0.83957   0.53475   0.58201   0.00000  Uiso   1.00
H1203  H     0.82391   0.51600   0.62807   0.00000  Uiso   1.00
H1204  H     0.92738   0.69301   0.53487   0.00000  Uiso   1.00
H1205  H     0.83968   0.56220   0.62503   0.00000  Uiso   1.00
H1206  H     0.91889   0.76498   0.38643   0.00000  Uiso   1.00
H1207  H     0.89998   0.73948   0.42680   0.00000  Uiso   1.00
H1208  H     0.89236   0.72465   0.37802   0.00000  Uiso   1.00
H1209  H     0.51724   0.82372   0.62796   0.00000  Uiso   1.00
H1210  H     0.53631   0.83901   0.58192   0.00000  Uiso   1.00
H1211  H     0.56371   0.83868   0.62498   0.00000  Uiso   1.00
H1212  H     0.82391   0.51601   0.37193   0.00000  Uiso   1.00
H1213  H     0.83957   0.53475   0.41799   0.00000  Uiso   1.00
H1214  H     0.83968   0.56221   0.37497   0.00000  Uiso   1.00
H1215  H     0.69160   0.92847   0.46513   0.00000  Uiso   1.00
H1216  H     0.76340   0.91857   0.61348   0.00000  Uiso   1.00
H1217  H     0.73737   0.90014   0.57324   0.00000  Uiso   1.00
H1218  H     0.72254   0.89291   0.62209   0.00000  Uiso   1.00
H1219  H     0.78625   0.58904   0.91806   0.00000  Uiso   1.00
H1220  H     0.76720   0.57372   0.87201   0.00000  Uiso   1.00
H1221  H     0.81366   0.58871   0.87500   0.00000  Uiso   1.00
H1222  H     0.64999   0.98954   0.07318   0.00000  Uiso   1.00
H1223  H     0.66888   0.51502   0.11358   0.00000  Uiso   1.00
H1224  H     0.64233   0.97468   0.12194   0.00000  Uiso   1.00
H1225  H     0.91114   0.78669   0.91809   0.00000  Uiso   1.00
H1226  H     0.80242   0.57634   0.53499   0.00000  Uiso   1.00
H1227  H     0.92635   0.76753   0.87206   0.00000  Uiso   1.00
H1228  H     0.91160   0.81406   0.87501   0.00000  Uiso   1.00
H1229  H     0.50980   0.64995   0.07317   0.00000  Uiso   1.00
H1230  H     0.98450   0.66898   0.11362   0.00000  Uiso   1.00
H1231  H     0.52467   0.64218   0.12192   0.00000  Uiso   1.00
H1232  H     0.66888   0.51501   0.88643   0.00000  Uiso   1.00
H1233  H     0.64998   0.98952   0.92682   0.00000  Uiso   1.00
H1234  H     0.64234   0.97468   0.87804   0.00000  Uiso   1.00
H1235  H     0.76720   0.57371   0.12801   0.00000  Uiso   1.00
H1236  H     0.78622   0.58903   0.08195   0.00000  Uiso   1.00
H1237  H     0.67737   0.94302   0.96513   0.00000  Uiso   1.00
H1238  H     0.81365   0.58872   0.12499   0.00000  Uiso   1.00
H1239  H     0.98449   0.66898   0.88638   0.00000  Uiso   1.00
H1240  H     0.50979   0.64995   0.92683   0.00000  Uiso   1.00
H1241  H     0.52466   0.64218   0.87809   0.00000  Uiso   1.00
H1242  H     0.92634   0.76753   0.12794   0.00000  Uiso   1.00
H1243  H     0.91114   0.78669   0.08191   0.00000  Uiso   1.00
H1244  H     0.91160   0.81406   0.12499   0.00000  Uiso   1.00
O1245  O     0.75000   0.50000   0.25000   0.00000  Uiso   1.00
O1246  O     0.75000   0.96964   0.66245   0.00000  Uiso   1.00
O1247  O     0.96964   0.75000   0.33755   0.00000  Uiso   1.00
O1248  O     0.53037   0.75000   0.66245   0.00000  Uiso   1.00
O1249  O     0.50000   0.71963   0.83755   0.00000  Uiso   1.00
O1250  O     0.50000   0.78036   0.16245   0.00000  Uiso   1.00
O1251  O     0.78037   0.50000   0.83755   0.00000  Uiso   1.00
O1252  O     0.71964   0.50000   0.16245   0.00000  Uiso   1.00
O1253  O     0.50000   0.78036   0.83755   0.00000  Uiso   1.00
O1254  O     0.50000   0.71963   0.16245   0.00000  Uiso   1.00
O1255  O     0.71964   0.50000   0.83755   0.00000  Uiso   1.00
O1256  O     0.75000   0.50000   0.75000   0.00000  Uiso   1.00
O1257  O     0.78037   0.50000   0.16245   0.00000  Uiso   1.00
O1258  O     0.70725   0.57307   0.27302   0.00000  Uiso   1.00
O1259  O     0.79276   0.92693   0.72698   0.00000  Uiso   1.00
O1260  O     0.92693   0.70724   0.27302   0.00000  Uiso   1.00
O1261  O     0.57308   0.79276   0.72698   0.00000  Uiso   1.00
O1262  O     0.79276   0.92693   0.27302   0.00000  Uiso   1.00
O1263  O     0.70725   0.57307   0.72698   0.00000  Uiso   1.00
O1264  O     0.57308   0.79276   0.27302   0.00000  Uiso   1.00
O1265  O     0.92693   0.70724   0.72698   0.00000  Uiso   1.00
O1266  O     0.70725   0.92693   0.72698   0.00000  Uiso   1.00
O1267  O     0.50000   0.75000   0.25000   0.00000  Uiso   1.00
O1268  O     0.79276   0.57307   0.27302   0.00000  Uiso   1.00
O1269  O     0.92693   0.79275   0.72698   0.00000  Uiso   1.00
O1270  O     0.57308   0.70725   0.27302   0.00000  Uiso   1.00
O1271  O     0.79276   0.57307   0.72698   0.00000  Uiso   1.00
O1272  O     0.70725   0.92693   0.27302   0.00000  Uiso   1.00
O1273  O     0.57308   0.70725   0.72698   0.00000  Uiso   1.00
O1274  O     0.92693   0.79275   0.27302   0.00000  Uiso   1.00
O1275  O     0.95725   0.82307   0.77302   0.00000  Uiso   1.00
O1276  O     0.54276   0.67693   0.22698   0.00000  Uiso   1.00
O1277  O     0.67693   0.95725   0.77302   0.00000  Uiso   1.00
O1278  O     0.50000   0.75000   0.75000   0.00000  Uiso   1.00
O1279  O     0.82308   0.54275   0.22698   0.00000  Uiso   1.00
O1280  O     0.54276   0.67693   0.77302   0.00000  Uiso   1.00
O1281  O     0.95725   0.82307   0.22698   0.00000  Uiso   1.00
O1282  O     0.82308   0.54275   0.77302   0.00000  Uiso   1.00
O1283  O     0.67693   0.95725   0.22698   0.00000  Uiso   1.00
O1284  O     0.95725   0.67692   0.22698   0.00000  Uiso   1.00
O1285  O     0.54276   0.82308   0.77302   0.00000  Uiso   1.00
O1286  O     0.67693   0.54275   0.22698   0.00000  Uiso   1.00
O1287  O     0.82308   0.95725   0.77302   0.00000  Uiso   1.00
O1288  O     0.54276   0.82308   0.22698   0.00000  Uiso   1.00
O1289  O     0.75000   0.96964   0.33755   0.00000  Uiso   1.00
O1290  O     0.95725   0.67692   0.77302   0.00000  Uiso   1.00
O1291  O     0.82308   0.95725   0.22698   0.00000  Uiso   1.00
O1292  O     0.67693   0.54275   0.77302   0.00000  Uiso   1.00
O1293  O     0.55426   0.78805   0.39847   0.00000  Uiso   1.00
O1294  O     0.94406   0.71465   0.60143   0.00000  Uiso   1.00
O1295  O     0.71356   0.94477   0.39852   0.00000  Uiso   1.00
O1296  O     0.78891   0.55361   0.60156   0.00000  Uiso   1.00
O1297  O     0.94406   0.71465   0.39857   0.00000  Uiso   1.00
O1298  O     0.55426   0.78804   0.60153   0.00000  Uiso   1.00
O1299  O     0.78891   0.55361   0.39844   0.00000  Uiso   1.00
O1300  O     0.75000   0.53036   0.66245   0.00000  Uiso   1.00
O1301  O     0.71355   0.94477   0.60148   0.00000  Uiso   1.00
O1302  O     0.80425   0.53808   0.89847   0.00000  Uiso   1.00
O1303  O     0.69404   0.96468   0.10143   0.00000  Uiso   1.00
O1304  O     0.96219   0.80442   0.89848   0.00000  Uiso   1.00
O1305  O     0.53498   0.69384   0.10142   0.00000  Uiso   1.00
O1306  O     0.69405   0.96467   0.89857   0.00000  Uiso   1.00
O1307  O     0.80424   0.53808   0.10153   0.00000  Uiso   1.00
O1308  O     0.53498   0.69384   0.89858   0.00000  Uiso   1.00
O1309  O     0.96219   0.80442   0.10152   0.00000  Uiso   1.00
O1310  O     0.53037   0.75000   0.33755   0.00000  Uiso   1.00
O1311  O     0.96964   0.75000   0.66245   0.00000  Uiso   1.00
O1312  O     0.75000   0.53036   0.33755   0.00000  Uiso   1.00
Zn1313 Zn    0.70660   0.50000   0.21735   0.00000  Uiso   1.00
Zn1314 Zn    0.54341   0.75000   0.28265   0.00000  Uiso   1.00
Zn1315 Zn    0.75000   0.95660   0.71735   0.00000  Uiso   1.00
Zn1316 Zn    0.75000   0.54340   0.28265   0.00000  Uiso   1.00
Zn1317 Zn    0.54341   0.75000   0.71735   0.00000  Uiso   1.00
Zn1318 Zn    0.95660   0.75000   0.28265   0.00000  Uiso   1.00
Zn1319 Zn    0.75000   0.54340   0.71735   0.00000  Uiso   1.00
Zn1320 Zn    0.75000   0.95660   0.28265   0.00000  Uiso   1.00
Zn1321 Zn    0.79341   0.50000   0.78265   0.00000  Uiso   1.00
Zn1322 Zn    0.50000   0.70659   0.21735   0.00000  Uiso   1.00
Zn1323 Zn    0.50000   0.79341   0.78265   0.00000  Uiso   1.00
Zn1324 Zn    0.79341   0.50000   0.21735   0.00000  Uiso   1.00
Zn1325 Zn    0.70660   0.50000   0.78265   0.00000  Uiso   1.00
Zn1326 Zn    0.50000   0.79341   0.21735   0.00000  Uiso   1.00
Zn1327 Zn    0.50000   0.70659   0.78265   0.00000  Uiso   1.00
Zn1328 Zn    0.95660   0.75000   0.71735   0.00000  Uiso   1.00
loop_
_geom_bond_atom_site_label_1
_geom_bond_atom_site_label_2
_geom_bond_distance
_geom_bond_site_symmetry_2
_ccdc_geom_bond_type
C1     O297    1.386   .     S
C1     C4      1.404   .     A
C1     C394    1.411   1_455 S
C2     O307    1.386   .     S
C2     C14     1.403   .     A
C2     C732    1.411   .     S
C3     C131    1.404   .     A
C3     C74     1.403   .     A
C3     C702    1.413   .     S
C4     C75     1.404   .     A
C4     C34     1.412   .     A
C5     C77     1.403   .     A
C5     C65     1.403   .     A
C5     C368    1.412   .     S
C6     C78     1.403   .     A
C6     C76     1.404   .     A
C6     C701    1.413   .     S
C7     C79     1.404   .     A
C7     C87     1.404   .     A
C7     C38     1.413   .     A
C8     C35     1.403   .     A
C8     C39     1.412   .     A
C8     C80     1.403   .     A
C9     C46     1.404   .     A
C9     C81     1.404   .     A
C9     C704    1.412   1_545 S
C10    C41     1.412   .     A
C10    C82     1.403   .     A
C10    C57     1.403   .     A
C11    C61     1.404   .     A
C11    C83     1.404   .     A
C11    C374    1.412   .     S
C12    C84     1.404   .     A
C12    C142    1.404   .     A
C12    C703    1.412   1_545 S
C13    O308    1.386   .     S
C13    C69     1.411   .     A
C13    C15     1.404   .     A
C14    C85     1.403   .     A
C14    C40     1.412   .     A
C15    C86     1.404   .     A
C15    C373    1.412   .     S
C16    C88     1.403   .     A
C16    C24     1.403   .     A
C16    C42     1.412   .     A
C17    C104    1.455   .     S
C17    C132    1.402   .     A
C17    C134    1.402   .     A
C18    C133    1.402   .     A
C18    C130    1.402   .     A
C18    C105    1.455   .     S
C19    C129    1.402   .     A
C19    C136    1.402   .     A
C19    C97     1.455   .     S
C20    C99     1.455   .     S
C20    C128    1.402   .     A
C20    C135    1.402   .     A
C21    C138    1.402   .     A
C21    C127    1.402   .     A
C21    C100    1.455   .     S
C22    C137    1.402   .     A
C22    C101    1.455   .     S
C22    C126    1.402   .     A
C23    C140    1.402   .     A
C23    C102    1.455   .     S
C23    C125    1.402   .     A
C24    O309    1.386   .     S
C24    C402    1.412   1_455 S
C25    C139    1.402   .     A
C25    C103    1.455   .     S
C25    C124    1.402   .     A
C26    C123    1.402   .     A
C26    C143    1.402   .     A
C26    C113    1.455   .     S
C27    C141    1.402   .     A
C27    C122    1.402   .     A
C27    C114    1.455   .     S
C28    C145    1.402   .     A
C28    C106    1.454   .     S
C28    C121    1.402   .     A
C29    C144    1.402   .     A
C29    C119    1.402   .     A
C29    C107    1.454   .     S
C30    C118    1.402   .     A
C30    C147    1.402   .     A
C30    C108    1.455   .     S
C31    C110    1.455   .     S
C31    C117    1.402   .     A
C31    C146    1.402   .     A
C32    C116    1.402   .     A
C32    C111    1.454   .     S
C32    C149    1.402   .     A
C33    C115    1.402   .     A
C33    C148    1.402   .     A
C33    C112    1.454   .     S
C34    C36     1.410   .     A
C34    C482    1.412   1_455 S
C35    O310    1.386   .     S
C35    C731    1.411   .     S
C36    C151    1.412   .     A
C36    C337    1.412   1_455 S
C37    C38     1.410   .     A
C37    C152    1.413   .     A
C37    C670    1.413   1_545 S
C38    C667    1.413   1_545 S
C39    C676    1.412   .     S
C39    C40     1.410   1_556 S
C40    C673    1.412   .     S
C40    C39     1.410   1_554 S
C41    C347    1.412   1_455 S
C41    C42     1.410   1_556 S
C42    C343    1.412   1_455 S
C42    C41     1.410   1_554 S
C43    O297    1.411   .     S
C43    H198    1.113   .     S
C43    H196    1.113   .     S
C43    H199    1.109   .     S
C44    H202    1.109   .     S
C44    O298    1.414   .     S
C44    H200    1.111   .     S
C44    H201    1.114   .     S
C45    H203    1.111   .     S
C45    H205    1.109   .     S
C45    H204    1.114   .     S
C45    O299    1.414   .     S
C46    C68     1.411   .     A
C46    O311    1.386   .     S
C47    O300    1.411   .     S
C47    H209    1.109   .     S
C47    H206    1.113   .     S
C47    H207    1.113   .     S
C48    H212    1.109   .     S
C48    O301    1.414   .     S
C48    H211    1.111   .     S
C48    H210    1.114   .     S
C49    O302    1.411   .     S
C49    H213    1.113   .     S
C49    H215    1.109   .     S
C49    H214    1.113   .     S
C50    H216    1.113   .     S
C50    H217    1.113   .     S
C50    H218    1.109   .     S
C50    O303    1.411   .     S
C51    H221    1.111   .     S
C51    O305    1.414   .     S
C51    H222    1.109   .     S
C51    H220    1.114   .     S
C52    H224    1.113   .     S
C52    H223    1.113   .     S
C52    O306    1.411   .     S
C52    H225    1.109   .     S
C53    O307    1.414   .     S
C53    H226    1.111   .     S
C53    H228    1.109   .     S
C53    H891    1.114   .     S
C54    H229    1.113   .     S
C54    H232    1.109   .     S
C54    O308    1.411   .     S
C54    H231    1.113   .     S
C55    H235    1.109   .     S
C55    O309    1.414   .     S
C55    H233    1.111   .     S
C55    H566    1.114   1_455 S
C56    H238    1.109   .     S
C56    O310    1.414   .     S
C56    H237    1.111   .     S
C56    H900    1.114   .     S
C57    O312    1.386   .     S
C57    C401    1.412   1_455 S
C58    H242    1.109   .     S
C58    H239    1.113   .     S
C58    O311    1.411   .     S
C58    H240    1.113   .     S
C59    H244    1.111   .     S
C59    O312    1.414   .     S
C59    H245    1.109   .     S
C59    H575    1.114   1_455 S
C60    H247    1.113   .     S
C60    O313    1.411   .     S
C60    H246    1.113   .     S
C60    H248    1.109   .     S
C61    C70     1.411   .     A
C61    O313    1.386   .     S
C62    C91     1.465   .     S
C62    C98     1.411   .     A
C62    C333    1.411   .     S
C63    C65     1.411   .     A
C63    C92     1.465   .     S
C63    C441    1.411   .     S
C64    C89     1.465   .     S
C64    C76     1.411   .     A
C64    C784    1.411   .     S
C65    O298    1.386   .     S
C66    C131    1.411   .     A
C66    C90     1.465   .     S
C66    C751    1.411   .     S
C67    C95     1.465   .     S
C67    C142    1.411   .     A
C67    C699    1.411   1_545 S
C68    C96     1.465   .     S
C68    C666    1.411   1_545 S
C69    C93     1.465   .     S
C69    C389    1.412   .     S
C70    C94     1.465   .     S
C70    C356    1.412   .     S
C71    C150    1.403   .     A
C71    C77     1.387   .     A
C71    H153    1.083   .     S
C72    C151    1.404   .     A
C72    C75     1.390   .     A
C72    H164    1.083   .     S
C73    H175    1.083   .     S
C73    C79     1.390   .     A
C73    C152    1.404   .     A
C74    C78     1.387   .     A
C74    H186    1.083   .     S
C75    H197    1.083   .     S
C76    O299    1.386   .     S
C77    H208    1.083   .     S
C78    H219    1.083   .     S
C79    H230    1.083   .     S
C80    H241    1.083   .     S
C80    C85     1.387   1_556 S
C81    H154    1.083   .     S
C81    C84     1.390   1_554 S
C82    H155    1.083   .     S
C82    C88     1.387   1_556 S
C83    H156    1.083   .     S
C83    C86     1.390   1_554 S
C84    H157    1.083   .     S
C84    C81     1.390   1_556 S
C85    H158    1.083   .     S
C85    C80     1.387   1_554 S
C86    H159    1.083   .     S
C86    C83     1.390   1_556 S
C87    O300    1.386   .     S
C87    C730    1.411   1_545 S
C88    H160    1.083   .     S
C88    C82     1.387   1_554 S
C89    O293    1.278   .     A
C89    O980    1.283   .     S
C90    O250    1.278   .     A
C90    O968    1.283   .     S
C91    O251    1.278   .     A
C91    O646    1.283   .     S
C92    O315    1.278   .     A
C92    O584    1.283   .     S
C93    O589    1.283   .     A
C93    O585    1.278   .     A
C94    O586    1.283   .     A
C94    O590    1.278   .     A
C95    O255    1.283   .     A
C95    O259    1.278   .     A
C96    O256    1.278   .     S
C96    O261    1.283   .     S
C97    O262    1.282   .     A
C97    O290    1.282   .     A
C98    C150    1.404   .     A
C98    O301    1.386   .     S
C99    O291    1.282   .     A
C99    O263    1.282   .     A
C100   O264    1.282   .     A
C100   O288    1.282   .     A
C101   O289    1.282   .     A
C101   O265    1.282   .     A
C102   O295    1.282   .     A
C102   O266    1.282   .     A
C103   O296    1.282   .     A
C103   O267    1.282   .     A
C104   O292    1.282   .     A
C104   O268    1.282   .     A
C105   O294    1.282   .     A
C105   O269    1.282   .     A
C106   O281    1.282   .     A
C106   O270    1.282   .     A
C107   O272    1.282   .     A
C107   O283    1.282   .     A
C108   O273    1.282   .     A
C108   O279    1.282   .     A
C109   C151    1.404   .     A
C109   O302    1.386   .     S
C109   C395    1.411   1_455 S
C110   O274    1.282   .     A
C110   O280    1.282   .     A
C111   O286    1.282   .     A
C111   O275    1.282   .     A
C112   O287    1.282   .     A
C112   O276    1.282   .     A
C113   O284    1.282   .     A
C113   O277    1.282   .     A
C114   O285    1.282   .     A
C114   O278    1.282   .     A
C115   C132    1.386   .     A
C115   H161    1.083   .     S
C116   C130    1.386   .     A
C116   H162    1.083   .     S
C117   H163    1.083   .     S
C117   C129    1.386   .     A
C118   H165    1.083   .     S
C118   C128    1.386   .     A
C119   C127    1.386   .     A
C119   H166    1.083   .     S
C120   O303    1.386   .     S
C120   C152    1.404   .     A
C120   C728    1.411   1_545 S
C121   H167    1.083   .     S
C121   C126    1.386   .     A
C122   C125    1.386   .     A
C122   H168    1.083   .     S
C123   C124    1.386   .     A
C123   H169    1.083   .     S
C124   H170    1.083   .     S
C125   H171    1.083   .     S
C126   H172    1.083   .     S
C127   H173    1.083   .     S
C128   H174    1.083   .     S
C129   H176    1.083   .     S
C130   H177    1.083   .     S
C131   O305    1.386   .     S
C132   H178    1.083   .     S
C133   H179    1.083   .     S
C133   C149    1.386   .     A
C134   H180    1.083   .     S
C134   C148    1.386   .     A
C135   C147    1.386   .     A
C135   H181    1.083   .     S
C136   C146    1.386   .     A
C136   H182    1.083   .     S
C137   C145    1.386   .     A
C137   H183    1.083   .     S
C138   H184    1.083   .     S
C138   C144    1.386   .     A
C139   C143    1.386   .     A
C139   H185    1.083   .     S
C140   H187    1.083   .     S
C140   C141    1.386   .     A
C141   H188    1.083   .     S
C142   O306    1.386   .     S
C143   H189    1.083   .     S
C144   H190    1.083   .     S
C145   H191    1.083   .     S
C146   H192    1.083   .     S
C147   H193    1.083   .     S
C148   H194    1.083   .     S
C149   H195    1.083   .     S
C150   C366    1.412   .     S
H227   C717    1.114   1_545 S
H234   C387    1.114   .     S
H236   C720    1.114   1_545 S
H243   C391    1.114   .     S
O249   Zn320   1.949   .     S
O249   Zn317   1.949   .     S
O249   Zn988   1.949   1_545 S
O249   Zn328   1.949   .     S
O250   Zn319   1.954   .     S
O251   Zn322   1.954   .     S
O252   Zn321   1.954   .     S
O252   C424    1.283   1_455 S
O253   C425    1.278   1_455 A
O253   Zn331   1.954   .     S
O254   C426    1.283   1_455 A
O254   Zn330   1.954   .     S
O255   Zn325   1.954   .     S
O256   Zn317   1.954   .     S
O257   C425    1.283   1_455 A
O257   Zn327   1.954   .     S
O258   Zn326   1.954   .     S
O258   C426    1.278   1_455 A
O259   Zn329   1.954   .     S
O260   Zn323   1.949   .     S
O260   Zn325   1.949   .     S
O260   Zn329   1.949   .     S
O260   Zn983   1.949   1_545 S
O261   Zn328   1.954   .     S
O262   Zn320   1.936   .     S
O263   Zn319   1.936   .     S
O264   Zn322   1.935   .     S
O265   Zn321   1.935   .     S
O266   Zn324   1.936   .     S
O267   Zn323   1.936   .     S
O268   Zn318   1.935   .     S
O269   Zn332   1.935   .     S
O270   Zn319   1.935   .     S
O271   Zn654   1.949   1_455 S
O271   Zn326   1.949   .     S
O271   Zn318   1.949   .     S
O271   Zn330   1.949   .     S
O272   Zn320   1.935   .     S
O273   Zn332   1.936   .     S
O274   Zn318   1.936   .     S
O275   Zn323   1.935   .     S
O276   Zn324   1.935   .     S
O277   Zn321   1.936   .     S
O278   Zn322   1.936   .     S
O279   Zn659   1.936   .     S
O280   Zn326   1.936   .     S
O281   Zn993   1.935   .     S
O282   Zn664   1.949   1_455 S
O282   Zn331   1.949   .     S
O282   Zn321   1.949   .     S
O282   Zn327   1.949   .     S
O283   Zn328   1.935   .     S
O284   Zn331   1.936   .     S
O285   Zn662   1.936   .     S
O286   Zn325   1.935   .     S
O287   Zn981   1.935   .     S
O288   Zn658   1.935   .     S
O289   Zn327   1.935   .     S
O290   Zn317   1.936   .     S
O291   Zn989   1.936   .     S
O292   Zn330   1.935   .     S
O293   Zn324   1.954   .     S
O294   Zn663   1.935   .     S
O295   Zn992   1.936   .     S
O296   Zn329   1.936   .     S
O304   Zn323   1.954   .     S
O304   C754    1.283   1_545 S
O314   Zn318   1.954   .     S
O314   C423    1.283   1_455 S
O315   Zn332   1.954   .     S
O316   Zn320   1.954   .     S
O316   C753    1.283   1_545 S
Zn317  O951    1.935   1_545 S
Zn319  O924    1.949   .     S
Zn322  O603    1.949   .     S
Zn324  O913    1.949   .     S
Zn325  O955    1.936   1_545 S
Zn326  O620    1.935   1_455 S
Zn327  O611    1.936   1_455 S
Zn328  O959    1.936   1_545 S
Zn329  O945    1.935   1_545 S
Zn330  O617    1.936   1_455 S
Zn331  O626    1.935   1_455 S
Zn332  O614    1.949   .     S
C333   O629    1.386   .     S
C333   C336    1.404   .     A
C334   O639    1.386   .     S
C334   C346    1.403   .     A
C334   C1064   1.411   .     S
C335   C463    1.404   .     A
C335   C406    1.403   .     A
C335   C1034   1.413   .     S
C336   C407    1.404   .     A
C336   C366    1.412   .     A
C337   C409    1.403   .     A
C337   C397    1.403   .     A
C337   C36     1.412   1_655 S
C338   C410    1.403   .     A
C338   C408    1.404   .     A
C338   C1033   1.413   .     S
C339   C411    1.404   .     A
C339   C419    1.404   .     A
C339   C370    1.413   .     A
C340   C367    1.403   .     A
C340   C371    1.412   .     A
C340   C412    1.403   .     A
C341   C378    1.404   .     A
C341   C413    1.404   .     A
C341   C1036   1.412   1_545 S
C342   C373    1.412   .     A
C342   C414    1.403   .     A
C342   C389    1.403   .     A
C343   C393    1.404   .     A
C343   C415    1.404   .     A
C343   C42     1.412   1_655 S
C344   C416    1.404   .     A
C344   C474    1.404   .     A
C344   C1035   1.412   1_545 S
C345   O640    1.386   .     S
C345   C401    1.411   .     A
C345   C347    1.404   .     A
C346   C417    1.403   .     A
C346   C372    1.412   .     A
C347   C418    1.404   .     A
C347   C41     1.412   1_655 S
C348   C420    1.403   .     A
C348   C356    1.403   .     A
C348   C374    1.412   .     A
C349   C436    1.455   .     S
C349   C464    1.402   .     A
C349   C466    1.402   .     A
C350   C465    1.402   .     A
C350   C462    1.402   .     A
C350   C437    1.455   .     S
C351   C461    1.402   .     A
C351   C468    1.402   .     A
C351   C429    1.455   .     S
C352   C431    1.455   .     S
C352   C460    1.402   .     A
C352   C467    1.402   .     A
C353   C470    1.402   .     A
C353   C459    1.402   .     A
C353   C432    1.455   .     S
C354   C469    1.402   .     A
C354   C433    1.455   .     S
C354   C458    1.402   .     A
C355   C472    1.402   .     A
C355   C434    1.455   .     S
C355   C457    1.402   .     A
C356   O641    1.386   .     S
C357   C471    1.402   .     A
C357   C435    1.455   .     S
C357   C456    1.402   .     A
C358   C455    1.402   .     A
C358   C475    1.402   .     A
C358   C445    1.455   .     S
C359   C473    1.402   .     A
C359   C454    1.402   .     A
C359   C446    1.455   .     S
C360   C477    1.402   .     A
C360   C438    1.454   .     S
C360   C453    1.402   .     A
C361   C476    1.402   .     A
C361   C451    1.402   .     A
C361   C439    1.454   .     S
C362   C450    1.402   .     A
C362   C479    1.402   .     A
C362   C440    1.455   .     S
C363   C442    1.455   .     S
C363   C449    1.402   .     A
C363   C478    1.402   .     A
C364   C448    1.402   .     A
C364   C443    1.454   .     S
C364   C481    1.402   .     A
C365   C447    1.402   .     A
C365   C480    1.402   .     A
C365   C444    1.454   .     S
C366   C368    1.410   .     A
C367   O642    1.386   .     S
C367   C1063   1.411   .     S
C368   C483    1.412   .     A
C369   C370    1.410   .     A
C369   C484    1.413   .     A
C369   C1002   1.413   1_545 S
C370   C999    1.413   1_545 S
C371   C1008   1.412   .     S
C371   C372    1.410   1_556 S
C372   C1005   1.412   .     S
C372   C371    1.410   1_554 S
C373   C374    1.410   1_556 S
C374   C373    1.410   1_554 S
C375   O629    1.411   .     S
C375   H530    1.113   .     S
C375   H528    1.113   .     S
C375   H531    1.109   .     S
C376   H534    1.109   .     S
C376   O630    1.414   .     S
C376   H532    1.111   .     S
C376   H533    1.114   .     S
C377   H535    1.111   .     S
C377   H537    1.109   .     S
C377   H536    1.114   .     S
C377   O631    1.414   .     S
C378   C400    1.411   .     A
C378   O643    1.386   .     S
C379   O632    1.411   .     S
C379   H541    1.109   .     S
C379   H538    1.113   .     S
C379   H539    1.113   .     S
C380   H544    1.109   .     S
C380   O633    1.414   .     S
C380   H543    1.111   .     S
C380   H542    1.114   .     S
C381   O634    1.411   .     S
C381   H545    1.113   .     S
C381   H547    1.109   .     S
C381   H546    1.113   .     S
C382   H548    1.113   .     S
C382   H549    1.113   .     S
C382   H550    1.109   .     S
C382   O635    1.411   .     S
C383   H553    1.111   .     S
C383   O637    1.414   .     S
C383   H554    1.109   .     S
C383   H552    1.114   .     S
C384   H556    1.113   .     S
C384   H555    1.113   .     S
C384   O638    1.411   .     S
C384   H557    1.109   .     S
C385   O639    1.414   .     S
C385   H558    1.111   .     S
C385   H560    1.109   .     S
C385   H1223   1.114   .     S
C386   H561    1.113   .     S
C386   H564    1.109   .     S
C386   O640    1.411   .     S
C386   H563    1.113   .     S
C387   H567    1.109   .     S
C387   O641    1.414   .     S
C387   H565    1.111   .     S
C388   H570    1.109   .     S
C388   O642    1.414   .     S
C388   H569    1.111   .     S
C388   H1232   1.114   .     S
C389   O644    1.386   .     S
C390   H574    1.109   .     S
C390   H571    1.113   .     S
C390   O643    1.411   .     S
C390   H572    1.113   .     S
C391   H576    1.111   .     S
C391   O644    1.414   .     S
C391   H577    1.109   .     S
C392   H579    1.113   .     S
C392   O645    1.411   .     S
C392   H578    1.113   .     S
C392   H580    1.109   .     S
C393   C402    1.411   .     A
C393   O645    1.386   .     S
C394   C423    1.465   .     S
C394   C430    1.411   .     A
C394   C1      1.411   1_655 S
C395   C397    1.411   .     A
C395   C424    1.465   .     S
C395   C109    1.411   1_655 S
C396   C421    1.465   .     S
C396   C408    1.411   .     A
C396   C1116   1.411   .     S
C397   O630    1.386   .     S
C398   C463    1.411   .     A
C398   C422    1.465   .     S
C398   C1083   1.411   .     S
C399   C427    1.465   .     S
C399   C474    1.411   .     A
C399   C1031   1.411   1_545 S
C400   C428    1.465   .     S
C400   C998    1.411   1_545 S
C401   C425    1.465   .     S
C401   C57     1.412   1_655 S
C402   C426    1.465   .     S
C402   C24     1.412   1_655 S
C403   C482    1.403   .     A
C403   C409    1.387   .     A
C403   H485    1.083   .     S
C404   C483    1.404   .     A
C404   C407    1.390   .     A
C404   H496    1.083   .     S
C405   H507    1.083   .     S
C405   C411    1.390   .     A
C405   C484    1.404   .     A
C406   C410    1.387   .     A
C406   H518    1.083   .     S
C407   H529    1.083   .     S
C408   O631    1.386   .     S
C409   H540    1.083   .     S
C410   H551    1.083   .     S
C411   H562    1.083   .     S
C412   H573    1.083   .     S
C412   C417    1.387   1_556 S
C413   H486    1.083   .     S
C413   C416    1.390   1_554 S
C414   H487    1.083   .     S
C414   C420    1.387   1_556 S
C415   H488    1.083   .     S
C415   C418    1.390   1_554 S
C416   H489    1.083   .     S
C416   C413    1.390   1_556 S
C417   H490    1.083   .     S
C417   C412    1.387   1_554 S
C418   H491    1.083   .     S
C418   C415    1.390   1_556 S
C419   O632    1.386   .     S
C419   C1062   1.411   1_545 S
C420   H492    1.083   .     S
C420   C414    1.387   1_554 S
C421   O625    1.278   .     A
C421   O1312   1.283   .     S
C422   O582    1.278   .     A
C422   O1300   1.283   .     S
C423   O583    1.278   .     A
C423   O314    1.283   1_655 S
C424   O647    1.278   .     A
C424   O252    1.283   1_655 S
C425   O257    1.283   1_655 A
C425   O253    1.278   1_655 A
C426   O254    1.283   1_655 A
C426   O258    1.278   1_655 A
C427   O587    1.283   .     A
C427   O591    1.278   .     A
C428   O588    1.278   .     S
C428   O593    1.283   .     S
C429   O594    1.282   .     A
C429   O622    1.282   .     A
C430   C482    1.404   .     A
C430   O633    1.386   .     S
C431   O623    1.282   .     A
C431   O595    1.282   .     A
C432   O596    1.282   .     A
C432   O620    1.282   .     A
C433   O621    1.282   .     A
C433   O597    1.282   .     A
C434   O627    1.282   .     A
C434   O598    1.282   .     A
C435   O628    1.282   .     A
C435   O599    1.282   .     A
C436   O624    1.282   .     A
C436   O600    1.282   .     A
C437   O626    1.282   .     A
C437   O601    1.282   .     A
C438   O613    1.282   .     A
C438   O602    1.282   .     A
C439   O604    1.282   .     A
C439   O615    1.282   .     A
C440   O605    1.282   .     A
C440   O611    1.282   .     A
C441   C483    1.404   .     A
C441   O634    1.386   .     S
C442   O606    1.282   .     A
C442   O612    1.282   .     A
C443   O618    1.282   .     A
C443   O607    1.282   .     A
C444   O619    1.282   .     A
C444   O608    1.282   .     A
C445   O616    1.282   .     A
C445   O609    1.282   .     A
C446   O617    1.282   .     A
C446   O610    1.282   .     A
C447   C464    1.386   .     A
C447   H493    1.083   .     S
C448   C462    1.386   .     A
C448   H494    1.083   .     S
C449   H495    1.083   .     S
C449   C461    1.386   .     A
C450   H497    1.083   .     S
C450   C460    1.386   .     A
C451   C459    1.386   .     A
C451   H498    1.083   .     S
C452   O635    1.386   .     S
C452   C484    1.404   .     A
C452   C1060   1.411   1_545 S
C453   H499    1.083   .     S
C453   C458    1.386   .     A
C454   C457    1.386   .     A
C454   H500    1.083   .     S
C455   C456    1.386   .     A
C455   H501    1.083   .     S
C456   H502    1.083   .     S
C457   H503    1.083   .     S
C458   H504    1.083   .     S
C459   H505    1.083   .     S
C460   H506    1.083   .     S
C461   H508    1.083   .     S
C462   H509    1.083   .     S
C463   O637    1.386   .     S
C464   H510    1.083   .     S
C465   H511    1.083   .     S
C465   C481    1.386   .     A
C466   H512    1.083   .     S
C466   C480    1.386   .     A
C467   C479    1.386   .     A
C467   H513    1.083   .     S
C468   C478    1.386   .     A
C468   H514    1.083   .     S
C469   C477    1.386   .     A
C469   H515    1.083   .     S
C470   H516    1.083   .     S
C470   C476    1.386   .     A
C471   C475    1.386   .     A
C471   H517    1.083   .     S
C472   H519    1.083   .     S
C472   C473    1.386   .     A
C473   H520    1.083   .     S
C474   O638    1.386   .     S
C475   H521    1.083   .     S
C476   H522    1.083   .     S
C477   H523    1.083   .     S
C478   H524    1.083   .     S
C479   H525    1.083   .     S
C480   H526    1.083   .     S
C481   H527    1.083   .     S
C482   C34     1.412   1_655 S
H559   C1049   1.114   1_545 S
H566   C55     1.114   1_655 S
H568   C1052   1.114   1_545 S
H575   C59     1.114   1_655 S
O581   Zn652   1.949   .     S
O581   Zn649   1.949   .     S
O581   Zn1320  1.949   1_545 S
O581   Zn660   1.949   .     S
O582   Zn651   1.954   .     S
O583   Zn654   1.954   .     S
O584   Zn653   1.954   .     S
O585   Zn663   1.954   .     S
O586   Zn662   1.954   .     S
O587   Zn657   1.954   .     S
O588   Zn649   1.954   .     S
O589   Zn659   1.954   .     S
O590   Zn658   1.954   .     S
O591   Zn661   1.954   .     S
O592   Zn655   1.949   .     S
O592   Zn657   1.949   .     S
O592   Zn661   1.949   .     S
O592   Zn1315  1.949   1_545 S
O593   Zn660   1.954   .     S
O594   Zn652   1.936   .     S
O595   Zn651   1.936   .     S
O596   Zn654   1.935   .     S
O597   Zn653   1.935   .     S
O598   Zn656   1.936   .     S
O599   Zn655   1.936   .     S
O600   Zn650   1.935   .     S
O601   Zn664   1.935   .     S
O602   Zn651   1.935   .     S
O603   Zn658   1.949   .     S
O603   Zn650   1.949   .     S
O603   Zn662   1.949   .     S
O604   Zn652   1.935   .     S
O605   Zn664   1.936   .     S
O606   Zn650   1.936   .     S
O607   Zn655   1.935   .     S
O608   Zn656   1.935   .     S
O609   Zn653   1.936   .     S
O610   Zn654   1.936   .     S
O611   Zn327   1.936   1_655 S
O612   Zn658   1.936   .     S
O613   Zn1325  1.935   .     S
O614   Zn663   1.949   .     S
O614   Zn653   1.949   .     S
O614   Zn659   1.949   .     S
O615   Zn660   1.935   .     S
O616   Zn663   1.936   .     S
O617   Zn330   1.936   1_655 S
O618   Zn657   1.935   .     S
O619   Zn1313  1.935   .     S
O620   Zn326   1.935   1_655 S
O621   Zn659   1.935   .     S
O622   Zn649   1.936   .     S
O623   Zn1321  1.936   .     S
O624   Zn662   1.935   .     S
O625   Zn656   1.954   .     S
O626   Zn331   1.935   1_655 S
O627   Zn1324  1.936   .     S
O628   Zn661   1.936   .     S
O636   Zn655   1.954   .     S
O636   C1086   1.283   1_545 S
O646   Zn650   1.954   .     S
O647   Zn664   1.954   .     S
O648   Zn652   1.954   .     S
O648   C1085   1.283   1_545 S
Zn649  O1283   1.935   1_545 S
Zn651  O1256   1.949   .     S
Zn654  O271    1.949   1_655 S
Zn656  O1245   1.949   .     S
Zn657  O1287   1.936   1_545 S
Zn660  O1291   1.936   1_545 S
Zn661  O1277   1.935   1_545 S
Zn664  O282    1.949   1_655 S
C665   O961    1.386   .     S
C665   C668    1.404   .     A
C665   C1058   1.411   1_455 S
C666   O971    1.386   .     S
C666   C678    1.403   .     A
C666   C68     1.411   1_565 S
C667   C795    1.404   .     A
C667   C738    1.403   .     A
C667   C38     1.413   1_565 S
C668   C739    1.404   .     A
C668   C698    1.412   .     A
C669   C741    1.403   .     A
C669   C729    1.403   .     A
C669   C1032   1.412   .     S
C670   C742    1.403   .     A
C670   C740    1.404   .     A
C670   C37     1.413   1_565 S
C671   C743    1.404   .     A
C671   C751    1.404   .     A
C671   C702    1.413   .     A
C672   C699    1.403   .     A
C672   C703    1.412   .     A
C672   C744    1.403   .     A
C673   C710    1.404   .     A
C673   C745    1.404   .     A
C674   C705    1.412   .     A
C674   C746    1.403   .     A
C674   C721    1.403   .     A
C675   C725    1.404   .     A
C675   C747    1.404   .     A
C675   C1038   1.412   .     S
C676   C748    1.404   .     A
C676   C806    1.404   .     A
C677   O972    1.386   .     S
C677   C733    1.411   .     A
C677   C679    1.404   .     A
C678   C749    1.403   .     A
C678   C704    1.412   .     A
C679   C750    1.404   .     A
C679   C1037   1.412   .     S
C680   C752    1.403   .     A
C680   C688    1.403   .     A
C680   C706    1.412   .     A
C681   C768    1.455   .     S
C681   C796    1.402   .     A
C681   C798    1.402   .     A
C682   C797    1.402   .     A
C682   C794    1.402   .     A
C682   C769    1.455   .     S
C683   C793    1.402   .     A
C683   C800    1.402   .     A
C683   C761    1.455   .     S
C684   C763    1.455   .     S
C684   C792    1.402   .     A
C684   C799    1.402   .     A
C685   C802    1.402   .     A
C685   C791    1.402   .     A
C685   C764    1.455   .     S
C686   C801    1.402   .     A
C686   C765    1.455   .     S
C686   C790    1.402   .     A
C687   C804    1.402   .     A
C687   C766    1.455   .     S
C687   C789    1.402   .     A
C688   O973    1.386   .     S
C688   C1066   1.412   1_455 S
C689   C803    1.402   .     A
C689   C767    1.455   .     S
C689   C788    1.402   .     A
C690   C787    1.402   .     A
C690   C807    1.402   .     A
C690   C777    1.455   .     S
C691   C805    1.402   .     A
C691   C786    1.402   .     A
C691   C778    1.455   .     S
C692   C809    1.402   .     A
C692   C770    1.454   .     S
C692   C785    1.402   .     A
C693   C808    1.402   .     A
C693   C783    1.402   .     A
C693   C771    1.454   .     S
C694   C782    1.402   .     A
C694   C811    1.402   .     A
C694   C772    1.455   .     S
C695   C774    1.455   .     S
C695   C781    1.402   .     A
C695   C810    1.402   .     A
C696   C780    1.402   .     A
C696   C775    1.454   .     S
C696   C813    1.402   .     A
C697   C779    1.402   .     A
C697   C812    1.402   .     A
C697   C776    1.454   .     S
C698   C700    1.410   .     A
C698   C1146   1.412   1_455 S
C699   O974    1.386   .     S
C699   C67     1.411   1_565 S
C700   C815    1.412   .     A
C700   C1001   1.412   1_455 S
C701   C702    1.410   .     A
C701   C816    1.413   .     A
C703   C12     1.412   1_565 S
C703   C704    1.410   1_556 S
C704   C9      1.412   1_565 S
C704   C703    1.410   1_554 S
C705   C1011   1.412   1_455 S
C705   C706    1.410   1_556 S
C706   C1007   1.412   1_455 S
C706   C705    1.410   1_554 S
C707   O961    1.411   .     S
C707   H862    1.113   .     S
C707   H860    1.113   .     S
C707   H863    1.109   .     S
C708   H866    1.109   .     S
C708   O962    1.414   .     S
C708   H864    1.111   .     S
C708   H865    1.114   .     S
C709   H867    1.111   .     S
C709   H869    1.109   .     S
C709   H868    1.114   .     S
C709   O963    1.414   .     S
C710   C732    1.411   .     A
C710   O975    1.386   .     S
C711   O964    1.411   .     S
C711   H873    1.109   .     S
C711   H870    1.113   .     S
C711   H871    1.113   .     S
C712   H876    1.109   .     S
C712   O965    1.414   .     S
C712   H875    1.111   .     S
C712   H874    1.114   .     S
C713   O966    1.411   .     S
C713   H877    1.113   .     S
C713   H879    1.109   .     S
C713   H878    1.113   .     S
C714   H880    1.113   .     S
C714   H881    1.113   .     S
C714   H882    1.109   .     S
C714   O967    1.411   .     S
C715   H885    1.111   .     S
C715   O969    1.414   .     S
C715   H886    1.109   .     S
C715   H884    1.114   .     S
C716   H888    1.113   .     S
C716   H887    1.113   .     S
C716   O970    1.411   .     S
C716   H889    1.109   .     S
C717   O971    1.414   .     S
C717   H890    1.111   .     S
C717   H892    1.109   .     S
C717   H227    1.114   1_565 S
C718   H893    1.113   .     S
C718   H896    1.109   .     S
C718   O972    1.411   .     S
C718   H895    1.113   .     S
C719   H899    1.109   .     S
C719   O973    1.414   .     S
C719   H897    1.111   .     S
C719   H1230   1.114   1_455 S
C720   H902    1.109   .     S
C720   O974    1.414   .     S
C720   H901    1.111   .     S
C720   H236    1.114   1_565 S
C721   O976    1.386   .     S
C721   C1065   1.412   1_455 S
C722   H906    1.109   .     S
C722   H903    1.113   .     S
C722   O975    1.411   .     S
C722   H904    1.113   .     S
C723   H908    1.111   .     S
C723   O976    1.414   .     S
C723   H909    1.109   .     S
C723   H1239   1.114   1_455 S
C724   H911    1.113   .     S
C724   O977    1.411   .     S
C724   H910    1.113   .     S
C724   H912    1.109   .     S
C725   C734    1.411   .     A
C725   O977    1.386   .     S
C726   C755    1.465   .     S
C726   C762    1.411   .     A
C726   C997    1.411   .     S
C727   C729    1.411   .     A
C727   C756    1.465   .     S
C727   C1105   1.411   .     S
C728   C753    1.465   .     S
C728   C740    1.411   .     A
C728   C120    1.411   1_565 S
C729   O962    1.386   .     S
C730   C795    1.411   .     A
C730   C754    1.465   .     S
C730   C87     1.411   1_565 S
C731   C759    1.465   .     S
C731   C806    1.411   .     A
C732   C760    1.465   .     S
C733   C757    1.465   .     S
C733   C1053   1.412   .     S
C734   C758    1.465   .     S
C734   C1020   1.412   .     S
C735   C814    1.403   .     A
C735   C741    1.387   .     A
C735   H817    1.083   .     S
C736   C815    1.404   .     A
C736   C739    1.390   .     A
C736   H828    1.083   .     S
C737   H839    1.083   .     S
C737   C743    1.390   .     A
C737   C816    1.404   .     A
C738   C742    1.387   .     A
C738   H850    1.083   .     S
C739   H861    1.083   .     S
C740   O963    1.386   .     S
C741   H872    1.083   .     S
C742   H883    1.083   .     S
C743   H894    1.083   .     S
C744   H905    1.083   .     S
C744   C749    1.387   1_556 S
C745   H818    1.083   .     S
C745   C748    1.390   1_554 S
C746   H819    1.083   .     S
C746   C752    1.387   1_556 S
C747   H820    1.083   .     S
C747   C750    1.390   1_554 S
C748   H821    1.083   .     S
C748   C745    1.390   1_556 S
C749   H822    1.083   .     S
C749   C744    1.387   1_554 S
C750   H823    1.083   .     S
C750   C747    1.390   1_556 S
C751   O964    1.386   .     S
C752   H824    1.083   .     S
C752   C746    1.387   1_554 S
C753   O957    1.278   .     A
C753   O316    1.283   1_565 S
C754   O914    1.278   .     A
C754   O304    1.283   1_565 S
C755   O915    1.278   .     A
C755   O1310   1.283   .     S
C756   O979    1.278   .     A
C756   O1248   1.283   .     S
C757   O1253   1.283   .     A
C757   O1249   1.278   .     A
C758   O1250   1.283   .     A
C758   O1254   1.278   .     A
C759   O919    1.283   .     A
C759   O923    1.278   .     A
C760   O920    1.278   .     S
C760   O925    1.283   .     S
C761   O926    1.282   .     A
C761   O954    1.282   .     A
C762   C814    1.404   .     A
C762   O965    1.386   .     S
C763   O955    1.282   .     A
C763   O927    1.282   .     A
C764   O928    1.282   .     A
C764   O952    1.282   .     A
C765   O953    1.282   .     A
C765   O929    1.282   .     A
C766   O959    1.282   .     A
C766   O930    1.282   .     A
C767   O960    1.282   .     A
C767   O931    1.282   .     A
C768   O956    1.282   .     A
C768   O932    1.282   .     A
C769   O958    1.282   .     A
C769   O933    1.282   .     A
C770   O945    1.282   .     A
C770   O934    1.282   .     A
C771   O936    1.282   .     A
C771   O947    1.282   .     A
C772   O937    1.282   .     A
C772   O943    1.282   .     A
C773   C815    1.404   .     A
C773   O966    1.386   .     S
C773   C1059   1.411   1_455 S
C774   O938    1.282   .     A
C774   O944    1.282   .     A
C775   O950    1.282   .     A
C775   O939    1.282   .     A
C776   O951    1.282   .     A
C776   O940    1.282   .     A
C777   O948    1.282   .     A
C777   O941    1.282   .     A
C778   O949    1.282   .     A
C778   O942    1.282   .     A
C779   C796    1.386   .     A
C779   H825    1.083   .     S
C780   C794    1.386   .     A
C780   H826    1.083   .     S
C781   H827    1.083   .     S
C781   C793    1.386   .     A
C782   H829    1.083   .     S
C782   C792    1.386   .     A
C783   C791    1.386   .     A
C783   H830    1.083   .     S
C784   O967    1.386   .     S
C784   C816    1.404   .     A
C785   H831    1.083   .     S
C785   C790    1.386   .     A
C786   C789    1.386   .     A
C786   H832    1.083   .     S
C787   C788    1.386   .     A
C787   H833    1.083   .     S
C788   H834    1.083   .     S
C789   H835    1.083   .     S
C790   H836    1.083   .     S
C791   H837    1.083   .     S
C792   H838    1.083   .     S
C793   H840    1.083   .     S
C794   H841    1.083   .     S
C795   O969    1.386   .     S
C796   H842    1.083   .     S
C797   H843    1.083   .     S
C797   C813    1.386   .     A
C798   H844    1.083   .     S
C798   C812    1.386   .     A
C799   C811    1.386   .     A
C799   H845    1.083   .     S
C800   C810    1.386   .     A
C800   H846    1.083   .     S
C801   C809    1.386   .     A
C801   H847    1.083   .     S
C802   H848    1.083   .     S
C802   C808    1.386   .     A
C803   C807    1.386   .     A
C803   H849    1.083   .     S
C804   H851    1.083   .     S
C804   C805    1.386   .     A
C805   H852    1.083   .     S
C806   O970    1.386   .     S
C807   H853    1.083   .     S
C808   H854    1.083   .     S
C809   H855    1.083   .     S
C810   H856    1.083   .     S
C811   H857    1.083   .     S
C812   H858    1.083   .     S
C813   H859    1.083   .     S
C814   C1030   1.412   .     S
H898   C1051   1.114   .     S
H907   C1055   1.114   .     S
O913   Zn984   1.949   .     S
O913   Zn981   1.949   .     S
O913   Zn992   1.949   .     S
O914   Zn983   1.954   .     S
O915   Zn986   1.954   .     S
O916   Zn985   1.954   .     S
O916   C1088   1.283   1_455 S
O917   C1089   1.278   1_455 A
O917   Zn995   1.954   .     S
O918   C1090   1.283   1_455 A
O918   Zn994   1.954   .     S
O919   Zn989   1.954   .     S
O920   Zn981   1.954   .     S
O921   C1089   1.283   1_455 A
O921   Zn991   1.954   .     S
O922   Zn990   1.954   .     S
O922   C1090   1.278   1_455 A
O923   Zn993   1.954   .     S
O924   Zn987   1.949   .     S
O924   Zn989   1.949   .     S
O924   Zn993   1.949   .     S
O925   Zn992   1.954   .     S
O926   Zn984   1.936   .     S
O927   Zn983   1.936   .     S
O928   Zn986   1.935   .     S
O929   Zn985   1.935   .     S
O930   Zn988   1.936   .     S
O931   Zn987   1.936   .     S
O932   Zn982   1.935   .     S
O933   Zn996   1.935   .     S
O934   Zn983   1.935   .     S
O935   Zn1318  1.949   1_455 S
O935   Zn990   1.949   .     S
O935   Zn982   1.949   .     S
O935   Zn994   1.949   .     S
O936   Zn984   1.935   .     S
O937   Zn996   1.936   .     S
O938   Zn982   1.936   .     S
O939   Zn987   1.935   .     S
O940   Zn988   1.935   .     S
O941   Zn985   1.936   .     S
O942   Zn986   1.936   .     S
O943   Zn1323  1.936   .     S
O944   Zn990   1.936   .     S
O945   Zn329   1.935   1_565 S
O946   Zn1328  1.949   1_455 S
O946   Zn995   1.949   .     S
O946   Zn985   1.949   .     S
O946   Zn991   1.949   .     S
O947   Zn992   1.935   .     S
O948   Zn995   1.936   .     S
O949   Zn1326  1.936   .     S
O950   Zn989   1.935   .     S
O951   Zn317   1.935   1_565 S
O952   Zn1322  1.935   .     S
O953   Zn991   1.935   .     S
O954   Zn981   1.936   .     S
O955   Zn325   1.936   1_565 S
O956   Zn994   1.935   .     S
O957   Zn988   1.954   .     S
O958   Zn1327  1.935   .     S
O959   Zn328   1.936   1_565 S
O960   Zn993   1.936   .     S
O968   Zn987   1.954   .     S
O978   Zn982   1.954   .     S
O978   C1087   1.283   1_455 S
O979   Zn996   1.954   .     S
O980   Zn984   1.954   .     S
Zn983  O260    1.949   1_565 S
Zn986  O1267   1.949   .     S
Zn988  O249    1.949   1_565 S
Zn990  O1284   1.935   1_455 S
Zn991  O1275   1.936   1_455 S
Zn994  O1281   1.936   1_455 S
Zn995  O1290   1.935   1_455 S
Zn996  O1278   1.949   .     S
C997   O1293   1.386   .     S
C997   C1000   1.404   .     A
C998   O1303   1.386   .     S
C998   C1010   1.403   .     A
C998   C400    1.411   1_565 S
C999   C1127   1.404   .     A
C999   C1070   1.403   .     A
C999   C370    1.413   1_565 S
C1000  C1071   1.404   .     A
C1000  C1030   1.412   .     A
C1001  C1073   1.403   .     A
C1001  C1061   1.403   .     A
C1001  C700    1.412   1_655 S
C1002  C1074   1.403   .     A
C1002  C1072   1.404   .     A
C1002  C369    1.413   1_565 S
C1003  C1075   1.404   .     A
C1003  C1083   1.404   .     A
C1003  C1034   1.413   .     A
C1004  C1031   1.403   .     A
C1004  C1035   1.412   .     A
C1004  C1076   1.403   .     A
C1005  C1042   1.404   .     A
C1005  C1077   1.404   .     A
C1006  C1037   1.412   .     A
C1006  C1078   1.403   .     A
C1006  C1053   1.403   .     A
C1007  C1057   1.404   .     A
C1007  C1079   1.404   .     A
C1007  C706    1.412   1_655 S
C1008  C1080   1.404   .     A
C1008  C1138   1.404   .     A
C1009  O1304   1.386   .     S
C1009  C1065   1.411   .     A
C1009  C1011   1.404   .     A
C1010  C1081   1.403   .     A
C1010  C1036   1.412   .     A
C1011  C1082   1.404   .     A
C1011  C705    1.412   1_655 S
C1012  C1084   1.403   .     A
C1012  C1020   1.403   .     A
C1012  C1038   1.412   .     A
C1013  C1100   1.455   .     S
C1013  C1128   1.402   .     A
C1013  C1130   1.402   .     A
C1014  C1129   1.402   .     A
C1014  C1126   1.402   .     A
C1014  C1101   1.455   .     S
C1015  C1125   1.402   .     A
C1015  C1132   1.402   .     A
C1015  C1093   1.455   .     S
C1016  C1095   1.455   .     S
C1016  C1124   1.402   .     A
C1016  C1131   1.402   .     A
C1017  C1134   1.402   .     A
C1017  C1123   1.402   .     A
C1017  C1096   1.455   .     S
C1018  C1133   1.402   .     A
C1018  C1097   1.455   .     S
C1018  C1122   1.402   .     A
C1019  C1136   1.402   .     A
C1019  C1098   1.455   .     S
C1019  C1121   1.402   .     A
C1020  O1305   1.386   .     S
C1021  C1135   1.402   .     A
C1021  C1099   1.455   .     S
C1021  C1120   1.402   .     A
C1022  C1119   1.402   .     A
C1022  C1139   1.402   .     A
C1022  C1109   1.455   .     S
C1023  C1137   1.402   .     A
C1023  C1118   1.402   .     A
C1023  C1110   1.455   .     S
C1024  C1141   1.402   .     A
C1024  C1102   1.454   .     S
C1024  C1117   1.402   .     A
C1025  C1140   1.402   .     A
C1025  C1115   1.402   .     A
C1025  C1103   1.454   .     S
C1026  C1114   1.402   .     A
C1026  C1143   1.402   .     A
C1026  C1104   1.455   .     S
C1027  C1106   1.455   .     S
C1027  C1113   1.402   .     A
C1027  C1142   1.402   .     A
C1028  C1112   1.402   .     A
C1028  C1107   1.454   .     S
C1028  C1145   1.402   .     A
C1029  C1111   1.402   .     A
C1029  C1144   1.402   .     A
C1029  C1108   1.454   .     S
C1030  C1032   1.410   .     A
C1031  O1306   1.386   .     S
C1031  C399    1.411   1_565 S
C1032  C1147   1.412   .     A
C1033  C1034   1.410   .     A
C1033  C1148   1.413   .     A
C1035  C344    1.412   1_565 S
C1035  C1036   1.410   1_556 S
C1036  C341    1.412   1_565 S
C1036  C1035   1.410   1_554 S
C1037  C1038   1.410   1_556 S
C1038  C1037   1.410   1_554 S
C1039  O1293   1.411   .     S
C1039  H1194   1.113   .     S
C1039  H1192   1.113   .     S
C1039  H1195   1.109   .     S
C1040  H1198   1.109   .     S
C1040  O1294   1.414   .     S
C1040  H1196   1.111   .     S
C1040  H1197   1.114   .     S
C1041  H1199   1.111   .     S
C1041  H1201   1.109   .     S
C1041  H1200   1.114   .     S
C1041  O1295   1.414   .     S
C1042  C1064   1.411   .     A
C1042  O1307   1.386   .     S
C1043  O1296   1.411   .     S
C1043  H1205   1.109   .     S
C1043  H1202   1.113   .     S
C1043  H1203   1.113   .     S
C1044  H1208   1.109   .     S
C1044  O1297   1.414   .     S
C1044  H1207   1.111   .     S
C1044  H1206   1.114   .     S
C1045  O1298   1.411   .     S
C1045  H1209   1.113   .     S
C1045  H1211   1.109   .     S
C1045  H1210   1.113   .     S
C1046  H1212   1.113   .     S
C1046  H1213   1.113   .     S
C1046  H1214   1.109   .     S
C1046  O1299   1.411   .     S
C1047  H1217   1.111   .     S
C1047  O1301   1.414   .     S
C1047  H1218   1.109   .     S
C1047  H1216   1.114   .     S
C1048  H1220   1.113   .     S
C1048  H1219   1.113   .     S
C1048  O1302   1.411   .     S
C1048  H1221   1.109   .     S
C1049  O1303   1.414   .     S
C1049  H1222   1.111   .     S
C1049  H1224   1.109   .     S
C1049  H559    1.114   1_565 S
C1050  H1225   1.113   .     S
C1050  H1228   1.109   .     S
C1050  O1304   1.411   .     S
C1050  H1227   1.113   .     S
C1051  H1231   1.109   .     S
C1051  O1305   1.414   .     S
C1051  H1229   1.111   .     S
C1052  H1234   1.109   .     S
C1052  O1306   1.414   .     S
C1052  H1233   1.111   .     S
C1052  H568    1.114   1_565 S
C1053  O1308   1.386   .     S
C1054  H1238   1.109   .     S
C1054  H1235   1.113   .     S
C1054  O1307   1.411   .     S
C1054  H1236   1.113   .     S
C1055  H1240   1.111   .     S
C1055  O1308   1.414   .     S
C1055  H1241   1.109   .     S
C1056  H1243   1.113   .     S
C1056  O1309   1.411   .     S
C1056  H1242   1.113   .     S
C1056  H1244   1.109   .     S
C1057  C1066   1.411   .     A
C1057  O1309   1.386   .     S
C1058  C1087   1.465   .     S
C1058  C1094   1.411   .     A
C1058  C665    1.411   1_655 S
C1059  C1061   1.411   .     A
C1059  C1088   1.465   .     S
C1059  C773    1.411   1_655 S
C1060  C1085   1.465   .     S
C1060  C1072   1.411   .     A
C1060  C452    1.411   1_565 S
C1061  O1294   1.386   .     S
C1062  C1127   1.411   .     A
C1062  C1086   1.465   .     S
C1062  C419    1.411   1_565 S
C1063  C1091   1.465   .     S
C1063  C1138   1.411   .     A
C1064  C1092   1.465   .     S
C1065  C1089   1.465   .     S
C1065  C721    1.412   1_655 S
C1066  C1090   1.465   .     S
C1066  C688    1.412   1_655 S
C1067  C1146   1.403   .     A
C1067  C1073   1.387   .     A
C1067  H1149   1.083   .     S
C1068  C1147   1.404   .     A
C1068  C1071   1.390   .     A
C1068  H1160   1.083   .     S
C1069  H1171   1.083   .     S
C1069  C1075   1.390   .     A
C1069  C1148   1.404   .     A
C1070  C1074   1.387   .     A
C1070  H1182   1.083   .     S
C1071  H1193   1.083   .     S
C1072  O1295   1.386   .     S
C1073  H1204   1.083   .     S
C1074  H1215   1.083   .     S
C1075  H1226   1.083   .     S
C1076  H1237   1.083   .     S
C1076  C1081   1.387   1_556 S
C1077  H1150   1.083   .     S
C1077  C1080   1.390   1_554 S
C1078  H1151   1.083   .     S
C1078  C1084   1.387   1_556 S
C1079  H1152   1.083   .     S
C1079  C1082   1.390   1_554 S
C1080  H1153   1.083   .     S
C1080  C1077   1.390   1_556 S
C1081  H1154   1.083   .     S
C1081  C1076   1.387   1_554 S
C1082  H1155   1.083   .     S
C1082  C1079   1.390   1_556 S
C1083  O1296   1.386   .     S
C1084  H1156   1.083   .     S
C1084  C1078   1.387   1_554 S
C1085  O1289   1.278   .     A
C1085  O648    1.283   1_565 S
C1086  O1246   1.278   .     A
C1086  O636    1.283   1_565 S
C1087  O1247   1.278   .     A
C1087  O978    1.283   1_655 S
C1088  O1311   1.278   .     A
C1088  O916    1.283   1_655 S
C1089  O921    1.283   1_655 A
C1089  O917    1.278   1_655 A
C1090  O918    1.283   1_655 A
C1090  O922    1.278   1_655 A
C1091  O1251   1.283   .     A
C1091  O1255   1.278   .     A
C1092  O1252   1.278   .     S
C1092  O1257   1.283   .     S
C1093  O1258   1.282   .     A
C1093  O1286   1.282   .     A
C1094  C1146   1.404   .     A
C1094  O1297   1.386   .     S
C1095  O1287   1.282   .     A
C1095  O1259   1.282   .     A
C1096  O1260   1.282   .     A
C1096  O1284   1.282   .     A
C1097  O1285   1.282   .     A
C1097  O1261   1.282   .     A
C1098  O1291   1.282   .     A
C1098  O1262   1.282   .     A
C1099  O1292   1.282   .     A
C1099  O1263   1.282   .     A
C1100  O1288   1.282   .     A
C1100  O1264   1.282   .     A
C1101  O1290   1.282   .     A
C1101  O1265   1.282   .     A
C1102  O1277   1.282   .     A
C1102  O1266   1.282   .     A
C1103  O1268   1.282   .     A
C1103  O1279   1.282   .     A
C1104  O1269   1.282   .     A
C1104  O1275   1.282   .     A
C1105  C1147   1.404   .     A
C1105  O1298   1.386   .     S
C1106  O1270   1.282   .     A
C1106  O1276   1.282   .     A
C1107  O1282   1.282   .     A
C1107  O1271   1.282   .     A
C1108  O1283   1.282   .     A
C1108  O1272   1.282   .     A
C1109  O1280   1.282   .     A
C1109  O1273   1.282   .     A
C1110  O1281   1.282   .     A
C1110  O1274   1.282   .     A
C1111  C1128   1.386   .     A
C1111  H1157   1.083   .     S
C1112  C1126   1.386   .     A
C1112  H1158   1.083   .     S
C1113  H1159   1.083   .     S
C1113  C1125   1.386   .     A
C1114  H1161   1.083   .     S
C1114  C1124   1.386   .     A
C1115  C1123   1.386   .     A
C1115  H1162   1.083   .     S
C1116  O1299   1.386   .     S
C1116  C1148   1.404   .     A
C1117  H1163   1.083   .     S
C1117  C1122   1.386   .     A
C1118  C1121   1.386   .     A
C1118  H1164   1.083   .     S
C1119  C1120   1.386   .     A
C1119  H1165   1.083   .     S
C1120  H1166   1.083   .     S
C1121  H1167   1.083   .     S
C1122  H1168   1.083   .     S
C1123  H1169   1.083   .     S
C1124  H1170   1.083   .     S
C1125  H1172   1.083   .     S
C1126  H1173   1.083   .     S
C1127  O1301   1.386   .     S
C1128  H1174   1.083   .     S
C1129  H1175   1.083   .     S
C1129  C1145   1.386   .     A
C1130  H1176   1.083   .     S
C1130  C1144   1.386   .     A
C1131  C1143   1.386   .     A
C1131  H1177   1.083   .     S
C1132  C1142   1.386   .     A
C1132  H1178   1.083   .     S
C1133  C1141   1.386   .     A
C1133  H1179   1.083   .     S
C1134  H1180   1.083   .     S
C1134  C1140   1.386   .     A
C1135  C1139   1.386   .     A
C1135  H1181   1.083   .     S
C1136  H1183   1.083   .     S
C1136  C1137   1.386   .     A
C1137  H1184   1.083   .     S
C1138  O1302   1.386   .     S
C1139  H1185   1.083   .     S
C1140  H1186   1.083   .     S
C1141  H1187   1.083   .     S
C1142  H1188   1.083   .     S
C1143  H1189   1.083   .     S
C1144  H1190   1.083   .     S
C1145  H1191   1.083   .     S
C1146  C698    1.412   1_655 S
H1230  C719    1.114   1_655 S
H1239  C723    1.114   1_655 S
O1245  Zn1316  1.949   .     S
O1245  Zn1313  1.949   .     S
O1245  Zn1324  1.949   .     S
O1246  Zn1315  1.954   .     S
O1247  Zn1318  1.954   .     S
O1248  Zn1317  1.954   .     S
O1249  Zn1327  1.954   .     S
O1250  Zn1326  1.954   .     S
O1251  Zn1321  1.954   .     S
O1252  Zn1313  1.954   .     S
O1253  Zn1323  1.954   .     S
O1254  Zn1322  1.954   .     S
O1255  Zn1325  1.954   .     S
O1256  Zn1319  1.949   .     S
O1256  Zn1321  1.949   .     S
O1256  Zn1325  1.949   .     S
O1257  Zn1324  1.954   .     S
O1258  Zn1316  1.936   .     S
O1259  Zn1315  1.936   .     S
O1260  Zn1318  1.935   .     S
O1261  Zn1317  1.935   .     S
O1262  Zn1320  1.936   .     S
O1263  Zn1319  1.936   .     S
O1264  Zn1314  1.935   .     S
O1265  Zn1328  1.935   .     S
O1266  Zn1315  1.935   .     S
O1267  Zn1322  1.949   .     S
O1267  Zn1314  1.949   .     S
O1267  Zn1326  1.949   .     S
O1268  Zn1316  1.935   .     S
O1269  Zn1328  1.936   .     S
O1270  Zn1314  1.936   .     S
O1271  Zn1319  1.935   .     S
O1272  Zn1320  1.935   .     S
O1273  Zn1317  1.936   .     S
O1274  Zn1318  1.936   .     S
O1275  Zn991   1.936   1_655 S
O1276  Zn1322  1.936   .     S
O1277  Zn661   1.935   1_565 S
O1278  Zn1327  1.949   .     S
O1278  Zn1317  1.949   .     S
O1278  Zn1323  1.949   .     S
O1279  Zn1324  1.935   .     S
O1280  Zn1327  1.936   .     S
O1281  Zn994   1.936   1_655 S
O1282  Zn1321  1.935   .     S
O1283  Zn649   1.935   1_565 S
O1284  Zn990   1.935   1_655 S
O1285  Zn1323  1.935   .     S
O1286  Zn1313  1.936   .     S
O1287  Zn657   1.936   1_565 S
O1288  Zn1326  1.935   .     S
O1289  Zn1320  1.954   .     S
O1290  Zn995   1.935   1_655 S
O1291  Zn660   1.936   1_565 S
O1292  Zn1325  1.936   .     S
O1300  Zn1319  1.954   .     S
O1310  Zn1314  1.954   .     S
O1311  Zn1328  1.954   .     S
O1312  Zn1316  1.954   .     S
Zn1315 O592    1.949   1_565 S
Zn1318 O935    1.949   1_655 S
Zn1320 O581    1.949   1_565 S
Zn1328 O946    1.949   1_655 S
