data_str_m1_o10_o18_pcu_sym.256
_audit_creation_date              2020-01-03
_audit_creation_method            'Materials Studio'
_symmetry_space_group_name_H-M    'P1'
_symmetry_Int_Tables_number       1
_symmetry_cell_setting            triclinic
loop_
_symmetry_equiv_pos_as_xyz
  x,y,z
_cell_length_a                    32.5370
_cell_length_b                    32.5371
_cell_length_c                    35.5953
_cell_angle_alpha                 98.1362
_cell_angle_beta                  73.1113
_cell_angle_gamma                 98.5575
loop_
_atom_site_label
_atom_site_type_symbol
_atom_site_fract_x
_atom_site_fract_y
_atom_site_fract_z
_atom_site_U_iso_or_equiv
_atom_site_adp_type
_atom_site_occupancy
C1     C     0.05248   0.15988   0.25878   0.00000  Uiso   1.00
C2     C     0.20352   0.13233   0.45789   0.00000  Uiso   1.00
C3     C     0.22720   0.11431   0.47687   0.00000  Uiso   1.00
C4     C     0.28108   0.17355   0.24120   0.00000  Uiso   1.00
C5     C     0.21569   0.11730   0.01868   0.00000  Uiso   1.00
C6     C     0.17979   0.13919   0.04014   0.00000  Uiso   1.00
C7     C     0.23876   0.10017   0.04002   0.00000  Uiso   1.00
C8     C     0.22848   0.10836   0.08139   0.00000  Uiso   1.00
C9     C     0.17544   0.15304   0.08043   0.00000  Uiso   1.00
C10    C     0.32704   0.17618   0.23760   0.00000  Uiso   1.00
C11    C     0.00710   0.15746   0.26222   0.00000  Uiso   1.00
C12    C     0.08827   0.20032   0.42211   0.00000  Uiso   1.00
C13    C     0.18093   0.32216   0.23808   0.00000  Uiso   1.00
C14    C     0.15161   0.01207   0.26215   0.00000  Uiso   1.00
C15    C     0.15595   0.05608   0.25890   0.00000  Uiso   1.00
C16    C     0.17687   0.27768   0.24134   0.00000  Uiso   1.00
C17    C     0.18811   0.14538   0.14397   0.00000  Uiso   1.00
C18    C     0.14464   0.18707   0.35644   0.00000  Uiso   1.00
C19    C     0.12965   0.18938   0.40011   0.00000  Uiso   1.00
C20    C     0.19782   0.13569   0.10119   0.00000  Uiso   1.00
C21    C     0.07339   0.19488   0.46216   0.00000  Uiso   1.00
C22    C     0.15563   0.17514   0.41961   0.00000  Uiso   1.00
C23    C     0.14024   0.16769   0.45969   0.00000  Uiso   1.00
C24    C     0.09824   0.17775   0.48116   0.00000  Uiso   1.00
C25    C     0.16544   0.15032   0.47885   0.00000  Uiso   1.00
C26    C     0.15092   0.14884   0.02017   0.00000  Uiso   1.00
C27    C     0.10676   0.15283   0.03958   0.00000  Uiso   1.00
C28    C     0.08101   0.16852   0.02067   0.00000  Uiso   1.00
Cl29   Cl    0.15017   0.19854   0.10310   0.00000  Uiso   1.00
Cl30   Cl    0.25596   0.08596   0.10827   0.00000  Uiso   1.00
Cl31   Cl    0.27299   0.09195   0.44547   0.00000  Uiso   1.00
H32    H     0.01676   0.19338   0.21483   0.00000  Uiso   1.00
H33    H     0.26219   0.04419   0.03122   0.00000  Uiso   1.00
H34    H     0.30043   0.08626   0.02643   0.00000  Uiso   1.00
H35    H     0.07461   0.24313   0.39254   0.00000  Uiso   1.00
H36    H     0.05289   0.19293   0.38259   0.00000  Uiso   1.00
H37    H     0.06379   0.11076   0.07193   0.00000  Uiso   1.00
H38    H     0.07001   0.15846   0.09664   0.00000  Uiso   1.00
H39    H     0.31805   0.14023   0.28528   0.00000  Uiso   1.00
H40    H     0.20804   0.00276   0.21592   0.00000  Uiso   1.00
H41    H     0.12412   0.33222   0.28437   0.00000  Uiso   1.00
H42    H     0.04136   0.20306   0.47784   0.00000  Uiso   1.00
H43    H     0.18803   0.16997   0.40254   0.00000  Uiso   1.00
H44    H     0.21444   0.12932   0.42612   0.00000  Uiso   1.00
H45    H     0.01650   0.15592   0.02647   0.00000  Uiso   1.00
H46    H     0.03254   0.20519   0.04454   0.00000  Uiso   1.00
N47    N     0.03695   0.17365   0.04205   0.00000  Uiso   1.00
N48    N     0.27141   0.07333   0.02026   0.00000  Uiso   1.00
N49    N     0.05966   0.21545   0.40468   0.00000  Uiso   1.00
N50    N     0.08661   0.13576   0.07655   0.00000  Uiso   1.00
O51    O     0.16667   0.16667   0.25000   0.00000  Uiso   1.00
O52    O     0.15693   0.12393   0.16625   0.00000  Uiso   1.00
O53    O     0.12687   0.20646   0.33749   0.00000  Uiso   1.00
O54    O     0.21088   0.17493   0.15877   0.00000  Uiso   1.00
O55    O     0.17198   0.16135   0.33749   0.00000  Uiso   1.00
O56    O     0.17849   0.08101   0.27820   0.00000  Uiso   1.00
O57    O     0.14581   0.26136   0.26767   0.00000  Uiso   1.00
O58    O     0.07452   0.13251   0.23607   0.00000  Uiso   1.00
O59    O     0.26785   0.19179   0.21805   0.00000  Uiso   1.00
O60    O     0.06990   0.18960   0.27820   0.00000  Uiso   1.00
O61    O     0.25440   0.15277   0.26767   0.00000  Uiso   1.00
O62    O     0.13800   0.06903   0.23607   0.00000  Uiso   1.00
O63    O     0.20437   0.25527   0.21805   0.00000  Uiso   1.00
Zn64   Zn    0.19244   0.14090   0.28277   0.00000  Uiso   1.00
Zn65   Zn    0.13459   0.12378   0.22257   0.00000  Uiso   1.00
Zn66   Zn    0.21166   0.19664   0.21188   0.00000  Uiso   1.00
Zn67   Zn    0.12798   0.20535   0.28277   0.00000  Uiso   1.00
C68    C     0.38581   0.15988   0.25878   0.00000  Uiso   1.00
C69    C     0.53685   0.13233   0.45789   0.00000  Uiso   1.00
C70    C     0.56053   0.11431   0.47687   0.00000  Uiso   1.00
C71    C     0.61441   0.17355   0.24120   0.00000  Uiso   1.00
C72    C     0.54902   0.11730   0.01868   0.00000  Uiso   1.00
C73    C     0.51312   0.13919   0.04014   0.00000  Uiso   1.00
C74    C     0.57209   0.10017   0.04002   0.00000  Uiso   1.00
C75    C     0.56181   0.10836   0.08139   0.00000  Uiso   1.00
C76    C     0.50877   0.15304   0.08043   0.00000  Uiso   1.00
C77    C     0.66038   0.17618   0.23760   0.00000  Uiso   1.00
C78    C     0.34043   0.15746   0.26222   0.00000  Uiso   1.00
C79    C     0.42161   0.20032   0.42211   0.00000  Uiso   1.00
C80    C     0.51427   0.32216   0.23808   0.00000  Uiso   1.00
C81    C     0.48494   0.01207   0.26215   0.00000  Uiso   1.00
C82    C     0.48929   0.05608   0.25890   0.00000  Uiso   1.00
C83    C     0.51021   0.27768   0.24134   0.00000  Uiso   1.00
C84    C     0.52144   0.14538   0.14397   0.00000  Uiso   1.00
C85    C     0.47798   0.18707   0.35644   0.00000  Uiso   1.00
C86    C     0.46299   0.18938   0.40011   0.00000  Uiso   1.00
C87    C     0.53115   0.13569   0.10119   0.00000  Uiso   1.00
C88    C     0.40672   0.19488   0.46216   0.00000  Uiso   1.00
C89    C     0.48896   0.17514   0.41961   0.00000  Uiso   1.00
C90    C     0.47358   0.16769   0.45969   0.00000  Uiso   1.00
C91    C     0.43157   0.17775   0.48116   0.00000  Uiso   1.00
C92    C     0.49877   0.15032   0.47885   0.00000  Uiso   1.00
C93    C     0.48425   0.14884   0.02017   0.00000  Uiso   1.00
C94    C     0.44009   0.15283   0.03958   0.00000  Uiso   1.00
C95    C     0.41435   0.16852   0.02067   0.00000  Uiso   1.00
Cl96   Cl    0.48350   0.19854   0.10310   0.00000  Uiso   1.00
Cl97   Cl    0.58929   0.08596   0.10827   0.00000  Uiso   1.00
Cl98   Cl    0.60633   0.09195   0.44547   0.00000  Uiso   1.00
H99    H     0.35010   0.19338   0.21483   0.00000  Uiso   1.00
H100   H     0.59552   0.04419   0.03122   0.00000  Uiso   1.00
H101   H     0.63377   0.08626   0.02643   0.00000  Uiso   1.00
H102   H     0.40795   0.24313   0.39254   0.00000  Uiso   1.00
H103   H     0.38623   0.19293   0.38259   0.00000  Uiso   1.00
H104   H     0.39712   0.11076   0.07193   0.00000  Uiso   1.00
H105   H     0.40335   0.15846   0.09664   0.00000  Uiso   1.00
H106   H     0.65138   0.14023   0.28528   0.00000  Uiso   1.00
H107   H     0.54137   0.00276   0.21592   0.00000  Uiso   1.00
H108   H     0.45746   0.33222   0.28437   0.00000  Uiso   1.00
H109   H     0.37470   0.20306   0.47784   0.00000  Uiso   1.00
H110   H     0.52136   0.16997   0.40254   0.00000  Uiso   1.00
H111   H     0.54777   0.12932   0.42612   0.00000  Uiso   1.00
H112   H     0.34984   0.15592   0.02647   0.00000  Uiso   1.00
H113   H     0.36587   0.20519   0.04454   0.00000  Uiso   1.00
N114   N     0.37029   0.17365   0.04205   0.00000  Uiso   1.00
N115   N     0.60475   0.07333   0.02026   0.00000  Uiso   1.00
N116   N     0.39299   0.21545   0.40468   0.00000  Uiso   1.00
N117   N     0.41995   0.13576   0.07655   0.00000  Uiso   1.00
O118   O     0.50000   0.16667   0.25000   0.00000  Uiso   1.00
O119   O     0.49027   0.12393   0.16625   0.00000  Uiso   1.00
O120   O     0.46020   0.20646   0.33749   0.00000  Uiso   1.00
O121   O     0.54421   0.17493   0.15877   0.00000  Uiso   1.00
O122   O     0.50532   0.16135   0.33749   0.00000  Uiso   1.00
O123   O     0.51182   0.08101   0.27820   0.00000  Uiso   1.00
O124   O     0.47914   0.26136   0.26767   0.00000  Uiso   1.00
O125   O     0.40785   0.13251   0.23607   0.00000  Uiso   1.00
O126   O     0.60119   0.19179   0.21805   0.00000  Uiso   1.00
O127   O     0.40323   0.18960   0.27820   0.00000  Uiso   1.00
O128   O     0.58773   0.15277   0.26767   0.00000  Uiso   1.00
O129   O     0.47133   0.06903   0.23607   0.00000  Uiso   1.00
O130   O     0.53771   0.25527   0.21805   0.00000  Uiso   1.00
Zn131  Zn    0.52577   0.14090   0.28277   0.00000  Uiso   1.00
Zn132  Zn    0.46792   0.12378   0.22257   0.00000  Uiso   1.00
Zn133  Zn    0.54500   0.19664   0.21188   0.00000  Uiso   1.00
Zn134  Zn    0.46131   0.20535   0.28277   0.00000  Uiso   1.00
C135   C     0.71914   0.15988   0.25878   0.00000  Uiso   1.00
C136   C     0.87019   0.13233   0.45789   0.00000  Uiso   1.00
C137   C     0.89386   0.11431   0.47687   0.00000  Uiso   1.00
C138   C     0.94774   0.17355   0.24120   0.00000  Uiso   1.00
C139   C     0.88235   0.11730   0.01868   0.00000  Uiso   1.00
C140   C     0.84645   0.13919   0.04014   0.00000  Uiso   1.00
C141   C     0.90543   0.10017   0.04002   0.00000  Uiso   1.00
C142   C     0.89515   0.10836   0.08139   0.00000  Uiso   1.00
C143   C     0.84210   0.15304   0.08043   0.00000  Uiso   1.00
C144   C     0.99371   0.17618   0.23760   0.00000  Uiso   1.00
C145   C     0.67377   0.15746   0.26222   0.00000  Uiso   1.00
C146   C     0.75494   0.20032   0.42211   0.00000  Uiso   1.00
C147   C     0.84760   0.32216   0.23808   0.00000  Uiso   1.00
C148   C     0.81827   0.01207   0.26215   0.00000  Uiso   1.00
C149   C     0.82262   0.05608   0.25890   0.00000  Uiso   1.00
C150   C     0.84354   0.27768   0.24134   0.00000  Uiso   1.00
C151   C     0.85477   0.14538   0.14397   0.00000  Uiso   1.00
C152   C     0.81131   0.18707   0.35644   0.00000  Uiso   1.00
C153   C     0.79632   0.18938   0.40011   0.00000  Uiso   1.00
C154   C     0.86449   0.13569   0.10119   0.00000  Uiso   1.00
C155   C     0.74006   0.19488   0.46216   0.00000  Uiso   1.00
C156   C     0.82229   0.17514   0.41961   0.00000  Uiso   1.00
C157   C     0.80691   0.16769   0.45969   0.00000  Uiso   1.00
C158   C     0.76491   0.17775   0.48116   0.00000  Uiso   1.00
C159   C     0.83211   0.15032   0.47885   0.00000  Uiso   1.00
C160   C     0.81758   0.14884   0.02017   0.00000  Uiso   1.00
C161   C     0.77342   0.15283   0.03958   0.00000  Uiso   1.00
C162   C     0.74768   0.16852   0.02067   0.00000  Uiso   1.00
Cl163  Cl    0.81683   0.19854   0.10310   0.00000  Uiso   1.00
Cl164  Cl    0.92262   0.08596   0.10827   0.00000  Uiso   1.00
Cl165  Cl    0.93966   0.09195   0.44547   0.00000  Uiso   1.00
H166   H     0.68343   0.19338   0.21483   0.00000  Uiso   1.00
H167   H     0.92885   0.04419   0.03122   0.00000  Uiso   1.00
H168   H     0.96710   0.08626   0.02643   0.00000  Uiso   1.00
H169   H     0.74128   0.24313   0.39254   0.00000  Uiso   1.00
H170   H     0.71956   0.19293   0.38259   0.00000  Uiso   1.00
H171   H     0.73045   0.11076   0.07193   0.00000  Uiso   1.00
H172   H     0.73668   0.15846   0.09664   0.00000  Uiso   1.00
H173   H     0.98472   0.14023   0.28528   0.00000  Uiso   1.00
H174   H     0.87470   0.00276   0.21592   0.00000  Uiso   1.00
H175   H     0.79079   0.33222   0.28437   0.00000  Uiso   1.00
H176   H     0.70803   0.20306   0.47784   0.00000  Uiso   1.00
H177   H     0.85469   0.16997   0.40254   0.00000  Uiso   1.00
H178   H     0.88110   0.12932   0.42612   0.00000  Uiso   1.00
H179   H     0.68317   0.15592   0.02647   0.00000  Uiso   1.00
H180   H     0.69920   0.20519   0.04454   0.00000  Uiso   1.00
N181   N     0.70362   0.17365   0.04205   0.00000  Uiso   1.00
N182   N     0.93808   0.07333   0.02026   0.00000  Uiso   1.00
N183   N     0.72632   0.21545   0.40468   0.00000  Uiso   1.00
N184   N     0.75328   0.13576   0.07655   0.00000  Uiso   1.00
O185   O     0.83333   0.16667   0.25000   0.00000  Uiso   1.00
O186   O     0.82360   0.12393   0.16625   0.00000  Uiso   1.00
O187   O     0.79354   0.20646   0.33749   0.00000  Uiso   1.00
O188   O     0.87755   0.17493   0.15877   0.00000  Uiso   1.00
O189   O     0.83865   0.16135   0.33749   0.00000  Uiso   1.00
O190   O     0.84515   0.08101   0.27820   0.00000  Uiso   1.00
O191   O     0.81247   0.26136   0.26767   0.00000  Uiso   1.00
O192   O     0.74119   0.13251   0.23607   0.00000  Uiso   1.00
O193   O     0.93452   0.19179   0.21805   0.00000  Uiso   1.00
O194   O     0.73656   0.18960   0.27820   0.00000  Uiso   1.00
O195   O     0.92106   0.15277   0.26767   0.00000  Uiso   1.00
O196   O     0.80467   0.06903   0.23607   0.00000  Uiso   1.00
O197   O     0.87104   0.25527   0.21805   0.00000  Uiso   1.00
Zn198  Zn    0.85910   0.14090   0.28277   0.00000  Uiso   1.00
Zn199  Zn    0.80125   0.12378   0.22257   0.00000  Uiso   1.00
Zn200  Zn    0.87833   0.19664   0.21188   0.00000  Uiso   1.00
Zn201  Zn    0.79465   0.20535   0.28277   0.00000  Uiso   1.00
C202   C     0.05248   0.49321   0.25878   0.00000  Uiso   1.00
C203   C     0.20352   0.46567   0.45789   0.00000  Uiso   1.00
C204   C     0.22720   0.44764   0.47687   0.00000  Uiso   1.00
C205   C     0.28108   0.50688   0.24120   0.00000  Uiso   1.00
C206   C     0.21569   0.45064   0.01868   0.00000  Uiso   1.00
C207   C     0.17979   0.47253   0.04014   0.00000  Uiso   1.00
C208   C     0.23876   0.43350   0.04002   0.00000  Uiso   1.00
C209   C     0.22848   0.44169   0.08139   0.00000  Uiso   1.00
C210   C     0.17544   0.48637   0.08043   0.00000  Uiso   1.00
C211   C     0.32704   0.50951   0.23760   0.00000  Uiso   1.00
C212   C     0.00710   0.49080   0.26222   0.00000  Uiso   1.00
C213   C     0.08827   0.53366   0.42211   0.00000  Uiso   1.00
C214   C     0.18093   0.65549   0.23808   0.00000  Uiso   1.00
C215   C     0.15161   0.34541   0.26215   0.00000  Uiso   1.00
C216   C     0.15595   0.38942   0.25890   0.00000  Uiso   1.00
C217   C     0.17687   0.61102   0.24134   0.00000  Uiso   1.00
C218   C     0.18811   0.47872   0.14397   0.00000  Uiso   1.00
C219   C     0.14464   0.52040   0.35644   0.00000  Uiso   1.00
C220   C     0.12965   0.52271   0.40011   0.00000  Uiso   1.00
C221   C     0.19782   0.46902   0.10119   0.00000  Uiso   1.00
C222   C     0.07339   0.52821   0.46216   0.00000  Uiso   1.00
C223   C     0.15563   0.50847   0.41961   0.00000  Uiso   1.00
C224   C     0.14024   0.50102   0.45969   0.00000  Uiso   1.00
C225   C     0.09824   0.51108   0.48116   0.00000  Uiso   1.00
C226   C     0.16544   0.48365   0.47885   0.00000  Uiso   1.00
C227   C     0.15092   0.48217   0.02017   0.00000  Uiso   1.00
C228   C     0.10676   0.48616   0.03958   0.00000  Uiso   1.00
C229   C     0.08101   0.50186   0.02067   0.00000  Uiso   1.00
Cl230  Cl    0.15017   0.53188   0.10310   0.00000  Uiso   1.00
Cl231  Cl    0.25596   0.41930   0.10827   0.00000  Uiso   1.00
Cl232  Cl    0.27299   0.42529   0.44547   0.00000  Uiso   1.00
H233   H     0.01676   0.52671   0.21483   0.00000  Uiso   1.00
H234   H     0.26219   0.37752   0.03122   0.00000  Uiso   1.00
H235   H     0.30043   0.41960   0.02643   0.00000  Uiso   1.00
H236   H     0.07461   0.57647   0.39254   0.00000  Uiso   1.00
H237   H     0.05289   0.52626   0.38259   0.00000  Uiso   1.00
H238   H     0.06379   0.44410   0.07193   0.00000  Uiso   1.00
H239   H     0.07001   0.49180   0.09664   0.00000  Uiso   1.00
H240   H     0.31805   0.47356   0.28528   0.00000  Uiso   1.00
H241   H     0.20804   0.33610   0.21592   0.00000  Uiso   1.00
H242   H     0.12412   0.66555   0.28437   0.00000  Uiso   1.00
H243   H     0.04136   0.53639   0.47784   0.00000  Uiso   1.00
H244   H     0.18803   0.50331   0.40254   0.00000  Uiso   1.00
H245   H     0.21444   0.46265   0.42612   0.00000  Uiso   1.00
H246   H     0.01650   0.48925   0.02647   0.00000  Uiso   1.00
H247   H     0.03254   0.53853   0.04454   0.00000  Uiso   1.00
N248   N     0.03695   0.50698   0.04205   0.00000  Uiso   1.00
N249   N     0.27141   0.40666   0.02026   0.00000  Uiso   1.00
N250   N     0.05966   0.54878   0.40468   0.00000  Uiso   1.00
N251   N     0.08661   0.46909   0.07655   0.00000  Uiso   1.00
O252   O     0.16667   0.50000   0.25000   0.00000  Uiso   1.00
O253   O     0.15693   0.45726   0.16625   0.00000  Uiso   1.00
O254   O     0.12687   0.53979   0.33749   0.00000  Uiso   1.00
O255   O     0.21088   0.50826   0.15877   0.00000  Uiso   1.00
O256   O     0.17198   0.49468   0.33749   0.00000  Uiso   1.00
O257   O     0.17849   0.41434   0.27820   0.00000  Uiso   1.00
O258   O     0.14581   0.59469   0.26767   0.00000  Uiso   1.00
O259   O     0.07452   0.46584   0.23607   0.00000  Uiso   1.00
O260   O     0.26785   0.52512   0.21805   0.00000  Uiso   1.00
O261   O     0.06990   0.52293   0.27820   0.00000  Uiso   1.00
O262   O     0.25440   0.48610   0.26767   0.00000  Uiso   1.00
O263   O     0.13800   0.40236   0.23607   0.00000  Uiso   1.00
O264   O     0.20437   0.58860   0.21805   0.00000  Uiso   1.00
Zn265  Zn    0.19244   0.47423   0.28277   0.00000  Uiso   1.00
Zn266  Zn    0.13459   0.45711   0.22257   0.00000  Uiso   1.00
Zn267  Zn    0.21166   0.52997   0.21188   0.00000  Uiso   1.00
Zn268  Zn    0.12798   0.53868   0.28277   0.00000  Uiso   1.00
C269   C     0.38581   0.49321   0.25878   0.00000  Uiso   1.00
C270   C     0.53685   0.46567   0.45789   0.00000  Uiso   1.00
C271   C     0.56053   0.44764   0.47687   0.00000  Uiso   1.00
C272   C     0.61441   0.50688   0.24120   0.00000  Uiso   1.00
C273   C     0.54902   0.45064   0.01868   0.00000  Uiso   1.00
C274   C     0.51312   0.47253   0.04014   0.00000  Uiso   1.00
C275   C     0.57209   0.43350   0.04002   0.00000  Uiso   1.00
C276   C     0.56181   0.44169   0.08139   0.00000  Uiso   1.00
C277   C     0.50877   0.48637   0.08043   0.00000  Uiso   1.00
C278   C     0.66038   0.50951   0.23760   0.00000  Uiso   1.00
C279   C     0.34043   0.49080   0.26222   0.00000  Uiso   1.00
C280   C     0.42161   0.53366   0.42211   0.00000  Uiso   1.00
C281   C     0.51427   0.65549   0.23808   0.00000  Uiso   1.00
C282   C     0.48494   0.34541   0.26215   0.00000  Uiso   1.00
C283   C     0.48929   0.38942   0.25890   0.00000  Uiso   1.00
C284   C     0.51021   0.61102   0.24134   0.00000  Uiso   1.00
C285   C     0.52144   0.47872   0.14397   0.00000  Uiso   1.00
C286   C     0.47798   0.52040   0.35644   0.00000  Uiso   1.00
C287   C     0.46299   0.52271   0.40011   0.00000  Uiso   1.00
C288   C     0.53115   0.46902   0.10119   0.00000  Uiso   1.00
C289   C     0.40672   0.52821   0.46216   0.00000  Uiso   1.00
C290   C     0.48896   0.50847   0.41961   0.00000  Uiso   1.00
C291   C     0.47358   0.50102   0.45969   0.00000  Uiso   1.00
C292   C     0.43157   0.51108   0.48116   0.00000  Uiso   1.00
C293   C     0.49877   0.48365   0.47885   0.00000  Uiso   1.00
C294   C     0.48425   0.48217   0.02017   0.00000  Uiso   1.00
C295   C     0.44009   0.48616   0.03958   0.00000  Uiso   1.00
C296   C     0.41435   0.50186   0.02067   0.00000  Uiso   1.00
Cl297  Cl    0.48350   0.53188   0.10310   0.00000  Uiso   1.00
Cl298  Cl    0.58929   0.41930   0.10827   0.00000  Uiso   1.00
Cl299  Cl    0.60633   0.42529   0.44547   0.00000  Uiso   1.00
H300   H     0.35010   0.52671   0.21483   0.00000  Uiso   1.00
H301   H     0.59552   0.37752   0.03122   0.00000  Uiso   1.00
H302   H     0.63377   0.41960   0.02643   0.00000  Uiso   1.00
H303   H     0.40795   0.57647   0.39254   0.00000  Uiso   1.00
H304   H     0.38623   0.52626   0.38259   0.00000  Uiso   1.00
H305   H     0.39712   0.44410   0.07193   0.00000  Uiso   1.00
H306   H     0.40335   0.49180   0.09664   0.00000  Uiso   1.00
H307   H     0.65138   0.47356   0.28528   0.00000  Uiso   1.00
H308   H     0.54137   0.33610   0.21592   0.00000  Uiso   1.00
H309   H     0.45746   0.66555   0.28437   0.00000  Uiso   1.00
H310   H     0.37470   0.53639   0.47784   0.00000  Uiso   1.00
H311   H     0.52136   0.50331   0.40254   0.00000  Uiso   1.00
H312   H     0.54777   0.46265   0.42612   0.00000  Uiso   1.00
H313   H     0.34984   0.48925   0.02647   0.00000  Uiso   1.00
H314   H     0.36587   0.53853   0.04454   0.00000  Uiso   1.00
N315   N     0.37029   0.50698   0.04205   0.00000  Uiso   1.00
N316   N     0.60475   0.40666   0.02026   0.00000  Uiso   1.00
N317   N     0.39299   0.54878   0.40468   0.00000  Uiso   1.00
N318   N     0.41995   0.46909   0.07655   0.00000  Uiso   1.00
O319   O     0.50000   0.50000   0.25000   0.00000  Uiso   1.00
O320   O     0.49027   0.45726   0.16625   0.00000  Uiso   1.00
O321   O     0.46020   0.53979   0.33749   0.00000  Uiso   1.00
O322   O     0.54421   0.50826   0.15877   0.00000  Uiso   1.00
O323   O     0.50532   0.49468   0.33749   0.00000  Uiso   1.00
O324   O     0.51182   0.41434   0.27820   0.00000  Uiso   1.00
O325   O     0.47914   0.59469   0.26767   0.00000  Uiso   1.00
O326   O     0.40785   0.46584   0.23607   0.00000  Uiso   1.00
O327   O     0.60119   0.52512   0.21805   0.00000  Uiso   1.00
O328   O     0.40323   0.52293   0.27820   0.00000  Uiso   1.00
O329   O     0.58773   0.48610   0.26767   0.00000  Uiso   1.00
O330   O     0.47133   0.40236   0.23607   0.00000  Uiso   1.00
O331   O     0.53771   0.58860   0.21805   0.00000  Uiso   1.00
Zn332  Zn    0.52577   0.47423   0.28277   0.00000  Uiso   1.00
Zn333  Zn    0.46792   0.45711   0.22257   0.00000  Uiso   1.00
Zn334  Zn    0.54500   0.52997   0.21188   0.00000  Uiso   1.00
Zn335  Zn    0.46131   0.53868   0.28277   0.00000  Uiso   1.00
C336   C     0.71914   0.49321   0.25878   0.00000  Uiso   1.00
C337   C     0.87019   0.46567   0.45789   0.00000  Uiso   1.00
C338   C     0.89386   0.44764   0.47687   0.00000  Uiso   1.00
C339   C     0.94774   0.50688   0.24120   0.00000  Uiso   1.00
C340   C     0.88235   0.45064   0.01868   0.00000  Uiso   1.00
C341   C     0.84645   0.47253   0.04014   0.00000  Uiso   1.00
C342   C     0.90543   0.43350   0.04002   0.00000  Uiso   1.00
C343   C     0.89515   0.44169   0.08139   0.00000  Uiso   1.00
C344   C     0.84210   0.48637   0.08043   0.00000  Uiso   1.00
C345   C     0.99371   0.50951   0.23760   0.00000  Uiso   1.00
C346   C     0.67377   0.49080   0.26222   0.00000  Uiso   1.00
C347   C     0.75494   0.53366   0.42211   0.00000  Uiso   1.00
C348   C     0.84760   0.65549   0.23808   0.00000  Uiso   1.00
C349   C     0.81827   0.34541   0.26215   0.00000  Uiso   1.00
C350   C     0.82262   0.38942   0.25890   0.00000  Uiso   1.00
C351   C     0.84354   0.61102   0.24134   0.00000  Uiso   1.00
C352   C     0.85477   0.47872   0.14397   0.00000  Uiso   1.00
C353   C     0.81131   0.52040   0.35644   0.00000  Uiso   1.00
C354   C     0.79632   0.52271   0.40011   0.00000  Uiso   1.00
C355   C     0.86449   0.46902   0.10119   0.00000  Uiso   1.00
C356   C     0.74006   0.52821   0.46216   0.00000  Uiso   1.00
C357   C     0.82229   0.50847   0.41961   0.00000  Uiso   1.00
C358   C     0.80691   0.50102   0.45969   0.00000  Uiso   1.00
C359   C     0.76491   0.51108   0.48116   0.00000  Uiso   1.00
C360   C     0.83211   0.48365   0.47885   0.00000  Uiso   1.00
C361   C     0.81758   0.48217   0.02017   0.00000  Uiso   1.00
C362   C     0.77342   0.48616   0.03958   0.00000  Uiso   1.00
C363   C     0.74768   0.50186   0.02067   0.00000  Uiso   1.00
Cl364  Cl    0.81683   0.53188   0.10310   0.00000  Uiso   1.00
Cl365  Cl    0.92262   0.41930   0.10827   0.00000  Uiso   1.00
Cl366  Cl    0.93966   0.42529   0.44547   0.00000  Uiso   1.00
H367   H     0.68343   0.52671   0.21483   0.00000  Uiso   1.00
H368   H     0.92885   0.37752   0.03122   0.00000  Uiso   1.00
H369   H     0.96710   0.41960   0.02643   0.00000  Uiso   1.00
H370   H     0.74128   0.57647   0.39254   0.00000  Uiso   1.00
H371   H     0.71956   0.52626   0.38259   0.00000  Uiso   1.00
H372   H     0.73045   0.44410   0.07193   0.00000  Uiso   1.00
H373   H     0.73668   0.49180   0.09664   0.00000  Uiso   1.00
H374   H     0.98472   0.47356   0.28528   0.00000  Uiso   1.00
H375   H     0.87470   0.33610   0.21592   0.00000  Uiso   1.00
H376   H     0.79079   0.66555   0.28437   0.00000  Uiso   1.00
H377   H     0.70803   0.53639   0.47784   0.00000  Uiso   1.00
H378   H     0.85469   0.50331   0.40254   0.00000  Uiso   1.00
H379   H     0.88110   0.46265   0.42612   0.00000  Uiso   1.00
H380   H     0.68317   0.48925   0.02647   0.00000  Uiso   1.00
H381   H     0.69920   0.53853   0.04454   0.00000  Uiso   1.00
N382   N     0.70362   0.50698   0.04205   0.00000  Uiso   1.00
N383   N     0.93808   0.40666   0.02026   0.00000  Uiso   1.00
N384   N     0.72632   0.54878   0.40468   0.00000  Uiso   1.00
N385   N     0.75328   0.46909   0.07655   0.00000  Uiso   1.00
O386   O     0.83333   0.50000   0.25000   0.00000  Uiso   1.00
O387   O     0.82360   0.45726   0.16625   0.00000  Uiso   1.00
O388   O     0.79354   0.53979   0.33749   0.00000  Uiso   1.00
O389   O     0.87755   0.50826   0.15877   0.00000  Uiso   1.00
O390   O     0.83865   0.49468   0.33749   0.00000  Uiso   1.00
O391   O     0.84515   0.41434   0.27820   0.00000  Uiso   1.00
O392   O     0.81247   0.59469   0.26767   0.00000  Uiso   1.00
O393   O     0.74119   0.46584   0.23607   0.00000  Uiso   1.00
O394   O     0.93452   0.52512   0.21805   0.00000  Uiso   1.00
O395   O     0.73656   0.52293   0.27820   0.00000  Uiso   1.00
O396   O     0.92106   0.48610   0.26767   0.00000  Uiso   1.00
O397   O     0.80467   0.40236   0.23607   0.00000  Uiso   1.00
O398   O     0.87104   0.58860   0.21805   0.00000  Uiso   1.00
Zn399  Zn    0.85910   0.47423   0.28277   0.00000  Uiso   1.00
Zn400  Zn    0.80125   0.45711   0.22257   0.00000  Uiso   1.00
Zn401  Zn    0.87833   0.52997   0.21188   0.00000  Uiso   1.00
Zn402  Zn    0.79465   0.53868   0.28277   0.00000  Uiso   1.00
C403   C     0.05248   0.82654   0.25878   0.00000  Uiso   1.00
C404   C     0.20352   0.79900   0.45789   0.00000  Uiso   1.00
C405   C     0.22720   0.78098   0.47687   0.00000  Uiso   1.00
C406   C     0.28108   0.84022   0.24120   0.00000  Uiso   1.00
C407   C     0.21569   0.78397   0.01868   0.00000  Uiso   1.00
C408   C     0.17979   0.80586   0.04014   0.00000  Uiso   1.00
C409   C     0.23876   0.76684   0.04002   0.00000  Uiso   1.00
C410   C     0.22848   0.77503   0.08139   0.00000  Uiso   1.00
C411   C     0.17544   0.81971   0.08043   0.00000  Uiso   1.00
C412   C     0.32704   0.84284   0.23760   0.00000  Uiso   1.00
C413   C     0.00710   0.82413   0.26222   0.00000  Uiso   1.00
C414   C     0.08827   0.86699   0.42211   0.00000  Uiso   1.00
C415   C     0.18093   0.98882   0.23808   0.00000  Uiso   1.00
C416   C     0.15161   0.67874   0.26215   0.00000  Uiso   1.00
C417   C     0.15595   0.72275   0.25890   0.00000  Uiso   1.00
C418   C     0.17687   0.94435   0.24134   0.00000  Uiso   1.00
C419   C     0.18811   0.81205   0.14397   0.00000  Uiso   1.00
C420   C     0.14464   0.85373   0.35644   0.00000  Uiso   1.00
C421   C     0.12965   0.85605   0.40011   0.00000  Uiso   1.00
C422   C     0.19782   0.80236   0.10119   0.00000  Uiso   1.00
C423   C     0.07339   0.86155   0.46216   0.00000  Uiso   1.00
C424   C     0.15563   0.84180   0.41961   0.00000  Uiso   1.00
C425   C     0.14024   0.83436   0.45969   0.00000  Uiso   1.00
C426   C     0.09824   0.84442   0.48116   0.00000  Uiso   1.00
C427   C     0.16544   0.81699   0.47885   0.00000  Uiso   1.00
C428   C     0.15092   0.81551   0.02017   0.00000  Uiso   1.00
C429   C     0.10676   0.81949   0.03958   0.00000  Uiso   1.00
C430   C     0.08101   0.83519   0.02067   0.00000  Uiso   1.00
Cl431  Cl    0.15017   0.86521   0.10310   0.00000  Uiso   1.00
Cl432  Cl    0.25596   0.75263   0.10827   0.00000  Uiso   1.00
Cl433  Cl    0.27299   0.75862   0.44547   0.00000  Uiso   1.00
H434   H     0.01676   0.86005   0.21483   0.00000  Uiso   1.00
H435   H     0.26219   0.71085   0.03122   0.00000  Uiso   1.00
H436   H     0.30043   0.75293   0.02643   0.00000  Uiso   1.00
H437   H     0.07461   0.90980   0.39254   0.00000  Uiso   1.00
H438   H     0.05289   0.85960   0.38259   0.00000  Uiso   1.00
H439   H     0.06379   0.77743   0.07193   0.00000  Uiso   1.00
H440   H     0.07001   0.82513   0.09664   0.00000  Uiso   1.00
H441   H     0.31805   0.80689   0.28528   0.00000  Uiso   1.00
H442   H     0.20804   0.66943   0.21592   0.00000  Uiso   1.00
H443   H     0.12412   0.99889   0.28437   0.00000  Uiso   1.00
H444   H     0.04136   0.86972   0.47784   0.00000  Uiso   1.00
H445   H     0.18803   0.83664   0.40254   0.00000  Uiso   1.00
H446   H     0.21444   0.79599   0.42612   0.00000  Uiso   1.00
H447   H     0.01650   0.82258   0.02647   0.00000  Uiso   1.00
H448   H     0.03254   0.87186   0.04454   0.00000  Uiso   1.00
N449   N     0.03695   0.84032   0.04205   0.00000  Uiso   1.00
N450   N     0.27141   0.73999   0.02026   0.00000  Uiso   1.00
N451   N     0.05966   0.88211   0.40468   0.00000  Uiso   1.00
N452   N     0.08661   0.80243   0.07655   0.00000  Uiso   1.00
O453   O     0.16667   0.83333   0.25000   0.00000  Uiso   1.00
O454   O     0.15693   0.79060   0.16625   0.00000  Uiso   1.00
O455   O     0.12687   0.87313   0.33749   0.00000  Uiso   1.00
O456   O     0.21088   0.84159   0.15877   0.00000  Uiso   1.00
O457   O     0.17198   0.82802   0.33749   0.00000  Uiso   1.00
O458   O     0.17849   0.74768   0.27820   0.00000  Uiso   1.00
O459   O     0.14581   0.92803   0.26767   0.00000  Uiso   1.00
O460   O     0.07452   0.79917   0.23607   0.00000  Uiso   1.00
O461   O     0.26785   0.85845   0.21805   0.00000  Uiso   1.00
O462   O     0.06990   0.85627   0.27820   0.00000  Uiso   1.00
O463   O     0.25440   0.81944   0.26767   0.00000  Uiso   1.00
O464   O     0.13800   0.73570   0.23607   0.00000  Uiso   1.00
O465   O     0.20437   0.92193   0.21805   0.00000  Uiso   1.00
Zn466  Zn    0.19244   0.80756   0.28277   0.00000  Uiso   1.00
Zn467  Zn    0.13459   0.79044   0.22257   0.00000  Uiso   1.00
Zn468  Zn    0.21166   0.86331   0.21188   0.00000  Uiso   1.00
Zn469  Zn    0.12798   0.87202   0.28277   0.00000  Uiso   1.00
C470   C     0.38581   0.82654   0.25878   0.00000  Uiso   1.00
C471   C     0.53685   0.79900   0.45789   0.00000  Uiso   1.00
C472   C     0.56053   0.78098   0.47687   0.00000  Uiso   1.00
C473   C     0.61441   0.84022   0.24120   0.00000  Uiso   1.00
C474   C     0.54902   0.78397   0.01868   0.00000  Uiso   1.00
C475   C     0.51312   0.80586   0.04014   0.00000  Uiso   1.00
C476   C     0.57209   0.76684   0.04002   0.00000  Uiso   1.00
C477   C     0.56181   0.77503   0.08139   0.00000  Uiso   1.00
C478   C     0.50877   0.81971   0.08043   0.00000  Uiso   1.00
C479   C     0.66038   0.84284   0.23760   0.00000  Uiso   1.00
C480   C     0.34043   0.82413   0.26222   0.00000  Uiso   1.00
C481   C     0.42161   0.86699   0.42211   0.00000  Uiso   1.00
C482   C     0.51427   0.98882   0.23808   0.00000  Uiso   1.00
C483   C     0.48494   0.67874   0.26215   0.00000  Uiso   1.00
C484   C     0.48929   0.72275   0.25890   0.00000  Uiso   1.00
C485   C     0.51021   0.94435   0.24134   0.00000  Uiso   1.00
C486   C     0.52144   0.81205   0.14397   0.00000  Uiso   1.00
C487   C     0.47798   0.85373   0.35644   0.00000  Uiso   1.00
C488   C     0.46299   0.85605   0.40011   0.00000  Uiso   1.00
C489   C     0.53115   0.80236   0.10119   0.00000  Uiso   1.00
C490   C     0.40672   0.86155   0.46216   0.00000  Uiso   1.00
C491   C     0.48896   0.84180   0.41961   0.00000  Uiso   1.00
C492   C     0.47358   0.83436   0.45969   0.00000  Uiso   1.00
C493   C     0.43157   0.84442   0.48116   0.00000  Uiso   1.00
C494   C     0.49877   0.81699   0.47885   0.00000  Uiso   1.00
C495   C     0.48425   0.81551   0.02017   0.00000  Uiso   1.00
C496   C     0.44009   0.81949   0.03958   0.00000  Uiso   1.00
C497   C     0.41435   0.83519   0.02067   0.00000  Uiso   1.00
Cl498  Cl    0.48350   0.86521   0.10310   0.00000  Uiso   1.00
Cl499  Cl    0.58929   0.75263   0.10827   0.00000  Uiso   1.00
Cl500  Cl    0.60633   0.75862   0.44547   0.00000  Uiso   1.00
H501   H     0.35010   0.86005   0.21483   0.00000  Uiso   1.00
H502   H     0.59552   0.71085   0.03122   0.00000  Uiso   1.00
H503   H     0.63377   0.75293   0.02643   0.00000  Uiso   1.00
H504   H     0.40795   0.90980   0.39254   0.00000  Uiso   1.00
H505   H     0.38623   0.85960   0.38259   0.00000  Uiso   1.00
H506   H     0.39712   0.77743   0.07193   0.00000  Uiso   1.00
H507   H     0.40335   0.82513   0.09664   0.00000  Uiso   1.00
H508   H     0.65138   0.80689   0.28528   0.00000  Uiso   1.00
H509   H     0.54137   0.66943   0.21592   0.00000  Uiso   1.00
H510   H     0.45746   0.99889   0.28437   0.00000  Uiso   1.00
H511   H     0.37470   0.86972   0.47784   0.00000  Uiso   1.00
H512   H     0.52136   0.83664   0.40254   0.00000  Uiso   1.00
H513   H     0.54777   0.79599   0.42612   0.00000  Uiso   1.00
H514   H     0.34984   0.82258   0.02647   0.00000  Uiso   1.00
H515   H     0.36587   0.87186   0.04454   0.00000  Uiso   1.00
N516   N     0.37029   0.84032   0.04205   0.00000  Uiso   1.00
N517   N     0.60475   0.73999   0.02026   0.00000  Uiso   1.00
N518   N     0.39299   0.88211   0.40468   0.00000  Uiso   1.00
N519   N     0.41995   0.80243   0.07655   0.00000  Uiso   1.00
O520   O     0.50000   0.83333   0.25000   0.00000  Uiso   1.00
O521   O     0.49027   0.79060   0.16625   0.00000  Uiso   1.00
O522   O     0.46020   0.87313   0.33749   0.00000  Uiso   1.00
O523   O     0.54421   0.84159   0.15877   0.00000  Uiso   1.00
O524   O     0.50532   0.82802   0.33749   0.00000  Uiso   1.00
O525   O     0.51182   0.74768   0.27820   0.00000  Uiso   1.00
O526   O     0.47914   0.92803   0.26767   0.00000  Uiso   1.00
O527   O     0.40785   0.79917   0.23607   0.00000  Uiso   1.00
O528   O     0.60119   0.85845   0.21805   0.00000  Uiso   1.00
O529   O     0.40323   0.85627   0.27820   0.00000  Uiso   1.00
O530   O     0.58773   0.81944   0.26767   0.00000  Uiso   1.00
O531   O     0.47133   0.73570   0.23607   0.00000  Uiso   1.00
O532   O     0.53771   0.92193   0.21805   0.00000  Uiso   1.00
Zn533  Zn    0.52577   0.80756   0.28277   0.00000  Uiso   1.00
Zn534  Zn    0.46792   0.79044   0.22257   0.00000  Uiso   1.00
Zn535  Zn    0.54500   0.86331   0.21188   0.00000  Uiso   1.00
Zn536  Zn    0.46131   0.87202   0.28277   0.00000  Uiso   1.00
C537   C     0.71914   0.82654   0.25878   0.00000  Uiso   1.00
C538   C     0.87019   0.79900   0.45789   0.00000  Uiso   1.00
C539   C     0.89386   0.78098   0.47687   0.00000  Uiso   1.00
C540   C     0.94774   0.84022   0.24120   0.00000  Uiso   1.00
C541   C     0.88235   0.78397   0.01868   0.00000  Uiso   1.00
C542   C     0.84645   0.80586   0.04014   0.00000  Uiso   1.00
C543   C     0.90543   0.76684   0.04002   0.00000  Uiso   1.00
C544   C     0.89515   0.77503   0.08139   0.00000  Uiso   1.00
C545   C     0.84210   0.81971   0.08043   0.00000  Uiso   1.00
C546   C     0.99371   0.84284   0.23760   0.00000  Uiso   1.00
C547   C     0.67377   0.82413   0.26222   0.00000  Uiso   1.00
C548   C     0.75494   0.86699   0.42211   0.00000  Uiso   1.00
C549   C     0.84760   0.98882   0.23808   0.00000  Uiso   1.00
C550   C     0.81827   0.67874   0.26215   0.00000  Uiso   1.00
C551   C     0.82262   0.72275   0.25890   0.00000  Uiso   1.00
C552   C     0.84354   0.94435   0.24134   0.00000  Uiso   1.00
C553   C     0.85477   0.81205   0.14397   0.00000  Uiso   1.00
C554   C     0.81131   0.85373   0.35644   0.00000  Uiso   1.00
C555   C     0.79632   0.85605   0.40011   0.00000  Uiso   1.00
C556   C     0.86449   0.80236   0.10119   0.00000  Uiso   1.00
C557   C     0.74006   0.86155   0.46216   0.00000  Uiso   1.00
C558   C     0.82229   0.84180   0.41961   0.00000  Uiso   1.00
C559   C     0.80691   0.83436   0.45969   0.00000  Uiso   1.00
C560   C     0.76491   0.84442   0.48116   0.00000  Uiso   1.00
C561   C     0.83211   0.81699   0.47885   0.00000  Uiso   1.00
C562   C     0.81758   0.81551   0.02017   0.00000  Uiso   1.00
C563   C     0.77342   0.81949   0.03958   0.00000  Uiso   1.00
C564   C     0.74768   0.83519   0.02067   0.00000  Uiso   1.00
Cl565  Cl    0.81683   0.86521   0.10310   0.00000  Uiso   1.00
Cl566  Cl    0.92262   0.75263   0.10827   0.00000  Uiso   1.00
Cl567  Cl    0.93966   0.75862   0.44547   0.00000  Uiso   1.00
H568   H     0.68343   0.86005   0.21483   0.00000  Uiso   1.00
H569   H     0.92885   0.71085   0.03122   0.00000  Uiso   1.00
H570   H     0.96710   0.75293   0.02643   0.00000  Uiso   1.00
H571   H     0.74128   0.90980   0.39254   0.00000  Uiso   1.00
H572   H     0.71956   0.85960   0.38259   0.00000  Uiso   1.00
H573   H     0.73045   0.77743   0.07193   0.00000  Uiso   1.00
H574   H     0.73668   0.82513   0.09664   0.00000  Uiso   1.00
H575   H     0.98472   0.80689   0.28528   0.00000  Uiso   1.00
H576   H     0.87470   0.66943   0.21592   0.00000  Uiso   1.00
H577   H     0.79079   0.99889   0.28437   0.00000  Uiso   1.00
H578   H     0.70803   0.86972   0.47784   0.00000  Uiso   1.00
H579   H     0.85469   0.83664   0.40254   0.00000  Uiso   1.00
H580   H     0.88110   0.79599   0.42612   0.00000  Uiso   1.00
H581   H     0.68317   0.82258   0.02647   0.00000  Uiso   1.00
H582   H     0.69920   0.87186   0.04454   0.00000  Uiso   1.00
N583   N     0.70362   0.84032   0.04205   0.00000  Uiso   1.00
N584   N     0.93808   0.73999   0.02026   0.00000  Uiso   1.00
N585   N     0.72632   0.88211   0.40468   0.00000  Uiso   1.00
N586   N     0.75328   0.80243   0.07655   0.00000  Uiso   1.00
O587   O     0.83333   0.83333   0.25000   0.00000  Uiso   1.00
O588   O     0.82360   0.79060   0.16625   0.00000  Uiso   1.00
O589   O     0.79354   0.87313   0.33749   0.00000  Uiso   1.00
O590   O     0.87755   0.84159   0.15877   0.00000  Uiso   1.00
O591   O     0.83865   0.82802   0.33749   0.00000  Uiso   1.00
O592   O     0.84515   0.74768   0.27820   0.00000  Uiso   1.00
O593   O     0.81247   0.92803   0.26767   0.00000  Uiso   1.00
O594   O     0.74119   0.79917   0.23607   0.00000  Uiso   1.00
O595   O     0.93452   0.85845   0.21805   0.00000  Uiso   1.00
O596   O     0.73656   0.85627   0.27820   0.00000  Uiso   1.00
O597   O     0.92106   0.81944   0.26767   0.00000  Uiso   1.00
O598   O     0.80467   0.73570   0.23607   0.00000  Uiso   1.00
O599   O     0.87104   0.92193   0.21805   0.00000  Uiso   1.00
Zn600  Zn    0.85910   0.80756   0.28277   0.00000  Uiso   1.00
Zn601  Zn    0.80125   0.79044   0.22257   0.00000  Uiso   1.00
Zn602  Zn    0.87833   0.86331   0.21188   0.00000  Uiso   1.00
Zn603  Zn    0.79465   0.87202   0.28277   0.00000  Uiso   1.00
C604   C     0.05248   0.15988   0.75878   0.00000  Uiso   1.00
C605   C     0.20352   0.13233   0.95789   0.00000  Uiso   1.00
C606   C     0.22720   0.11431   0.97687   0.00000  Uiso   1.00
C607   C     0.28108   0.17355   0.74120   0.00000  Uiso   1.00
C608   C     0.21569   0.11730   0.51868   0.00000  Uiso   1.00
C609   C     0.17979   0.13919   0.54014   0.00000  Uiso   1.00
C610   C     0.23876   0.10017   0.54002   0.00000  Uiso   1.00
C611   C     0.22848   0.10836   0.58139   0.00000  Uiso   1.00
C612   C     0.17544   0.15304   0.58043   0.00000  Uiso   1.00
C613   C     0.32704   0.17618   0.73760   0.00000  Uiso   1.00
C614   C     0.00710   0.15746   0.76222   0.00000  Uiso   1.00
C615   C     0.08827   0.20032   0.92211   0.00000  Uiso   1.00
C616   C     0.18093   0.32216   0.73808   0.00000  Uiso   1.00
C617   C     0.15161   0.01207   0.76215   0.00000  Uiso   1.00
C618   C     0.15595   0.05608   0.75890   0.00000  Uiso   1.00
C619   C     0.17687   0.27768   0.74134   0.00000  Uiso   1.00
C620   C     0.18811   0.14538   0.64397   0.00000  Uiso   1.00
C621   C     0.14464   0.18707   0.85644   0.00000  Uiso   1.00
C622   C     0.12965   0.18938   0.90011   0.00000  Uiso   1.00
C623   C     0.19782   0.13569   0.60119   0.00000  Uiso   1.00
C624   C     0.07339   0.19488   0.96216   0.00000  Uiso   1.00
C625   C     0.15563   0.17514   0.91961   0.00000  Uiso   1.00
C626   C     0.14024   0.16769   0.95969   0.00000  Uiso   1.00
C627   C     0.09824   0.17775   0.98116   0.00000  Uiso   1.00
C628   C     0.16544   0.15032   0.97885   0.00000  Uiso   1.00
C629   C     0.15092   0.14884   0.52017   0.00000  Uiso   1.00
C630   C     0.10676   0.15283   0.53958   0.00000  Uiso   1.00
C631   C     0.08101   0.16852   0.52067   0.00000  Uiso   1.00
Cl632  Cl    0.15017   0.19854   0.60310   0.00000  Uiso   1.00
Cl633  Cl    0.25596   0.08596   0.60827   0.00000  Uiso   1.00
Cl634  Cl    0.27299   0.09195   0.94547   0.00000  Uiso   1.00
H635   H     0.01676   0.19338   0.71483   0.00000  Uiso   1.00
H636   H     0.26219   0.04419   0.53122   0.00000  Uiso   1.00
H637   H     0.30043   0.08626   0.52643   0.00000  Uiso   1.00
H638   H     0.07461   0.24313   0.89254   0.00000  Uiso   1.00
H639   H     0.05289   0.19293   0.88259   0.00000  Uiso   1.00
H640   H     0.06379   0.11076   0.57193   0.00000  Uiso   1.00
H641   H     0.07001   0.15846   0.59664   0.00000  Uiso   1.00
H642   H     0.31805   0.14023   0.78528   0.00000  Uiso   1.00
H643   H     0.20804   0.00276   0.71592   0.00000  Uiso   1.00
H644   H     0.12412   0.33222   0.78437   0.00000  Uiso   1.00
H645   H     0.04136   0.20306   0.97784   0.00000  Uiso   1.00
H646   H     0.18803   0.16997   0.90254   0.00000  Uiso   1.00
H647   H     0.21444   0.12932   0.92612   0.00000  Uiso   1.00
H648   H     0.01650   0.15592   0.52647   0.00000  Uiso   1.00
H649   H     0.03254   0.20519   0.54454   0.00000  Uiso   1.00
N650   N     0.03695   0.17365   0.54205   0.00000  Uiso   1.00
N651   N     0.27141   0.07333   0.52026   0.00000  Uiso   1.00
N652   N     0.05966   0.21545   0.90468   0.00000  Uiso   1.00
N653   N     0.08661   0.13576   0.57655   0.00000  Uiso   1.00
O654   O     0.16667   0.16667   0.75000   0.00000  Uiso   1.00
O655   O     0.15693   0.12393   0.66625   0.00000  Uiso   1.00
O656   O     0.12687   0.20646   0.83749   0.00000  Uiso   1.00
O657   O     0.21088   0.17493   0.65877   0.00000  Uiso   1.00
O658   O     0.17198   0.16135   0.83749   0.00000  Uiso   1.00
O659   O     0.17849   0.08101   0.77820   0.00000  Uiso   1.00
O660   O     0.14581   0.26136   0.76767   0.00000  Uiso   1.00
O661   O     0.07452   0.13251   0.73607   0.00000  Uiso   1.00
O662   O     0.26785   0.19179   0.71805   0.00000  Uiso   1.00
O663   O     0.06990   0.18960   0.77820   0.00000  Uiso   1.00
O664   O     0.25440   0.15277   0.76767   0.00000  Uiso   1.00
O665   O     0.13800   0.06903   0.73607   0.00000  Uiso   1.00
O666   O     0.20437   0.25527   0.71805   0.00000  Uiso   1.00
Zn667  Zn    0.19244   0.14090   0.78277   0.00000  Uiso   1.00
Zn668  Zn    0.13459   0.12378   0.72257   0.00000  Uiso   1.00
Zn669  Zn    0.21166   0.19664   0.71188   0.00000  Uiso   1.00
Zn670  Zn    0.12798   0.20535   0.78277   0.00000  Uiso   1.00
C671   C     0.38581   0.15988   0.75878   0.00000  Uiso   1.00
C672   C     0.53685   0.13233   0.95789   0.00000  Uiso   1.00
C673   C     0.56053   0.11431   0.97687   0.00000  Uiso   1.00
C674   C     0.61441   0.17355   0.74120   0.00000  Uiso   1.00
C675   C     0.54902   0.11730   0.51868   0.00000  Uiso   1.00
C676   C     0.51312   0.13919   0.54014   0.00000  Uiso   1.00
C677   C     0.57209   0.10017   0.54002   0.00000  Uiso   1.00
C678   C     0.56181   0.10836   0.58139   0.00000  Uiso   1.00
C679   C     0.50877   0.15304   0.58043   0.00000  Uiso   1.00
C680   C     0.66038   0.17618   0.73760   0.00000  Uiso   1.00
C681   C     0.34043   0.15746   0.76222   0.00000  Uiso   1.00
C682   C     0.42161   0.20032   0.92211   0.00000  Uiso   1.00
C683   C     0.51427   0.32216   0.73808   0.00000  Uiso   1.00
C684   C     0.48494   0.01207   0.76215   0.00000  Uiso   1.00
C685   C     0.48929   0.05608   0.75890   0.00000  Uiso   1.00
C686   C     0.51021   0.27768   0.74134   0.00000  Uiso   1.00
C687   C     0.52144   0.14538   0.64397   0.00000  Uiso   1.00
C688   C     0.47798   0.18707   0.85644   0.00000  Uiso   1.00
C689   C     0.46299   0.18938   0.90011   0.00000  Uiso   1.00
C690   C     0.53115   0.13569   0.60119   0.00000  Uiso   1.00
C691   C     0.40672   0.19488   0.96216   0.00000  Uiso   1.00
C692   C     0.48896   0.17514   0.91961   0.00000  Uiso   1.00
C693   C     0.47358   0.16769   0.95969   0.00000  Uiso   1.00
C694   C     0.43157   0.17775   0.98116   0.00000  Uiso   1.00
C695   C     0.49877   0.15032   0.97885   0.00000  Uiso   1.00
C696   C     0.48425   0.14884   0.52017   0.00000  Uiso   1.00
C697   C     0.44009   0.15283   0.53958   0.00000  Uiso   1.00
C698   C     0.41435   0.16852   0.52067   0.00000  Uiso   1.00
Cl699  Cl    0.48350   0.19854   0.60310   0.00000  Uiso   1.00
Cl700  Cl    0.58929   0.08596   0.60827   0.00000  Uiso   1.00
Cl701  Cl    0.60633   0.09195   0.94547   0.00000  Uiso   1.00
H702   H     0.35010   0.19338   0.71483   0.00000  Uiso   1.00
H703   H     0.59552   0.04419   0.53122   0.00000  Uiso   1.00
H704   H     0.63377   0.08626   0.52643   0.00000  Uiso   1.00
H705   H     0.40795   0.24313   0.89254   0.00000  Uiso   1.00
H706   H     0.38623   0.19293   0.88259   0.00000  Uiso   1.00
H707   H     0.39712   0.11076   0.57193   0.00000  Uiso   1.00
H708   H     0.40335   0.15846   0.59664   0.00000  Uiso   1.00
H709   H     0.65138   0.14023   0.78528   0.00000  Uiso   1.00
H710   H     0.54137   0.00276   0.71592   0.00000  Uiso   1.00
H711   H     0.45746   0.33222   0.78437   0.00000  Uiso   1.00
H712   H     0.37470   0.20306   0.97784   0.00000  Uiso   1.00
H713   H     0.52136   0.16997   0.90254   0.00000  Uiso   1.00
H714   H     0.54777   0.12932   0.92612   0.00000  Uiso   1.00
H715   H     0.34984   0.15592   0.52647   0.00000  Uiso   1.00
H716   H     0.36587   0.20519   0.54454   0.00000  Uiso   1.00
N717   N     0.37029   0.17365   0.54205   0.00000  Uiso   1.00
N718   N     0.60475   0.07333   0.52026   0.00000  Uiso   1.00
N719   N     0.39299   0.21545   0.90468   0.00000  Uiso   1.00
N720   N     0.41995   0.13576   0.57655   0.00000  Uiso   1.00
O721   O     0.50000   0.16667   0.75000   0.00000  Uiso   1.00
O722   O     0.49027   0.12393   0.66625   0.00000  Uiso   1.00
O723   O     0.46020   0.20646   0.83749   0.00000  Uiso   1.00
O724   O     0.54421   0.17493   0.65877   0.00000  Uiso   1.00
O725   O     0.50532   0.16135   0.83749   0.00000  Uiso   1.00
O726   O     0.51182   0.08101   0.77820   0.00000  Uiso   1.00
O727   O     0.47914   0.26136   0.76767   0.00000  Uiso   1.00
O728   O     0.40785   0.13251   0.73607   0.00000  Uiso   1.00
O729   O     0.60119   0.19179   0.71805   0.00000  Uiso   1.00
O730   O     0.40323   0.18960   0.77820   0.00000  Uiso   1.00
O731   O     0.58773   0.15277   0.76767   0.00000  Uiso   1.00
O732   O     0.47133   0.06903   0.73607   0.00000  Uiso   1.00
O733   O     0.53771   0.25527   0.71805   0.00000  Uiso   1.00
Zn734  Zn    0.52577   0.14090   0.78277   0.00000  Uiso   1.00
Zn735  Zn    0.46792   0.12378   0.72257   0.00000  Uiso   1.00
Zn736  Zn    0.54500   0.19664   0.71188   0.00000  Uiso   1.00
Zn737  Zn    0.46131   0.20535   0.78277   0.00000  Uiso   1.00
C738   C     0.71914   0.15988   0.75878   0.00000  Uiso   1.00
C739   C     0.87019   0.13233   0.95789   0.00000  Uiso   1.00
C740   C     0.89386   0.11431   0.97687   0.00000  Uiso   1.00
C741   C     0.94774   0.17355   0.74120   0.00000  Uiso   1.00
C742   C     0.88235   0.11730   0.51868   0.00000  Uiso   1.00
C743   C     0.84645   0.13919   0.54014   0.00000  Uiso   1.00
C744   C     0.90543   0.10017   0.54002   0.00000  Uiso   1.00
C745   C     0.89515   0.10836   0.58139   0.00000  Uiso   1.00
C746   C     0.84210   0.15304   0.58043   0.00000  Uiso   1.00
C747   C     0.99371   0.17618   0.73760   0.00000  Uiso   1.00
C748   C     0.67377   0.15746   0.76222   0.00000  Uiso   1.00
C749   C     0.75494   0.20032   0.92211   0.00000  Uiso   1.00
C750   C     0.84760   0.32216   0.73808   0.00000  Uiso   1.00
C751   C     0.81827   0.01207   0.76215   0.00000  Uiso   1.00
C752   C     0.82262   0.05608   0.75890   0.00000  Uiso   1.00
C753   C     0.84354   0.27768   0.74134   0.00000  Uiso   1.00
C754   C     0.85477   0.14538   0.64397   0.00000  Uiso   1.00
C755   C     0.81131   0.18707   0.85644   0.00000  Uiso   1.00
C756   C     0.79632   0.18938   0.90011   0.00000  Uiso   1.00
C757   C     0.86449   0.13569   0.60119   0.00000  Uiso   1.00
C758   C     0.74006   0.19488   0.96216   0.00000  Uiso   1.00
C759   C     0.82229   0.17514   0.91961   0.00000  Uiso   1.00
C760   C     0.80691   0.16769   0.95969   0.00000  Uiso   1.00
C761   C     0.76491   0.17775   0.98116   0.00000  Uiso   1.00
C762   C     0.83211   0.15032   0.97885   0.00000  Uiso   1.00
C763   C     0.81758   0.14884   0.52017   0.00000  Uiso   1.00
C764   C     0.77342   0.15283   0.53958   0.00000  Uiso   1.00
C765   C     0.74768   0.16852   0.52067   0.00000  Uiso   1.00
Cl766  Cl    0.81683   0.19854   0.60310   0.00000  Uiso   1.00
Cl767  Cl    0.92262   0.08596   0.60827   0.00000  Uiso   1.00
Cl768  Cl    0.93966   0.09195   0.94547   0.00000  Uiso   1.00
H769   H     0.68343   0.19338   0.71483   0.00000  Uiso   1.00
H770   H     0.92885   0.04419   0.53122   0.00000  Uiso   1.00
H771   H     0.96710   0.08626   0.52643   0.00000  Uiso   1.00
H772   H     0.74128   0.24313   0.89254   0.00000  Uiso   1.00
H773   H     0.71956   0.19293   0.88259   0.00000  Uiso   1.00
H774   H     0.73045   0.11076   0.57193   0.00000  Uiso   1.00
H775   H     0.73668   0.15846   0.59664   0.00000  Uiso   1.00
H776   H     0.98472   0.14023   0.78528   0.00000  Uiso   1.00
H777   H     0.87470   0.00276   0.71592   0.00000  Uiso   1.00
H778   H     0.79079   0.33222   0.78437   0.00000  Uiso   1.00
H779   H     0.70803   0.20306   0.97784   0.00000  Uiso   1.00
H780   H     0.85469   0.16997   0.90254   0.00000  Uiso   1.00
H781   H     0.88110   0.12932   0.92612   0.00000  Uiso   1.00
H782   H     0.68317   0.15592   0.52647   0.00000  Uiso   1.00
H783   H     0.69920   0.20519   0.54454   0.00000  Uiso   1.00
N784   N     0.70362   0.17365   0.54205   0.00000  Uiso   1.00
N785   N     0.93808   0.07333   0.52026   0.00000  Uiso   1.00
N786   N     0.72632   0.21545   0.90468   0.00000  Uiso   1.00
N787   N     0.75328   0.13576   0.57655   0.00000  Uiso   1.00
O788   O     0.83333   0.16667   0.75000   0.00000  Uiso   1.00
O789   O     0.82360   0.12393   0.66625   0.00000  Uiso   1.00
O790   O     0.79354   0.20646   0.83749   0.00000  Uiso   1.00
O791   O     0.87755   0.17493   0.65877   0.00000  Uiso   1.00
O792   O     0.83865   0.16135   0.83749   0.00000  Uiso   1.00
O793   O     0.84515   0.08101   0.77820   0.00000  Uiso   1.00
O794   O     0.81247   0.26136   0.76767   0.00000  Uiso   1.00
O795   O     0.74119   0.13251   0.73607   0.00000  Uiso   1.00
O796   O     0.93452   0.19179   0.71805   0.00000  Uiso   1.00
O797   O     0.73656   0.18960   0.77820   0.00000  Uiso   1.00
O798   O     0.92106   0.15277   0.76767   0.00000  Uiso   1.00
O799   O     0.80467   0.06903   0.73607   0.00000  Uiso   1.00
O800   O     0.87104   0.25527   0.71805   0.00000  Uiso   1.00
Zn801  Zn    0.85910   0.14090   0.78277   0.00000  Uiso   1.00
Zn802  Zn    0.80125   0.12378   0.72257   0.00000  Uiso   1.00
Zn803  Zn    0.87833   0.19664   0.71188   0.00000  Uiso   1.00
Zn804  Zn    0.79465   0.20535   0.78277   0.00000  Uiso   1.00
C805   C     0.05248   0.49321   0.75878   0.00000  Uiso   1.00
C806   C     0.20352   0.46567   0.95789   0.00000  Uiso   1.00
C807   C     0.22720   0.44764   0.97687   0.00000  Uiso   1.00
C808   C     0.28108   0.50688   0.74120   0.00000  Uiso   1.00
C809   C     0.21569   0.45064   0.51868   0.00000  Uiso   1.00
C810   C     0.17979   0.47253   0.54014   0.00000  Uiso   1.00
C811   C     0.23876   0.43350   0.54002   0.00000  Uiso   1.00
C812   C     0.22848   0.44169   0.58139   0.00000  Uiso   1.00
C813   C     0.17544   0.48637   0.58043   0.00000  Uiso   1.00
C814   C     0.32704   0.50951   0.73760   0.00000  Uiso   1.00
C815   C     0.00710   0.49080   0.76222   0.00000  Uiso   1.00
C816   C     0.08827   0.53366   0.92211   0.00000  Uiso   1.00
C817   C     0.18093   0.65549   0.73808   0.00000  Uiso   1.00
C818   C     0.15161   0.34541   0.76215   0.00000  Uiso   1.00
C819   C     0.15595   0.38942   0.75890   0.00000  Uiso   1.00
C820   C     0.17687   0.61102   0.74134   0.00000  Uiso   1.00
C821   C     0.18811   0.47872   0.64397   0.00000  Uiso   1.00
C822   C     0.14464   0.52040   0.85644   0.00000  Uiso   1.00
C823   C     0.12965   0.52271   0.90011   0.00000  Uiso   1.00
C824   C     0.19782   0.46902   0.60119   0.00000  Uiso   1.00
C825   C     0.07339   0.52821   0.96216   0.00000  Uiso   1.00
C826   C     0.15563   0.50847   0.91961   0.00000  Uiso   1.00
C827   C     0.14024   0.50102   0.95969   0.00000  Uiso   1.00
C828   C     0.09824   0.51108   0.98116   0.00000  Uiso   1.00
C829   C     0.16544   0.48365   0.97885   0.00000  Uiso   1.00
C830   C     0.15092   0.48217   0.52017   0.00000  Uiso   1.00
C831   C     0.10676   0.48616   0.53958   0.00000  Uiso   1.00
C832   C     0.08101   0.50186   0.52067   0.00000  Uiso   1.00
Cl833  Cl    0.15017   0.53188   0.60310   0.00000  Uiso   1.00
Cl834  Cl    0.25596   0.41930   0.60827   0.00000  Uiso   1.00
Cl835  Cl    0.27299   0.42529   0.94547   0.00000  Uiso   1.00
H836   H     0.01676   0.52671   0.71483   0.00000  Uiso   1.00
H837   H     0.26219   0.37752   0.53122   0.00000  Uiso   1.00
H838   H     0.30043   0.41960   0.52643   0.00000  Uiso   1.00
H839   H     0.07461   0.57647   0.89254   0.00000  Uiso   1.00
H840   H     0.05289   0.52626   0.88259   0.00000  Uiso   1.00
H841   H     0.06379   0.44410   0.57193   0.00000  Uiso   1.00
H842   H     0.07001   0.49180   0.59664   0.00000  Uiso   1.00
H843   H     0.31805   0.47356   0.78528   0.00000  Uiso   1.00
H844   H     0.20804   0.33610   0.71592   0.00000  Uiso   1.00
H845   H     0.12412   0.66555   0.78437   0.00000  Uiso   1.00
H846   H     0.04136   0.53639   0.97784   0.00000  Uiso   1.00
H847   H     0.18803   0.50331   0.90254   0.00000  Uiso   1.00
H848   H     0.21444   0.46265   0.92612   0.00000  Uiso   1.00
H849   H     0.01650   0.48925   0.52647   0.00000  Uiso   1.00
H850   H     0.03254   0.53853   0.54454   0.00000  Uiso   1.00
N851   N     0.03695   0.50698   0.54205   0.00000  Uiso   1.00
N852   N     0.27141   0.40666   0.52026   0.00000  Uiso   1.00
N853   N     0.05966   0.54878   0.90468   0.00000  Uiso   1.00
N854   N     0.08661   0.46909   0.57655   0.00000  Uiso   1.00
O855   O     0.16667   0.50000   0.75000   0.00000  Uiso   1.00
O856   O     0.15693   0.45726   0.66625   0.00000  Uiso   1.00
O857   O     0.12687   0.53979   0.83749   0.00000  Uiso   1.00
O858   O     0.21088   0.50826   0.65877   0.00000  Uiso   1.00
O859   O     0.17198   0.49468   0.83749   0.00000  Uiso   1.00
O860   O     0.17849   0.41434   0.77820   0.00000  Uiso   1.00
O861   O     0.14581   0.59469   0.76767   0.00000  Uiso   1.00
O862   O     0.07452   0.46584   0.73607   0.00000  Uiso   1.00
O863   O     0.26785   0.52512   0.71805   0.00000  Uiso   1.00
O864   O     0.06990   0.52293   0.77820   0.00000  Uiso   1.00
O865   O     0.25440   0.48610   0.76767   0.00000  Uiso   1.00
O866   O     0.13800   0.40236   0.73607   0.00000  Uiso   1.00
O867   O     0.20437   0.58860   0.71805   0.00000  Uiso   1.00
Zn868  Zn    0.19244   0.47423   0.78277   0.00000  Uiso   1.00
Zn869  Zn    0.13459   0.45711   0.72257   0.00000  Uiso   1.00
Zn870  Zn    0.21166   0.52997   0.71188   0.00000  Uiso   1.00
Zn871  Zn    0.12798   0.53868   0.78277   0.00000  Uiso   1.00
C872   C     0.38581   0.49321   0.75878   0.00000  Uiso   1.00
C873   C     0.53685   0.46567   0.95789   0.00000  Uiso   1.00
C874   C     0.56053   0.44764   0.97687   0.00000  Uiso   1.00
C875   C     0.61441   0.50688   0.74120   0.00000  Uiso   1.00
C876   C     0.54902   0.45064   0.51868   0.00000  Uiso   1.00
C877   C     0.51312   0.47253   0.54014   0.00000  Uiso   1.00
C878   C     0.57209   0.43350   0.54002   0.00000  Uiso   1.00
C879   C     0.56181   0.44169   0.58139   0.00000  Uiso   1.00
C880   C     0.50877   0.48637   0.58043   0.00000  Uiso   1.00
C881   C     0.66038   0.50951   0.73760   0.00000  Uiso   1.00
C882   C     0.34043   0.49080   0.76222   0.00000  Uiso   1.00
C883   C     0.42161   0.53366   0.92211   0.00000  Uiso   1.00
C884   C     0.51427   0.65549   0.73808   0.00000  Uiso   1.00
C885   C     0.48494   0.34541   0.76215   0.00000  Uiso   1.00
C886   C     0.48929   0.38942   0.75890   0.00000  Uiso   1.00
C887   C     0.51021   0.61102   0.74134   0.00000  Uiso   1.00
C888   C     0.52144   0.47872   0.64397   0.00000  Uiso   1.00
C889   C     0.47798   0.52040   0.85644   0.00000  Uiso   1.00
C890   C     0.46299   0.52271   0.90011   0.00000  Uiso   1.00
C891   C     0.53115   0.46902   0.60119   0.00000  Uiso   1.00
C892   C     0.40672   0.52821   0.96216   0.00000  Uiso   1.00
C893   C     0.48896   0.50847   0.91961   0.00000  Uiso   1.00
C894   C     0.47358   0.50102   0.95969   0.00000  Uiso   1.00
C895   C     0.43157   0.51108   0.98116   0.00000  Uiso   1.00
C896   C     0.49877   0.48365   0.97885   0.00000  Uiso   1.00
C897   C     0.48425   0.48217   0.52017   0.00000  Uiso   1.00
C898   C     0.44009   0.48616   0.53958   0.00000  Uiso   1.00
C899   C     0.41435   0.50186   0.52067   0.00000  Uiso   1.00
Cl900  Cl    0.48350   0.53188   0.60310   0.00000  Uiso   1.00
Cl901  Cl    0.58929   0.41930   0.60827   0.00000  Uiso   1.00
Cl902  Cl    0.60633   0.42529   0.94547   0.00000  Uiso   1.00
H903   H     0.35010   0.52671   0.71483   0.00000  Uiso   1.00
H904   H     0.59552   0.37752   0.53122   0.00000  Uiso   1.00
H905   H     0.63377   0.41960   0.52643   0.00000  Uiso   1.00
H906   H     0.40795   0.57647   0.89254   0.00000  Uiso   1.00
H907   H     0.38623   0.52626   0.88259   0.00000  Uiso   1.00
H908   H     0.39712   0.44410   0.57193   0.00000  Uiso   1.00
H909   H     0.40335   0.49180   0.59664   0.00000  Uiso   1.00
H910   H     0.65138   0.47356   0.78528   0.00000  Uiso   1.00
H911   H     0.54137   0.33610   0.71592   0.00000  Uiso   1.00
H912   H     0.45746   0.66555   0.78437   0.00000  Uiso   1.00
H913   H     0.37470   0.53639   0.97784   0.00000  Uiso   1.00
H914   H     0.52136   0.50331   0.90254   0.00000  Uiso   1.00
H915   H     0.54777   0.46265   0.92612   0.00000  Uiso   1.00
H916   H     0.34984   0.48925   0.52647   0.00000  Uiso   1.00
H917   H     0.36587   0.53853   0.54454   0.00000  Uiso   1.00
N918   N     0.37029   0.50698   0.54205   0.00000  Uiso   1.00
N919   N     0.60475   0.40666   0.52026   0.00000  Uiso   1.00
N920   N     0.39299   0.54878   0.90468   0.00000  Uiso   1.00
N921   N     0.41995   0.46909   0.57655   0.00000  Uiso   1.00
O922   O     0.50000   0.50000   0.75000   0.00000  Uiso   1.00
O923   O     0.49027   0.45726   0.66625   0.00000  Uiso   1.00
O924   O     0.46020   0.53979   0.83749   0.00000  Uiso   1.00
O925   O     0.54421   0.50826   0.65877   0.00000  Uiso   1.00
O926   O     0.50532   0.49468   0.83749   0.00000  Uiso   1.00
O927   O     0.51182   0.41434   0.77820   0.00000  Uiso   1.00
O928   O     0.47914   0.59469   0.76767   0.00000  Uiso   1.00
O929   O     0.40785   0.46584   0.73607   0.00000  Uiso   1.00
O930   O     0.60119   0.52512   0.71805   0.00000  Uiso   1.00
O931   O     0.40323   0.52293   0.77820   0.00000  Uiso   1.00
O932   O     0.58773   0.48610   0.76767   0.00000  Uiso   1.00
O933   O     0.47133   0.40236   0.73607   0.00000  Uiso   1.00
O934   O     0.53771   0.58860   0.71805   0.00000  Uiso   1.00
Zn935  Zn    0.52577   0.47423   0.78277   0.00000  Uiso   1.00
Zn936  Zn    0.46792   0.45711   0.72257   0.00000  Uiso   1.00
Zn937  Zn    0.54500   0.52997   0.71188   0.00000  Uiso   1.00
Zn938  Zn    0.46131   0.53868   0.78277   0.00000  Uiso   1.00
C939   C     0.71914   0.49321   0.75878   0.00000  Uiso   1.00
C940   C     0.87019   0.46567   0.95789   0.00000  Uiso   1.00
C941   C     0.89386   0.44764   0.97687   0.00000  Uiso   1.00
C942   C     0.94774   0.50688   0.74120   0.00000  Uiso   1.00
C943   C     0.88235   0.45064   0.51868   0.00000  Uiso   1.00
C944   C     0.84645   0.47253   0.54014   0.00000  Uiso   1.00
C945   C     0.90543   0.43350   0.54002   0.00000  Uiso   1.00
C946   C     0.89515   0.44169   0.58139   0.00000  Uiso   1.00
C947   C     0.84210   0.48637   0.58043   0.00000  Uiso   1.00
C948   C     0.99371   0.50951   0.73760   0.00000  Uiso   1.00
C949   C     0.67377   0.49080   0.76222   0.00000  Uiso   1.00
C950   C     0.75494   0.53366   0.92211   0.00000  Uiso   1.00
C951   C     0.84760   0.65549   0.73808   0.00000  Uiso   1.00
C952   C     0.81827   0.34541   0.76215   0.00000  Uiso   1.00
C953   C     0.82262   0.38942   0.75890   0.00000  Uiso   1.00
C954   C     0.84354   0.61102   0.74134   0.00000  Uiso   1.00
C955   C     0.85477   0.47872   0.64397   0.00000  Uiso   1.00
C956   C     0.81131   0.52040   0.85644   0.00000  Uiso   1.00
C957   C     0.79632   0.52271   0.90011   0.00000  Uiso   1.00
C958   C     0.86449   0.46902   0.60119   0.00000  Uiso   1.00
C959   C     0.74006   0.52821   0.96216   0.00000  Uiso   1.00
C960   C     0.82229   0.50847   0.91961   0.00000  Uiso   1.00
C961   C     0.80691   0.50102   0.95969   0.00000  Uiso   1.00
C962   C     0.76491   0.51108   0.98116   0.00000  Uiso   1.00
C963   C     0.83211   0.48365   0.97885   0.00000  Uiso   1.00
C964   C     0.81758   0.48217   0.52017   0.00000  Uiso   1.00
C965   C     0.77342   0.48616   0.53958   0.00000  Uiso   1.00
C966   C     0.74768   0.50186   0.52067   0.00000  Uiso   1.00
Cl967  Cl    0.81683   0.53188   0.60310   0.00000  Uiso   1.00
Cl968  Cl    0.92262   0.41930   0.60827   0.00000  Uiso   1.00
Cl969  Cl    0.93966   0.42529   0.94547   0.00000  Uiso   1.00
H970   H     0.68343   0.52671   0.71483   0.00000  Uiso   1.00
H971   H     0.92885   0.37752   0.53122   0.00000  Uiso   1.00
H972   H     0.96710   0.41960   0.52643   0.00000  Uiso   1.00
H973   H     0.74128   0.57647   0.89254   0.00000  Uiso   1.00
H974   H     0.71956   0.52626   0.88259   0.00000  Uiso   1.00
H975   H     0.73045   0.44410   0.57193   0.00000  Uiso   1.00
H976   H     0.73668   0.49180   0.59664   0.00000  Uiso   1.00
H977   H     0.98472   0.47356   0.78528   0.00000  Uiso   1.00
H978   H     0.87470   0.33610   0.71592   0.00000  Uiso   1.00
H979   H     0.79079   0.66555   0.78437   0.00000  Uiso   1.00
H980   H     0.70803   0.53639   0.97784   0.00000  Uiso   1.00
H981   H     0.85469   0.50331   0.90254   0.00000  Uiso   1.00
H982   H     0.88110   0.46265   0.92612   0.00000  Uiso   1.00
H983   H     0.68317   0.48925   0.52647   0.00000  Uiso   1.00
H984   H     0.69920   0.53853   0.54454   0.00000  Uiso   1.00
N985   N     0.70362   0.50698   0.54205   0.00000  Uiso   1.00
N986   N     0.93808   0.40666   0.52026   0.00000  Uiso   1.00
N987   N     0.72632   0.54878   0.90468   0.00000  Uiso   1.00
N988   N     0.75328   0.46909   0.57655   0.00000  Uiso   1.00
O989   O     0.83333   0.50000   0.75000   0.00000  Uiso   1.00
O990   O     0.82360   0.45726   0.66625   0.00000  Uiso   1.00
O991   O     0.79354   0.53979   0.83749   0.00000  Uiso   1.00
O992   O     0.87755   0.50826   0.65877   0.00000  Uiso   1.00
O993   O     0.83865   0.49468   0.83749   0.00000  Uiso   1.00
O994   O     0.84515   0.41434   0.77820   0.00000  Uiso   1.00
O995   O     0.81247   0.59469   0.76767   0.00000  Uiso   1.00
O996   O     0.74119   0.46584   0.73607   0.00000  Uiso   1.00
O997   O     0.93452   0.52512   0.71805   0.00000  Uiso   1.00
O998   O     0.73656   0.52293   0.77820   0.00000  Uiso   1.00
O999   O     0.92106   0.48610   0.76767   0.00000  Uiso   1.00
O1000  O     0.80467   0.40236   0.73607   0.00000  Uiso   1.00
O1001  O     0.87104   0.58860   0.71805   0.00000  Uiso   1.00
Zn1002 Zn    0.85910   0.47423   0.78277   0.00000  Uiso   1.00
Zn1003 Zn    0.80125   0.45711   0.72257   0.00000  Uiso   1.00
Zn1004 Zn    0.87833   0.52997   0.71188   0.00000  Uiso   1.00
Zn1005 Zn    0.79465   0.53868   0.78277   0.00000  Uiso   1.00
C1006  C     0.05248   0.82654   0.75878   0.00000  Uiso   1.00
C1007  C     0.20352   0.79900   0.95789   0.00000  Uiso   1.00
C1008  C     0.22720   0.78098   0.97687   0.00000  Uiso   1.00
C1009  C     0.28108   0.84022   0.74120   0.00000  Uiso   1.00
C1010  C     0.21569   0.78397   0.51868   0.00000  Uiso   1.00
C1011  C     0.17979   0.80586   0.54014   0.00000  Uiso   1.00
C1012  C     0.23876   0.76684   0.54002   0.00000  Uiso   1.00
C1013  C     0.22848   0.77503   0.58139   0.00000  Uiso   1.00
C1014  C     0.17544   0.81971   0.58043   0.00000  Uiso   1.00
C1015  C     0.32704   0.84284   0.73760   0.00000  Uiso   1.00
C1016  C     0.00710   0.82413   0.76222   0.00000  Uiso   1.00
C1017  C     0.08827   0.86699   0.92211   0.00000  Uiso   1.00
C1018  C     0.18093   0.98882   0.73808   0.00000  Uiso   1.00
C1019  C     0.15161   0.67874   0.76215   0.00000  Uiso   1.00
C1020  C     0.15595   0.72275   0.75890   0.00000  Uiso   1.00
C1021  C     0.17687   0.94435   0.74134   0.00000  Uiso   1.00
C1022  C     0.18811   0.81205   0.64397   0.00000  Uiso   1.00
C1023  C     0.14464   0.85373   0.85644   0.00000  Uiso   1.00
C1024  C     0.12965   0.85605   0.90011   0.00000  Uiso   1.00
C1025  C     0.19782   0.80236   0.60119   0.00000  Uiso   1.00
C1026  C     0.07339   0.86155   0.96216   0.00000  Uiso   1.00
C1027  C     0.15563   0.84180   0.91961   0.00000  Uiso   1.00
C1028  C     0.14024   0.83436   0.95969   0.00000  Uiso   1.00
C1029  C     0.09824   0.84442   0.98116   0.00000  Uiso   1.00
C1030  C     0.16544   0.81699   0.97885   0.00000  Uiso   1.00
C1031  C     0.15092   0.81551   0.52017   0.00000  Uiso   1.00
C1032  C     0.10676   0.81949   0.53958   0.00000  Uiso   1.00
C1033  C     0.08101   0.83519   0.52067   0.00000  Uiso   1.00
Cl1034 Cl    0.15017   0.86521   0.60310   0.00000  Uiso   1.00
Cl1035 Cl    0.25596   0.75263   0.60827   0.00000  Uiso   1.00
Cl1036 Cl    0.27299   0.75862   0.94547   0.00000  Uiso   1.00
H1037  H     0.01676   0.86005   0.71483   0.00000  Uiso   1.00
H1038  H     0.26219   0.71085   0.53122   0.00000  Uiso   1.00
H1039  H     0.30043   0.75293   0.52643   0.00000  Uiso   1.00
H1040  H     0.07461   0.90980   0.89254   0.00000  Uiso   1.00
H1041  H     0.05289   0.85960   0.88259   0.00000  Uiso   1.00
H1042  H     0.06379   0.77743   0.57193   0.00000  Uiso   1.00
H1043  H     0.07001   0.82513   0.59664   0.00000  Uiso   1.00
H1044  H     0.31805   0.80689   0.78528   0.00000  Uiso   1.00
H1045  H     0.20804   0.66943   0.71592   0.00000  Uiso   1.00
H1046  H     0.12412   0.99889   0.78437   0.00000  Uiso   1.00
H1047  H     0.04136   0.86972   0.97784   0.00000  Uiso   1.00
H1048  H     0.18803   0.83664   0.90254   0.00000  Uiso   1.00
H1049  H     0.21444   0.79599   0.92612   0.00000  Uiso   1.00
H1050  H     0.01650   0.82258   0.52647   0.00000  Uiso   1.00
H1051  H     0.03254   0.87186   0.54454   0.00000  Uiso   1.00
N1052  N     0.03695   0.84032   0.54205   0.00000  Uiso   1.00
N1053  N     0.27141   0.73999   0.52026   0.00000  Uiso   1.00
N1054  N     0.05966   0.88211   0.90468   0.00000  Uiso   1.00
N1055  N     0.08661   0.80243   0.57655   0.00000  Uiso   1.00
O1056  O     0.16667   0.83333   0.75000   0.00000  Uiso   1.00
O1057  O     0.15693   0.79060   0.66625   0.00000  Uiso   1.00
O1058  O     0.12687   0.87313   0.83749   0.00000  Uiso   1.00
O1059  O     0.21088   0.84159   0.65877   0.00000  Uiso   1.00
O1060  O     0.17198   0.82802   0.83749   0.00000  Uiso   1.00
O1061  O     0.17849   0.74768   0.77820   0.00000  Uiso   1.00
O1062  O     0.14581   0.92803   0.76767   0.00000  Uiso   1.00
O1063  O     0.07452   0.79917   0.73607   0.00000  Uiso   1.00
O1064  O     0.26785   0.85845   0.71805   0.00000  Uiso   1.00
O1065  O     0.06990   0.85627   0.77820   0.00000  Uiso   1.00
O1066  O     0.25440   0.81944   0.76767   0.00000  Uiso   1.00
O1067  O     0.13800   0.73570   0.73607   0.00000  Uiso   1.00
O1068  O     0.20437   0.92193   0.71805   0.00000  Uiso   1.00
Zn1069 Zn    0.19244   0.80756   0.78277   0.00000  Uiso   1.00
Zn1070 Zn    0.13459   0.79044   0.72257   0.00000  Uiso   1.00
Zn1071 Zn    0.21166   0.86331   0.71188   0.00000  Uiso   1.00
Zn1072 Zn    0.12798   0.87202   0.78277   0.00000  Uiso   1.00
C1073  C     0.38581   0.82654   0.75878   0.00000  Uiso   1.00
C1074  C     0.53685   0.79900   0.95789   0.00000  Uiso   1.00
C1075  C     0.56053   0.78098   0.97687   0.00000  Uiso   1.00
C1076  C     0.61441   0.84022   0.74120   0.00000  Uiso   1.00
C1077  C     0.54902   0.78397   0.51868   0.00000  Uiso   1.00
C1078  C     0.51312   0.80586   0.54014   0.00000  Uiso   1.00
C1079  C     0.57209   0.76684   0.54002   0.00000  Uiso   1.00
C1080  C     0.56181   0.77503   0.58139   0.00000  Uiso   1.00
C1081  C     0.50877   0.81971   0.58043   0.00000  Uiso   1.00
C1082  C     0.66038   0.84284   0.73760   0.00000  Uiso   1.00
C1083  C     0.34043   0.82413   0.76222   0.00000  Uiso   1.00
C1084  C     0.42161   0.86699   0.92211   0.00000  Uiso   1.00
C1085  C     0.51427   0.98882   0.73808   0.00000  Uiso   1.00
C1086  C     0.48494   0.67874   0.76215   0.00000  Uiso   1.00
C1087  C     0.48929   0.72275   0.75890   0.00000  Uiso   1.00
C1088  C     0.51021   0.94435   0.74134   0.00000  Uiso   1.00
C1089  C     0.52144   0.81205   0.64397   0.00000  Uiso   1.00
C1090  C     0.47798   0.85373   0.85644   0.00000  Uiso   1.00
C1091  C     0.46299   0.85605   0.90011   0.00000  Uiso   1.00
C1092  C     0.53115   0.80236   0.60119   0.00000  Uiso   1.00
C1093  C     0.40672   0.86155   0.96216   0.00000  Uiso   1.00
C1094  C     0.48896   0.84180   0.91961   0.00000  Uiso   1.00
C1095  C     0.47358   0.83436   0.95969   0.00000  Uiso   1.00
C1096  C     0.43157   0.84442   0.98116   0.00000  Uiso   1.00
C1097  C     0.49877   0.81699   0.97885   0.00000  Uiso   1.00
C1098  C     0.48425   0.81551   0.52017   0.00000  Uiso   1.00
C1099  C     0.44009   0.81949   0.53958   0.00000  Uiso   1.00
C1100  C     0.41435   0.83519   0.52067   0.00000  Uiso   1.00
Cl1101 Cl    0.48350   0.86521   0.60310   0.00000  Uiso   1.00
Cl1102 Cl    0.58929   0.75263   0.60827   0.00000  Uiso   1.00
Cl1103 Cl    0.60633   0.75862   0.94547   0.00000  Uiso   1.00
H1104  H     0.35010   0.86005   0.71483   0.00000  Uiso   1.00
H1105  H     0.59552   0.71085   0.53122   0.00000  Uiso   1.00
H1106  H     0.63377   0.75293   0.52643   0.00000  Uiso   1.00
H1107  H     0.40795   0.90980   0.89254   0.00000  Uiso   1.00
H1108  H     0.38623   0.85960   0.88259   0.00000  Uiso   1.00
H1109  H     0.39712   0.77743   0.57193   0.00000  Uiso   1.00
H1110  H     0.40335   0.82513   0.59664   0.00000  Uiso   1.00
H1111  H     0.65138   0.80689   0.78528   0.00000  Uiso   1.00
H1112  H     0.54137   0.66943   0.71592   0.00000  Uiso   1.00
H1113  H     0.45746   0.99889   0.78437   0.00000  Uiso   1.00
H1114  H     0.37470   0.86972   0.97784   0.00000  Uiso   1.00
H1115  H     0.52136   0.83664   0.90254   0.00000  Uiso   1.00
H1116  H     0.54777   0.79599   0.92612   0.00000  Uiso   1.00
H1117  H     0.34984   0.82258   0.52647   0.00000  Uiso   1.00
H1118  H     0.36587   0.87186   0.54454   0.00000  Uiso   1.00
N1119  N     0.37029   0.84032   0.54205   0.00000  Uiso   1.00
N1120  N     0.60475   0.73999   0.52026   0.00000  Uiso   1.00
N1121  N     0.39299   0.88211   0.90468   0.00000  Uiso   1.00
N1122  N     0.41995   0.80243   0.57655   0.00000  Uiso   1.00
O1123  O     0.50000   0.83333   0.75000   0.00000  Uiso   1.00
O1124  O     0.49027   0.79060   0.66625   0.00000  Uiso   1.00
O1125  O     0.46020   0.87313   0.83749   0.00000  Uiso   1.00
O1126  O     0.54421   0.84159   0.65877   0.00000  Uiso   1.00
O1127  O     0.50532   0.82802   0.83749   0.00000  Uiso   1.00
O1128  O     0.51182   0.74768   0.77820   0.00000  Uiso   1.00
O1129  O     0.47914   0.92803   0.76767   0.00000  Uiso   1.00
O1130  O     0.40785   0.79917   0.73607   0.00000  Uiso   1.00
O1131  O     0.60119   0.85845   0.71805   0.00000  Uiso   1.00
O1132  O     0.40323   0.85627   0.77820   0.00000  Uiso   1.00
O1133  O     0.58773   0.81944   0.76767   0.00000  Uiso   1.00
O1134  O     0.47133   0.73570   0.73607   0.00000  Uiso   1.00
O1135  O     0.53771   0.92193   0.71805   0.00000  Uiso   1.00
Zn1136 Zn    0.52577   0.80756   0.78277   0.00000  Uiso   1.00
Zn1137 Zn    0.46792   0.79044   0.72257   0.00000  Uiso   1.00
Zn1138 Zn    0.54500   0.86331   0.71188   0.00000  Uiso   1.00
Zn1139 Zn    0.46131   0.87202   0.78277   0.00000  Uiso   1.00
C1140  C     0.71914   0.82654   0.75878   0.00000  Uiso   1.00
C1141  C     0.87019   0.79900   0.95789   0.00000  Uiso   1.00
C1142  C     0.89386   0.78098   0.97687   0.00000  Uiso   1.00
C1143  C     0.94774   0.84022   0.74120   0.00000  Uiso   1.00
C1144  C     0.88235   0.78397   0.51868   0.00000  Uiso   1.00
C1145  C     0.84645   0.80586   0.54014   0.00000  Uiso   1.00
C1146  C     0.90543   0.76684   0.54002   0.00000  Uiso   1.00
C1147  C     0.89515   0.77503   0.58139   0.00000  Uiso   1.00
C1148  C     0.84210   0.81971   0.58043   0.00000  Uiso   1.00
C1149  C     0.99371   0.84284   0.73760   0.00000  Uiso   1.00
C1150  C     0.67377   0.82413   0.76222   0.00000  Uiso   1.00
C1151  C     0.75494   0.86699   0.92211   0.00000  Uiso   1.00
C1152  C     0.84760   0.98882   0.73808   0.00000  Uiso   1.00
C1153  C     0.81827   0.67874   0.76215   0.00000  Uiso   1.00
C1154  C     0.82262   0.72275   0.75890   0.00000  Uiso   1.00
C1155  C     0.84354   0.94435   0.74134   0.00000  Uiso   1.00
C1156  C     0.85477   0.81205   0.64397   0.00000  Uiso   1.00
C1157  C     0.81131   0.85373   0.85644   0.00000  Uiso   1.00
C1158  C     0.79632   0.85605   0.90011   0.00000  Uiso   1.00
C1159  C     0.86449   0.80236   0.60119   0.00000  Uiso   1.00
C1160  C     0.74006   0.86155   0.96216   0.00000  Uiso   1.00
C1161  C     0.82229   0.84180   0.91961   0.00000  Uiso   1.00
C1162  C     0.80691   0.83436   0.95969   0.00000  Uiso   1.00
C1163  C     0.76491   0.84442   0.98116   0.00000  Uiso   1.00
C1164  C     0.83211   0.81699   0.97885   0.00000  Uiso   1.00
C1165  C     0.81758   0.81551   0.52017   0.00000  Uiso   1.00
C1166  C     0.77342   0.81949   0.53958   0.00000  Uiso   1.00
C1167  C     0.74768   0.83519   0.52067   0.00000  Uiso   1.00
Cl1168 Cl    0.81683   0.86521   0.60310   0.00000  Uiso   1.00
Cl1169 Cl    0.92262   0.75263   0.60827   0.00000  Uiso   1.00
Cl1170 Cl    0.93966   0.75862   0.94547   0.00000  Uiso   1.00
H1171  H     0.68343   0.86005   0.71483   0.00000  Uiso   1.00
H1172  H     0.92885   0.71085   0.53122   0.00000  Uiso   1.00
H1173  H     0.96710   0.75293   0.52643   0.00000  Uiso   1.00
H1174  H     0.74128   0.90980   0.89254   0.00000  Uiso   1.00
H1175  H     0.71956   0.85960   0.88259   0.00000  Uiso   1.00
H1176  H     0.73045   0.77743   0.57193   0.00000  Uiso   1.00
H1177  H     0.73668   0.82513   0.59664   0.00000  Uiso   1.00
H1178  H     0.98472   0.80689   0.78528   0.00000  Uiso   1.00
H1179  H     0.87470   0.66943   0.71592   0.00000  Uiso   1.00
H1180  H     0.79079   0.99889   0.78437   0.00000  Uiso   1.00
H1181  H     0.70803   0.86972   0.97784   0.00000  Uiso   1.00
H1182  H     0.85469   0.83664   0.90254   0.00000  Uiso   1.00
H1183  H     0.88110   0.79599   0.92612   0.00000  Uiso   1.00
H1184  H     0.68317   0.82258   0.52647   0.00000  Uiso   1.00
H1185  H     0.69920   0.87186   0.54454   0.00000  Uiso   1.00
N1186  N     0.70362   0.84032   0.54205   0.00000  Uiso   1.00
N1187  N     0.93808   0.73999   0.52026   0.00000  Uiso   1.00
N1188  N     0.72632   0.88211   0.90468   0.00000  Uiso   1.00
N1189  N     0.75328   0.80243   0.57655   0.00000  Uiso   1.00
O1190  O     0.83333   0.83333   0.75000   0.00000  Uiso   1.00
O1191  O     0.82360   0.79060   0.66625   0.00000  Uiso   1.00
O1192  O     0.79354   0.87313   0.83749   0.00000  Uiso   1.00
O1193  O     0.87755   0.84159   0.65877   0.00000  Uiso   1.00
O1194  O     0.83865   0.82802   0.83749   0.00000  Uiso   1.00
O1195  O     0.84515   0.74768   0.77820   0.00000  Uiso   1.00
O1196  O     0.81247   0.92803   0.76767   0.00000  Uiso   1.00
O1197  O     0.74119   0.79917   0.73607   0.00000  Uiso   1.00
O1198  O     0.93452   0.85845   0.71805   0.00000  Uiso   1.00
O1199  O     0.73656   0.85627   0.77820   0.00000  Uiso   1.00
O1200  O     0.92106   0.81944   0.76767   0.00000  Uiso   1.00
O1201  O     0.80467   0.73570   0.73607   0.00000  Uiso   1.00
O1202  O     0.87104   0.92193   0.71805   0.00000  Uiso   1.00
Zn1203 Zn    0.85910   0.80756   0.78277   0.00000  Uiso   1.00
Zn1204 Zn    0.80125   0.79044   0.72257   0.00000  Uiso   1.00
Zn1205 Zn    0.87833   0.86331   0.71188   0.00000  Uiso   1.00
Zn1206 Zn    0.79465   0.87202   0.78277   0.00000  Uiso   1.00
loop_
_geom_bond_atom_site_label_1
_geom_bond_atom_site_label_2
_geom_bond_distance
_geom_bond_site_symmetry_2
_ccdc_geom_bond_type
C1     O60     1.269   .     A
C1     O58     1.269   .     A
C1     C11     1.437   .     S
C2     C3      1.394   .     A
C2     C25     1.411   .     A
C2     H44     1.077   .     S
C3     Cl31    1.767   .     S
C3     C608    1.418   .     S
C4     O59     1.279   .     A
C4     C10     1.454   .     S
C4     O61     1.276   .     A
C5     C6      1.425   .     A
C5     C7      1.424   .     A
C5     C606    1.418   1_554 S
C6     C9      1.413   .     A
C6     C26     1.423   .     A
C7     N48     1.433   .     S
C7     C8      1.407   .     A
C8     Cl30    1.770   .     S
C8     C20     1.400   .     A
C9     Cl29    1.777   .     S
C9     C20     1.396   .     A
C10    C78     1.334   .     S
C10    H99     1.088   .     S
C11    C144    1.334   1_455 S
C11    H173    1.086   1_455 S
C12    C19     1.416   .     A
C12    C21     1.394   .     A
C12    N49     1.433   .     S
C13    C16     1.451   .     S
C13    C215    1.332   .     S
C13    H241    1.088   .     S
C14    C15     1.436   .     S
C14    C415    1.332   1_545 S
C14    H443    1.086   1_545 S
C15    O62     1.275   .     A
C15    O56     1.275   .     A
C16    O63     1.270   .     A
C16    O57     1.270   .     A
C17    C20     1.460   .     S
C17    O54     1.274   .     A
C17    O52     1.274   .     A
C18    O55     1.288   .     A
C18    C19     1.482   .     S
C18    O53     1.282   .     A
C19    C22     1.400   .     A
C21    C24     1.407   .     A
C21    H42     1.082   .     S
C22    H43     1.077   .     S
C22    C23     1.411   .     A
C23    C24     1.419   .     A
C23    C25     1.424   .     A
C24    C631    1.412   .     S
C25    C629    1.414   .     S
C26    C27     1.418   .     A
C26    C628    1.414   1_554 S
C27    N50     1.438   .     S
C27    C28     1.403   .     A
C28    N47     1.437   .     S
C28    C627    1.412   1_554 S
H32    C144    1.088   1_455 S
H33    N48     1.046   .     S
H34    N48     1.045   .     S
H35    N49     1.045   .     S
H36    N49     1.045   .     S
H37    N50     1.046   .     S
H38    N50     1.046   .     S
H39    C78     1.086   .     S
H40    C415    1.088   1_545 S
H41    C215    1.086   .     S
H45    N47     1.045   .     S
H46    N47     1.045   .     S
O51    Zn64    1.955   .     S
O51    Zn67    1.932   .     S
O51    Zn65    1.940   .     S
O51    Zn66    1.932   .     S
O52    Zn65    1.924   .     S
O53    Zn67    1.933   .     S
O54    Zn66    1.928   .     S
O55    Zn64    1.921   .     S
O56    Zn64    1.929   .     S
O57    Zn67    1.931   .     S
O58    Zn65    1.927   .     S
O59    Zn66    1.935   .     S
O60    Zn67    1.931   .     S
O61    Zn64    1.923   .     S
O62    Zn65    1.936   .     S
O63    Zn66    1.931   .     S
C68    O127    1.269   .     A
C68    O125    1.269   .     A
C68    C78     1.437   .     S
C69    C70     1.394   .     A
C69    C92     1.411   .     A
C69    H111    1.077   .     S
C70    Cl98    1.767   .     S
C70    C675    1.418   .     S
C71    O126    1.279   .     A
C71    C77     1.454   .     S
C71    O128    1.276   .     A
C72    C73     1.425   .     A
C72    C74     1.424   .     A
C72    C673    1.418   1_554 S
C73    C76     1.413   .     A
C73    C93     1.423   .     A
C74    N115    1.433   .     S
C74    C75     1.407   .     A
C75    Cl97    1.770   .     S
C75    C87     1.400   .     A
C76    Cl96    1.777   .     S
C76    C87     1.396   .     A
C77    C145    1.334   .     S
C77    H166    1.088   .     S
C79    C86     1.416   .     A
C79    C88     1.394   .     A
C79    N116    1.433   .     S
C80    C83     1.451   .     S
C80    C282    1.332   .     S
C80    H308    1.088   .     S
C81    C82     1.436   .     S
C81    C482    1.332   1_545 S
C81    H510    1.086   1_545 S
C82    O129    1.275   .     A
C82    O123    1.275   .     A
C83    O130    1.270   .     A
C83    O124    1.270   .     A
C84    C87     1.460   .     S
C84    O121    1.274   .     A
C84    O119    1.274   .     A
C85    O122    1.288   .     A
C85    C86     1.482   .     S
C85    O120    1.282   .     A
C86    C89     1.400   .     A
C88    C91     1.407   .     A
C88    H109    1.082   .     S
C89    H110    1.077   .     S
C89    C90     1.411   .     A
C90    C91     1.419   .     A
C90    C92     1.424   .     A
C91    C698    1.412   .     S
C92    C696    1.414   .     S
C93    C94     1.418   .     A
C93    C695    1.414   1_554 S
C94    N117    1.438   .     S
C94    C95     1.403   .     A
C95    N114    1.437   .     S
C95    C694    1.412   1_554 S
H100   N115    1.046   .     S
H101   N115    1.045   .     S
H102   N116    1.045   .     S
H103   N116    1.045   .     S
H104   N117    1.046   .     S
H105   N117    1.046   .     S
H106   C145    1.086   .     S
H107   C482    1.088   1_545 S
H108   C282    1.086   .     S
H112   N114    1.045   .     S
H113   N114    1.045   .     S
O118   Zn131   1.955   .     S
O118   Zn134   1.932   .     S
O118   Zn132   1.940   .     S
O118   Zn133   1.932   .     S
O119   Zn132   1.924   .     S
O120   Zn134   1.933   .     S
O121   Zn133   1.928   .     S
O122   Zn131   1.921   .     S
O123   Zn131   1.929   .     S
O124   Zn134   1.931   .     S
O125   Zn132   1.927   .     S
O126   Zn133   1.935   .     S
O127   Zn134   1.931   .     S
O128   Zn131   1.923   .     S
O129   Zn132   1.936   .     S
O130   Zn133   1.931   .     S
C135   O194    1.269   .     A
C135   O192    1.269   .     A
C135   C145    1.437   .     S
C136   C137    1.394   .     A
C136   C159    1.411   .     A
C136   H178    1.077   .     S
C137   Cl165   1.767   .     S
C137   C742    1.418   .     S
C138   O193    1.279   .     A
C138   C144    1.454   .     S
C138   O195    1.276   .     A
C139   C140    1.425   .     A
C139   C141    1.424   .     A
C139   C740    1.418   1_554 S
C140   C143    1.413   .     A
C140   C160    1.423   .     A
C141   N182    1.433   .     S
C141   C142    1.407   .     A
C142   Cl164   1.770   .     S
C142   C154    1.400   .     A
C143   Cl163   1.777   .     S
C143   C154    1.396   .     A
C144   C11     1.334   1_655 S
C144   H32     1.088   1_655 S
C146   C153    1.416   .     A
C146   C155    1.394   .     A
C146   N183    1.433   .     S
C147   C150    1.451   .     S
C147   C349    1.332   .     S
C147   H375    1.088   .     S
C148   C149    1.436   .     S
C148   C549    1.332   1_545 S
C148   H577    1.086   1_545 S
C149   O196    1.275   .     A
C149   O190    1.275   .     A
C150   O197    1.270   .     A
C150   O191    1.270   .     A
C151   C154    1.460   .     S
C151   O188    1.274   .     A
C151   O186    1.274   .     A
C152   O189    1.288   .     A
C152   C153    1.482   .     S
C152   O187    1.282   .     A
C153   C156    1.400   .     A
C155   C158    1.407   .     A
C155   H176    1.082   .     S
C156   H177    1.077   .     S
C156   C157    1.411   .     A
C157   C158    1.419   .     A
C157   C159    1.424   .     A
C158   C765    1.412   .     S
C159   C763    1.414   .     S
C160   C161    1.418   .     A
C160   C762    1.414   1_554 S
C161   N184    1.438   .     S
C161   C162    1.403   .     A
C162   N181    1.437   .     S
C162   C761    1.412   1_554 S
H167   N182    1.046   .     S
H168   N182    1.045   .     S
H169   N183    1.045   .     S
H170   N183    1.045   .     S
H171   N184    1.046   .     S
H172   N184    1.046   .     S
H173   C11     1.086   1_655 S
H174   C549    1.088   1_545 S
H175   C349    1.086   .     S
H179   N181    1.045   .     S
H180   N181    1.045   .     S
O185   Zn198   1.955   .     S
O185   Zn201   1.932   .     S
O185   Zn199   1.940   .     S
O185   Zn200   1.932   .     S
O186   Zn199   1.924   .     S
O187   Zn201   1.933   .     S
O188   Zn200   1.928   .     S
O189   Zn198   1.921   .     S
O190   Zn198   1.929   .     S
O191   Zn201   1.931   .     S
O192   Zn199   1.927   .     S
O193   Zn200   1.935   .     S
O194   Zn201   1.931   .     S
O195   Zn198   1.923   .     S
O196   Zn199   1.936   .     S
O197   Zn200   1.931   .     S
C202   O261    1.269   .     A
C202   O259    1.269   .     A
C202   C212    1.437   .     S
C203   C204    1.394   .     A
C203   C226    1.411   .     A
C203   H245    1.077   .     S
C204   Cl232   1.767   .     S
C204   C809    1.418   .     S
C205   O260    1.279   .     A
C205   C211    1.454   .     S
C205   O262    1.276   .     A
C206   C207    1.425   .     A
C206   C208    1.424   .     A
C206   C807    1.418   1_554 S
C207   C210    1.413   .     A
C207   C227    1.423   .     A
C208   N249    1.433   .     S
C208   C209    1.407   .     A
C209   Cl231   1.770   .     S
C209   C221    1.400   .     A
C210   Cl230   1.777   .     S
C210   C221    1.396   .     A
C211   C279    1.334   .     S
C211   H300    1.088   .     S
C212   C345    1.334   1_455 S
C212   H374    1.086   1_455 S
C213   C220    1.416   .     A
C213   C222    1.394   .     A
C213   N250    1.433   .     S
C214   C217    1.451   .     S
C214   C416    1.332   .     S
C214   H442    1.088   .     S
C215   C216    1.436   .     S
C216   O263    1.275   .     A
C216   O257    1.275   .     A
C217   O264    1.270   .     A
C217   O258    1.270   .     A
C218   C221    1.460   .     S
C218   O255    1.274   .     A
C218   O253    1.274   .     A
C219   O256    1.288   .     A
C219   C220    1.482   .     S
C219   O254    1.282   .     A
C220   C223    1.400   .     A
C222   C225    1.407   .     A
C222   H243    1.082   .     S
C223   H244    1.077   .     S
C223   C224    1.411   .     A
C224   C225    1.419   .     A
C224   C226    1.424   .     A
C225   C832    1.412   .     S
C226   C830    1.414   .     S
C227   C228    1.418   .     A
C227   C829    1.414   1_554 S
C228   N251    1.438   .     S
C228   C229    1.403   .     A
C229   N248    1.437   .     S
C229   C828    1.412   1_554 S
H233   C345    1.088   1_455 S
H234   N249    1.046   .     S
H235   N249    1.045   .     S
H236   N250    1.045   .     S
H237   N250    1.045   .     S
H238   N251    1.046   .     S
H239   N251    1.046   .     S
H240   C279    1.086   .     S
H242   C416    1.086   .     S
H246   N248    1.045   .     S
H247   N248    1.045   .     S
O252   Zn265   1.955   .     S
O252   Zn268   1.932   .     S
O252   Zn266   1.940   .     S
O252   Zn267   1.932   .     S
O253   Zn266   1.924   .     S
O254   Zn268   1.933   .     S
O255   Zn267   1.928   .     S
O256   Zn265   1.921   .     S
O257   Zn265   1.929   .     S
O258   Zn268   1.931   .     S
O259   Zn266   1.927   .     S
O260   Zn267   1.935   .     S
O261   Zn268   1.931   .     S
O262   Zn265   1.923   .     S
O263   Zn266   1.936   .     S
O264   Zn267   1.931   .     S
C269   O328    1.269   .     A
C269   O326    1.269   .     A
C269   C279    1.437   .     S
C270   C271    1.394   .     A
C270   C293    1.411   .     A
C270   H312    1.077   .     S
C271   Cl299   1.767   .     S
C271   C876    1.418   .     S
C272   O327    1.279   .     A
C272   C278    1.454   .     S
C272   O329    1.276   .     A
C273   C274    1.425   .     A
C273   C275    1.424   .     A
C273   C874    1.418   1_554 S
C274   C277    1.413   .     A
C274   C294    1.423   .     A
C275   N316    1.433   .     S
C275   C276    1.407   .     A
C276   Cl298   1.770   .     S
C276   C288    1.400   .     A
C277   Cl297   1.777   .     S
C277   C288    1.396   .     A
C278   C346    1.334   .     S
C278   H367    1.088   .     S
C280   C287    1.416   .     A
C280   C289    1.394   .     A
C280   N317    1.433   .     S
C281   C284    1.451   .     S
C281   C483    1.332   .     S
C281   H509    1.088   .     S
C282   C283    1.436   .     S
C283   O330    1.275   .     A
C283   O324    1.275   .     A
C284   O331    1.270   .     A
C284   O325    1.270   .     A
C285   C288    1.460   .     S
C285   O322    1.274   .     A
C285   O320    1.274   .     A
C286   O323    1.288   .     A
C286   C287    1.482   .     S
C286   O321    1.282   .     A
C287   C290    1.400   .     A
C289   C292    1.407   .     A
C289   H310    1.082   .     S
C290   H311    1.077   .     S
C290   C291    1.411   .     A
C291   C292    1.419   .     A
C291   C293    1.424   .     A
C292   C899    1.412   .     S
C293   C897    1.414   .     S
C294   C295    1.418   .     A
C294   C896    1.414   1_554 S
C295   N318    1.438   .     S
C295   C296    1.403   .     A
C296   N315    1.437   .     S
C296   C895    1.412   1_554 S
H301   N316    1.046   .     S
H302   N316    1.045   .     S
H303   N317    1.045   .     S
H304   N317    1.045   .     S
H305   N318    1.046   .     S
H306   N318    1.046   .     S
H307   C346    1.086   .     S
H309   C483    1.086   .     S
H313   N315    1.045   .     S
H314   N315    1.045   .     S
O319   Zn332   1.955   .     S
O319   Zn335   1.932   .     S
O319   Zn333   1.940   .     S
O319   Zn334   1.932   .     S
O320   Zn333   1.924   .     S
O321   Zn335   1.933   .     S
O322   Zn334   1.928   .     S
O323   Zn332   1.921   .     S
O324   Zn332   1.929   .     S
O325   Zn335   1.931   .     S
O326   Zn333   1.927   .     S
O327   Zn334   1.935   .     S
O328   Zn335   1.931   .     S
O329   Zn332   1.923   .     S
O330   Zn333   1.936   .     S
O331   Zn334   1.931   .     S
C336   O395    1.269   .     A
C336   O393    1.269   .     A
C336   C346    1.437   .     S
C337   C338    1.394   .     A
C337   C360    1.411   .     A
C337   H379    1.077   .     S
C338   Cl366   1.767   .     S
C338   C943    1.418   .     S
C339   O394    1.279   .     A
C339   C345    1.454   .     S
C339   O396    1.276   .     A
C340   C341    1.425   .     A
C340   C342    1.424   .     A
C340   C941    1.418   1_554 S
C341   C344    1.413   .     A
C341   C361    1.423   .     A
C342   N383    1.433   .     S
C342   C343    1.407   .     A
C343   Cl365   1.770   .     S
C343   C355    1.400   .     A
C344   Cl364   1.777   .     S
C344   C355    1.396   .     A
C345   C212    1.334   1_655 S
C345   H233    1.088   1_655 S
C347   C354    1.416   .     A
C347   C356    1.394   .     A
C347   N384    1.433   .     S
C348   C351    1.451   .     S
C348   C550    1.332   .     S
C348   H576    1.088   .     S
C349   C350    1.436   .     S
C350   O397    1.275   .     A
C350   O391    1.275   .     A
C351   O398    1.270   .     A
C351   O392    1.270   .     A
C352   C355    1.460   .     S
C352   O389    1.274   .     A
C352   O387    1.274   .     A
C353   O390    1.288   .     A
C353   C354    1.482   .     S
C353   O388    1.282   .     A
C354   C357    1.400   .     A
C356   C359    1.407   .     A
C356   H377    1.082   .     S
C357   H378    1.077   .     S
C357   C358    1.411   .     A
C358   C359    1.419   .     A
C358   C360    1.424   .     A
C359   C966    1.412   .     S
C360   C964    1.414   .     S
C361   C362    1.418   .     A
C361   C963    1.414   1_554 S
C362   N385    1.438   .     S
C362   C363    1.403   .     A
C363   N382    1.437   .     S
C363   C962    1.412   1_554 S
H368   N383    1.046   .     S
H369   N383    1.045   .     S
H370   N384    1.045   .     S
H371   N384    1.045   .     S
H372   N385    1.046   .     S
H373   N385    1.046   .     S
H374   C212    1.086   1_655 S
H376   C550    1.086   .     S
H380   N382    1.045   .     S
H381   N382    1.045   .     S
O386   Zn399   1.955   .     S
O386   Zn402   1.932   .     S
O386   Zn400   1.940   .     S
O386   Zn401   1.932   .     S
O387   Zn400   1.924   .     S
O388   Zn402   1.933   .     S
O389   Zn401   1.928   .     S
O390   Zn399   1.921   .     S
O391   Zn399   1.929   .     S
O392   Zn402   1.931   .     S
O393   Zn400   1.927   .     S
O394   Zn401   1.935   .     S
O395   Zn402   1.931   .     S
O396   Zn399   1.923   .     S
O397   Zn400   1.936   .     S
O398   Zn401   1.931   .     S
C403   O462    1.269   .     A
C403   O460    1.269   .     A
C403   C413    1.437   .     S
C404   C405    1.394   .     A
C404   C427    1.411   .     A
C404   H446    1.077   .     S
C405   Cl433   1.767   .     S
C405   C1010   1.418   .     S
C406   O461    1.279   .     A
C406   C412    1.454   .     S
C406   O463    1.276   .     A
C407   C408    1.425   .     A
C407   C409    1.424   .     A
C407   C1008   1.418   1_554 S
C408   C411    1.413   .     A
C408   C428    1.423   .     A
C409   N450    1.433   .     S
C409   C410    1.407   .     A
C410   Cl432   1.770   .     S
C410   C422    1.400   .     A
C411   Cl431   1.777   .     S
C411   C422    1.396   .     A
C412   C480    1.334   .     S
C412   H501    1.088   .     S
C413   C546    1.334   1_455 S
C413   H575    1.086   1_455 S
C414   C421    1.416   .     A
C414   C423    1.394   .     A
C414   N451    1.433   .     S
C415   C418    1.451   .     S
C415   C14     1.332   1_565 S
C415   H40     1.088   1_565 S
C416   C417    1.436   .     S
C417   O464    1.275   .     A
C417   O458    1.275   .     A
C418   O465    1.270   .     A
C418   O459    1.270   .     A
C419   C422    1.460   .     S
C419   O456    1.274   .     A
C419   O454    1.274   .     A
C420   O457    1.288   .     A
C420   C421    1.482   .     S
C420   O455    1.282   .     A
C421   C424    1.400   .     A
C423   C426    1.407   .     A
C423   H444    1.082   .     S
C424   H445    1.077   .     S
C424   C425    1.411   .     A
C425   C426    1.419   .     A
C425   C427    1.424   .     A
C426   C1033   1.412   .     S
C427   C1031   1.414   .     S
C428   C429    1.418   .     A
C428   C1030   1.414   1_554 S
C429   N452    1.438   .     S
C429   C430    1.403   .     A
C430   N449    1.437   .     S
C430   C1029   1.412   1_554 S
H434   C546    1.088   1_455 S
H435   N450    1.046   .     S
H436   N450    1.045   .     S
H437   N451    1.045   .     S
H438   N451    1.045   .     S
H439   N452    1.046   .     S
H440   N452    1.046   .     S
H441   C480    1.086   .     S
H443   C14     1.086   1_565 S
H447   N449    1.045   .     S
H448   N449    1.045   .     S
O453   Zn466   1.955   .     S
O453   Zn469   1.932   .     S
O453   Zn467   1.940   .     S
O453   Zn468   1.932   .     S
O454   Zn467   1.924   .     S
O455   Zn469   1.933   .     S
O456   Zn468   1.928   .     S
O457   Zn466   1.921   .     S
O458   Zn466   1.929   .     S
O459   Zn469   1.931   .     S
O460   Zn467   1.927   .     S
O461   Zn468   1.935   .     S
O462   Zn469   1.931   .     S
O463   Zn466   1.923   .     S
O464   Zn467   1.936   .     S
O465   Zn468   1.931   .     S
C470   O529    1.269   .     A
C470   O527    1.269   .     A
C470   C480    1.437   .     S
C471   C472    1.394   .     A
C471   C494    1.411   .     A
C471   H513    1.077   .     S
C472   Cl500   1.767   .     S
C472   C1077   1.418   .     S
C473   O528    1.279   .     A
C473   C479    1.454   .     S
C473   O530    1.276   .     A
C474   C475    1.425   .     A
C474   C476    1.424   .     A
C474   C1075   1.418   1_554 S
C475   C478    1.413   .     A
C475   C495    1.423   .     A
C476   N517    1.433   .     S
C476   C477    1.407   .     A
C477   Cl499   1.770   .     S
C477   C489    1.400   .     A
C478   Cl498   1.777   .     S
C478   C489    1.396   .     A
C479   C547    1.334   .     S
C479   H568    1.088   .     S
C481   C488    1.416   .     A
C481   C490    1.394   .     A
C481   N518    1.433   .     S
C482   C485    1.451   .     S
C482   C81     1.332   1_565 S
C482   H107    1.088   1_565 S
C483   C484    1.436   .     S
C484   O531    1.275   .     A
C484   O525    1.275   .     A
C485   O532    1.270   .     A
C485   O526    1.270   .     A
C486   C489    1.460   .     S
C486   O523    1.274   .     A
C486   O521    1.274   .     A
C487   O524    1.288   .     A
C487   C488    1.482   .     S
C487   O522    1.282   .     A
C488   C491    1.400   .     A
C490   C493    1.407   .     A
C490   H511    1.082   .     S
C491   H512    1.077   .     S
C491   C492    1.411   .     A
C492   C493    1.419   .     A
C492   C494    1.424   .     A
C493   C1100   1.412   .     S
C494   C1098   1.414   .     S
C495   C496    1.418   .     A
C495   C1097   1.414   1_554 S
C496   N519    1.438   .     S
C496   C497    1.403   .     A
C497   N516    1.437   .     S
C497   C1096   1.412   1_554 S
H502   N517    1.046   .     S
H503   N517    1.045   .     S
H504   N518    1.045   .     S
H505   N518    1.045   .     S
H506   N519    1.046   .     S
H507   N519    1.046   .     S
H508   C547    1.086   .     S
H510   C81     1.086   1_565 S
H514   N516    1.045   .     S
H515   N516    1.045   .     S
O520   Zn533   1.955   .     S
O520   Zn536   1.932   .     S
O520   Zn534   1.940   .     S
O520   Zn535   1.932   .     S
O521   Zn534   1.924   .     S
O522   Zn536   1.933   .     S
O523   Zn535   1.928   .     S
O524   Zn533   1.921   .     S
O525   Zn533   1.929   .     S
O526   Zn536   1.931   .     S
O527   Zn534   1.927   .     S
O528   Zn535   1.935   .     S
O529   Zn536   1.931   .     S
O530   Zn533   1.923   .     S
O531   Zn534   1.936   .     S
O532   Zn535   1.931   .     S
C537   O596    1.269   .     A
C537   O594    1.269   .     A
C537   C547    1.437   .     S
C538   C539    1.394   .     A
C538   C561    1.411   .     A
C538   H580    1.077   .     S
C539   Cl567   1.767   .     S
C539   C1144   1.418   .     S
C540   O595    1.279   .     A
C540   C546    1.454   .     S
C540   O597    1.276   .     A
C541   C542    1.425   .     A
C541   C543    1.424   .     A
C541   C1142   1.418   1_554 S
C542   C545    1.413   .     A
C542   C562    1.423   .     A
C543   N584    1.433   .     S
C543   C544    1.407   .     A
C544   Cl566   1.770   .     S
C544   C556    1.400   .     A
C545   Cl565   1.777   .     S
C545   C556    1.396   .     A
C546   C413    1.334   1_655 S
C546   H434    1.088   1_655 S
C548   C555    1.416   .     A
C548   C557    1.394   .     A
C548   N585    1.433   .     S
C549   C552    1.451   .     S
C549   C148    1.332   1_565 S
C549   H174    1.088   1_565 S
C550   C551    1.436   .     S
C551   O598    1.275   .     A
C551   O592    1.275   .     A
C552   O599    1.270   .     A
C552   O593    1.270   .     A
C553   C556    1.460   .     S
C553   O590    1.274   .     A
C553   O588    1.274   .     A
C554   O591    1.288   .     A
C554   C555    1.482   .     S
C554   O589    1.282   .     A
C555   C558    1.400   .     A
C557   C560    1.407   .     A
C557   H578    1.082   .     S
C558   H579    1.077   .     S
C558   C559    1.411   .     A
C559   C560    1.419   .     A
C559   C561    1.424   .     A
C560   C1167   1.412   .     S
C561   C1165   1.414   .     S
C562   C563    1.418   .     A
C562   C1164   1.414   1_554 S
C563   N586    1.438   .     S
C563   C564    1.403   .     A
C564   N583    1.437   .     S
C564   C1163   1.412   1_554 S
H569   N584    1.046   .     S
H570   N584    1.045   .     S
H571   N585    1.045   .     S
H572   N585    1.045   .     S
H573   N586    1.046   .     S
H574   N586    1.046   .     S
H575   C413    1.086   1_655 S
H577   C148    1.086   1_565 S
H581   N583    1.045   .     S
H582   N583    1.045   .     S
O587   Zn600   1.955   .     S
O587   Zn603   1.932   .     S
O587   Zn601   1.940   .     S
O587   Zn602   1.932   .     S
O588   Zn601   1.924   .     S
O589   Zn603   1.933   .     S
O590   Zn602   1.928   .     S
O591   Zn600   1.921   .     S
O592   Zn600   1.929   .     S
O593   Zn603   1.931   .     S
O594   Zn601   1.927   .     S
O595   Zn602   1.935   .     S
O596   Zn603   1.931   .     S
O597   Zn600   1.923   .     S
O598   Zn601   1.936   .     S
O599   Zn602   1.931   .     S
C604   O663    1.269   .     A
C604   O661    1.269   .     A
C604   C614    1.437   .     S
C605   C606    1.394   .     A
C605   C628    1.411   .     A
C605   H647    1.077   .     S
C606   Cl634   1.767   .     S
C606   C5      1.418   1_556 S
C607   O662    1.279   .     A
C607   C613    1.454   .     S
C607   O664    1.276   .     A
C608   C609    1.425   .     A
C608   C610    1.424   .     A
C609   C612    1.413   .     A
C609   C629    1.423   .     A
C610   N651    1.433   .     S
C610   C611    1.407   .     A
C611   Cl633   1.770   .     S
C611   C623    1.400   .     A
C612   Cl632   1.777   .     S
C612   C623    1.396   .     A
C613   C681    1.334   .     S
C613   H702    1.088   .     S
C614   C747    1.334   1_455 S
C614   H776    1.086   1_455 S
C615   C622    1.416   .     A
C615   C624    1.394   .     A
C615   N652    1.433   .     S
C616   C619    1.451   .     S
C616   C818    1.332   .     S
C616   H844    1.088   .     S
C617   C618    1.436   .     S
C617   C1018   1.332   1_545 S
C617   H1046   1.086   1_545 S
C618   O665    1.275   .     A
C618   O659    1.275   .     A
C619   O666    1.270   .     A
C619   O660    1.270   .     A
C620   C623    1.460   .     S
C620   O657    1.274   .     A
C620   O655    1.274   .     A
C621   O658    1.288   .     A
C621   C622    1.482   .     S
C621   O656    1.282   .     A
C622   C625    1.400   .     A
C624   C627    1.407   .     A
C624   H645    1.082   .     S
C625   H646    1.077   .     S
C625   C626    1.411   .     A
C626   C627    1.419   .     A
C626   C628    1.424   .     A
C627   C28     1.412   1_556 S
C628   C26     1.414   1_556 S
C629   C630    1.418   .     A
C630   N653    1.438   .     S
C630   C631    1.403   .     A
C631   N650    1.437   .     S
H635   C747    1.088   1_455 S
H636   N651    1.046   .     S
H637   N651    1.045   .     S
H638   N652    1.045   .     S
H639   N652    1.045   .     S
H640   N653    1.046   .     S
H641   N653    1.046   .     S
H642   C681    1.086   .     S
H643   C1018   1.088   1_545 S
H644   C818    1.086   .     S
H648   N650    1.045   .     S
H649   N650    1.045   .     S
O654   Zn667   1.955   .     S
O654   Zn670   1.932   .     S
O654   Zn668   1.940   .     S
O654   Zn669   1.932   .     S
O655   Zn668   1.924   .     S
O656   Zn670   1.933   .     S
O657   Zn669   1.928   .     S
O658   Zn667   1.921   .     S
O659   Zn667   1.929   .     S
O660   Zn670   1.931   .     S
O661   Zn668   1.927   .     S
O662   Zn669   1.935   .     S
O663   Zn670   1.931   .     S
O664   Zn667   1.923   .     S
O665   Zn668   1.936   .     S
O666   Zn669   1.931   .     S
C671   O730    1.269   .     A
C671   O728    1.269   .     A
C671   C681    1.437   .     S
C672   C673    1.394   .     A
C672   C695    1.411   .     A
C672   H714    1.077   .     S
C673   Cl701   1.767   .     S
C673   C72     1.418   1_556 S
C674   O729    1.279   .     A
C674   C680    1.454   .     S
C674   O731    1.276   .     A
C675   C676    1.425   .     A
C675   C677    1.424   .     A
C676   C679    1.413   .     A
C676   C696    1.423   .     A
C677   N718    1.433   .     S
C677   C678    1.407   .     A
C678   Cl700   1.770   .     S
C678   C690    1.400   .     A
C679   Cl699   1.777   .     S
C679   C690    1.396   .     A
C680   C748    1.334   .     S
C680   H769    1.088   .     S
C682   C689    1.416   .     A
C682   C691    1.394   .     A
C682   N719    1.433   .     S
C683   C686    1.451   .     S
C683   C885    1.332   .     S
C683   H911    1.088   .     S
C684   C685    1.436   .     S
C684   C1085   1.332   1_545 S
C684   H1113   1.086   1_545 S
C685   O732    1.275   .     A
C685   O726    1.275   .     A
C686   O733    1.270   .     A
C686   O727    1.270   .     A
C687   C690    1.460   .     S
C687   O724    1.274   .     A
C687   O722    1.274   .     A
C688   O725    1.288   .     A
C688   C689    1.482   .     S
C688   O723    1.282   .     A
C689   C692    1.400   .     A
C691   C694    1.407   .     A
C691   H712    1.082   .     S
C692   H713    1.077   .     S
C692   C693    1.411   .     A
C693   C694    1.419   .     A
C693   C695    1.424   .     A
C694   C95     1.412   1_556 S
C695   C93     1.414   1_556 S
C696   C697    1.418   .     A
C697   N720    1.438   .     S
C697   C698    1.403   .     A
C698   N717    1.437   .     S
H703   N718    1.046   .     S
H704   N718    1.045   .     S
H705   N719    1.045   .     S
H706   N719    1.045   .     S
H707   N720    1.046   .     S
H708   N720    1.046   .     S
H709   C748    1.086   .     S
H710   C1085   1.088   1_545 S
H711   C885    1.086   .     S
H715   N717    1.045   .     S
H716   N717    1.045   .     S
O721   Zn734   1.955   .     S
O721   Zn737   1.932   .     S
O721   Zn735   1.940   .     S
O721   Zn736   1.932   .     S
O722   Zn735   1.924   .     S
O723   Zn737   1.933   .     S
O724   Zn736   1.928   .     S
O725   Zn734   1.921   .     S
O726   Zn734   1.929   .     S
O727   Zn737   1.931   .     S
O728   Zn735   1.927   .     S
O729   Zn736   1.935   .     S
O730   Zn737   1.931   .     S
O731   Zn734   1.923   .     S
O732   Zn735   1.936   .     S
O733   Zn736   1.931   .     S
C738   O797    1.269   .     A
C738   O795    1.269   .     A
C738   C748    1.437   .     S
C739   C740    1.394   .     A
C739   C762    1.411   .     A
C739   H781    1.077   .     S
C740   Cl768   1.767   .     S
C740   C139    1.418   1_556 S
C741   O796    1.279   .     A
C741   C747    1.454   .     S
C741   O798    1.276   .     A
C742   C743    1.425   .     A
C742   C744    1.424   .     A
C743   C746    1.413   .     A
C743   C763    1.423   .     A
C744   N785    1.433   .     S
C744   C745    1.407   .     A
C745   Cl767   1.770   .     S
C745   C757    1.400   .     A
C746   Cl766   1.777   .     S
C746   C757    1.396   .     A
C747   C614    1.334   1_655 S
C747   H635    1.088   1_655 S
C749   C756    1.416   .     A
C749   C758    1.394   .     A
C749   N786    1.433   .     S
C750   C753    1.451   .     S
C750   C952    1.332   .     S
C750   H978    1.088   .     S
C751   C752    1.436   .     S
C751   C1152   1.332   1_545 S
C751   H1180   1.086   1_545 S
C752   O799    1.275   .     A
C752   O793    1.275   .     A
C753   O800    1.270   .     A
C753   O794    1.270   .     A
C754   C757    1.460   .     S
C754   O791    1.274   .     A
C754   O789    1.274   .     A
C755   O792    1.288   .     A
C755   C756    1.482   .     S
C755   O790    1.282   .     A
C756   C759    1.400   .     A
C758   C761    1.407   .     A
C758   H779    1.082   .     S
C759   H780    1.077   .     S
C759   C760    1.411   .     A
C760   C761    1.419   .     A
C760   C762    1.424   .     A
C761   C162    1.412   1_556 S
C762   C160    1.414   1_556 S
C763   C764    1.418   .     A
C764   N787    1.438   .     S
C764   C765    1.403   .     A
C765   N784    1.437   .     S
H770   N785    1.046   .     S
H771   N785    1.045   .     S
H772   N786    1.045   .     S
H773   N786    1.045   .     S
H774   N787    1.046   .     S
H775   N787    1.046   .     S
H776   C614    1.086   1_655 S
H777   C1152   1.088   1_545 S
H778   C952    1.086   .     S
H782   N784    1.045   .     S
H783   N784    1.045   .     S
O788   Zn801   1.955   .     S
O788   Zn804   1.932   .     S
O788   Zn802   1.940   .     S
O788   Zn803   1.932   .     S
O789   Zn802   1.924   .     S
O790   Zn804   1.933   .     S
O791   Zn803   1.928   .     S
O792   Zn801   1.921   .     S
O793   Zn801   1.929   .     S
O794   Zn804   1.931   .     S
O795   Zn802   1.927   .     S
O796   Zn803   1.935   .     S
O797   Zn804   1.931   .     S
O798   Zn801   1.923   .     S
O799   Zn802   1.936   .     S
O800   Zn803   1.931   .     S
C805   O864    1.269   .     A
C805   O862    1.269   .     A
C805   C815    1.437   .     S
C806   C807    1.394   .     A
C806   C829    1.411   .     A
C806   H848    1.077   .     S
C807   Cl835   1.767   .     S
C807   C206    1.418   1_556 S
C808   O863    1.279   .     A
C808   C814    1.454   .     S
C808   O865    1.276   .     A
C809   C810    1.425   .     A
C809   C811    1.424   .     A
C810   C813    1.413   .     A
C810   C830    1.423   .     A
C811   N852    1.433   .     S
C811   C812    1.407   .     A
C812   Cl834   1.770   .     S
C812   C824    1.400   .     A
C813   Cl833   1.777   .     S
C813   C824    1.396   .     A
C814   C882    1.334   .     S
C814   H903    1.088   .     S
C815   C948    1.334   1_455 S
C815   H977    1.086   1_455 S
C816   C823    1.416   .     A
C816   C825    1.394   .     A
C816   N853    1.433   .     S
C817   C820    1.451   .     S
C817   C1019   1.332   .     S
C817   H1045   1.088   .     S
C818   C819    1.436   .     S
C819   O866    1.275   .     A
C819   O860    1.275   .     A
C820   O867    1.270   .     A
C820   O861    1.270   .     A
C821   C824    1.460   .     S
C821   O858    1.274   .     A
C821   O856    1.274   .     A
C822   O859    1.288   .     A
C822   C823    1.482   .     S
C822   O857    1.282   .     A
C823   C826    1.400   .     A
C825   C828    1.407   .     A
C825   H846    1.082   .     S
C826   H847    1.077   .     S
C826   C827    1.411   .     A
C827   C828    1.419   .     A
C827   C829    1.424   .     A
C828   C229    1.412   1_556 S
C829   C227    1.414   1_556 S
C830   C831    1.418   .     A
C831   N854    1.438   .     S
C831   C832    1.403   .     A
C832   N851    1.437   .     S
H836   C948    1.088   1_455 S
H837   N852    1.046   .     S
H838   N852    1.045   .     S
H839   N853    1.045   .     S
H840   N853    1.045   .     S
H841   N854    1.046   .     S
H842   N854    1.046   .     S
H843   C882    1.086   .     S
H845   C1019   1.086   .     S
H849   N851    1.045   .     S
H850   N851    1.045   .     S
O855   Zn868   1.955   .     S
O855   Zn871   1.932   .     S
O855   Zn869   1.940   .     S
O855   Zn870   1.932   .     S
O856   Zn869   1.924   .     S
O857   Zn871   1.933   .     S
O858   Zn870   1.928   .     S
O859   Zn868   1.921   .     S
O860   Zn868   1.929   .     S
O861   Zn871   1.931   .     S
O862   Zn869   1.927   .     S
O863   Zn870   1.935   .     S
O864   Zn871   1.931   .     S
O865   Zn868   1.923   .     S
O866   Zn869   1.936   .     S
O867   Zn870   1.931   .     S
C872   O931    1.269   .     A
C872   O929    1.269   .     A
C872   C882    1.437   .     S
C873   C874    1.394   .     A
C873   C896    1.411   .     A
C873   H915    1.077   .     S
C874   Cl902   1.767   .     S
C874   C273    1.418   1_556 S
C875   O930    1.279   .     A
C875   C881    1.454   .     S
C875   O932    1.276   .     A
C876   C877    1.425   .     A
C876   C878    1.424   .     A
C877   C880    1.413   .     A
C877   C897    1.423   .     A
C878   N919    1.433   .     S
C878   C879    1.407   .     A
C879   Cl901   1.770   .     S
C879   C891    1.400   .     A
C880   Cl900   1.777   .     S
C880   C891    1.396   .     A
C881   C949    1.334   .     S
C881   H970    1.088   .     S
C883   C890    1.416   .     A
C883   C892    1.394   .     A
C883   N920    1.433   .     S
C884   C887    1.451   .     S
C884   C1086   1.332   .     S
C884   H1112   1.088   .     S
C885   C886    1.436   .     S
C886   O933    1.275   .     A
C886   O927    1.275   .     A
C887   O934    1.270   .     A
C887   O928    1.270   .     A
C888   C891    1.460   .     S
C888   O925    1.274   .     A
C888   O923    1.274   .     A
C889   O926    1.288   .     A
C889   C890    1.482   .     S
C889   O924    1.282   .     A
C890   C893    1.400   .     A
C892   C895    1.407   .     A
C892   H913    1.082   .     S
C893   H914    1.077   .     S
C893   C894    1.411   .     A
C894   C895    1.419   .     A
C894   C896    1.424   .     A
C895   C296    1.412   1_556 S
C896   C294    1.414   1_556 S
C897   C898    1.418   .     A
C898   N921    1.438   .     S
C898   C899    1.403   .     A
C899   N918    1.437   .     S
H904   N919    1.046   .     S
H905   N919    1.045   .     S
H906   N920    1.045   .     S
H907   N920    1.045   .     S
H908   N921    1.046   .     S
H909   N921    1.046   .     S
H910   C949    1.086   .     S
H912   C1086   1.086   .     S
H916   N918    1.045   .     S
H917   N918    1.045   .     S
O922   Zn935   1.955   .     S
O922   Zn938   1.932   .     S
O922   Zn936   1.940   .     S
O922   Zn937   1.932   .     S
O923   Zn936   1.924   .     S
O924   Zn938   1.933   .     S
O925   Zn937   1.928   .     S
O926   Zn935   1.921   .     S
O927   Zn935   1.929   .     S
O928   Zn938   1.931   .     S
O929   Zn936   1.927   .     S
O930   Zn937   1.935   .     S
O931   Zn938   1.931   .     S
O932   Zn935   1.923   .     S
O933   Zn936   1.936   .     S
O934   Zn937   1.931   .     S
C939   O998    1.269   .     A
C939   O996    1.269   .     A
C939   C949    1.437   .     S
C940   C941    1.394   .     A
C940   C963    1.411   .     A
C940   H982    1.077   .     S
C941   Cl969   1.767   .     S
C941   C340    1.418   1_556 S
C942   O997    1.279   .     A
C942   C948    1.454   .     S
C942   O999    1.276   .     A
C943   C944    1.425   .     A
C943   C945    1.424   .     A
C944   C947    1.413   .     A
C944   C964    1.423   .     A
C945   N986    1.433   .     S
C945   C946    1.407   .     A
C946   Cl968   1.770   .     S
C946   C958    1.400   .     A
C947   Cl967   1.777   .     S
C947   C958    1.396   .     A
C948   C815    1.334   1_655 S
C948   H836    1.088   1_655 S
C950   C957    1.416   .     A
C950   C959    1.394   .     A
C950   N987    1.433   .     S
C951   C954    1.451   .     S
C951   C1153   1.332   .     S
C951   H1179   1.088   .     S
C952   C953    1.436   .     S
C953   O1000   1.275   .     A
C953   O994    1.275   .     A
C954   O1001   1.270   .     A
C954   O995    1.270   .     A
C955   C958    1.460   .     S
C955   O992    1.274   .     A
C955   O990    1.274   .     A
C956   O993    1.288   .     A
C956   C957    1.482   .     S
C956   O991    1.282   .     A
C957   C960    1.400   .     A
C959   C962    1.407   .     A
C959   H980    1.082   .     S
C960   H981    1.077   .     S
C960   C961    1.411   .     A
C961   C962    1.419   .     A
C961   C963    1.424   .     A
C962   C363    1.412   1_556 S
C963   C361    1.414   1_556 S
C964   C965    1.418   .     A
C965   N988    1.438   .     S
C965   C966    1.403   .     A
C966   N985    1.437   .     S
H971   N986    1.046   .     S
H972   N986    1.045   .     S
H973   N987    1.045   .     S
H974   N987    1.045   .     S
H975   N988    1.046   .     S
H976   N988    1.046   .     S
H977   C815    1.086   1_655 S
H979   C1153   1.086   .     S
H983   N985    1.045   .     S
H984   N985    1.045   .     S
O989   Zn1002  1.955   .     S
O989   Zn1005  1.932   .     S
O989   Zn1003  1.940   .     S
O989   Zn1004  1.932   .     S
O990   Zn1003  1.924   .     S
O991   Zn1005  1.933   .     S
O992   Zn1004  1.928   .     S
O993   Zn1002  1.921   .     S
O994   Zn1002  1.929   .     S
O995   Zn1005  1.931   .     S
O996   Zn1003  1.927   .     S
O997   Zn1004  1.935   .     S
O998   Zn1005  1.931   .     S
O999   Zn1002  1.923   .     S
O1000  Zn1003  1.936   .     S
O1001  Zn1004  1.931   .     S
C1006  O1065   1.269   .     A
C1006  O1063   1.269   .     A
C1006  C1016   1.437   .     S
C1007  C1008   1.394   .     A
C1007  C1030   1.411   .     A
C1007  H1049   1.077   .     S
C1008  Cl1036  1.767   .     S
C1008  C407    1.418   1_556 S
C1009  O1064   1.279   .     A
C1009  C1015   1.454   .     S
C1009  O1066   1.276   .     A
C1010  C1011   1.425   .     A
C1010  C1012   1.424   .     A
C1011  C1014   1.413   .     A
C1011  C1031   1.423   .     A
C1012  N1053   1.433   .     S
C1012  C1013   1.407   .     A
C1013  Cl1035  1.770   .     S
C1013  C1025   1.400   .     A
C1014  Cl1034  1.777   .     S
C1014  C1025   1.396   .     A
C1015  C1083   1.334   .     S
C1015  H1104   1.088   .     S
C1016  C1149   1.334   1_455 S
C1016  H1178   1.086   1_455 S
C1017  C1024   1.416   .     A
C1017  C1026   1.394   .     A
C1017  N1054   1.433   .     S
C1018  C1021   1.451   .     S
C1018  C617    1.332   1_565 S
C1018  H643    1.088   1_565 S
C1019  C1020   1.436   .     S
C1020  O1067   1.275   .     A
C1020  O1061   1.275   .     A
C1021  O1068   1.270   .     A
C1021  O1062   1.270   .     A
C1022  C1025   1.460   .     S
C1022  O1059   1.274   .     A
C1022  O1057   1.274   .     A
C1023  O1060   1.288   .     A
C1023  C1024   1.482   .     S
C1023  O1058   1.282   .     A
C1024  C1027   1.400   .     A
C1026  C1029   1.407   .     A
C1026  H1047   1.082   .     S
C1027  H1048   1.077   .     S
C1027  C1028   1.411   .     A
C1028  C1029   1.419   .     A
C1028  C1030   1.424   .     A
C1029  C430    1.412   1_556 S
C1030  C428    1.414   1_556 S
C1031  C1032   1.418   .     A
C1032  N1055   1.438   .     S
C1032  C1033   1.403   .     A
C1033  N1052   1.437   .     S
H1037  C1149   1.088   1_455 S
H1038  N1053   1.046   .     S
H1039  N1053   1.045   .     S
H1040  N1054   1.045   .     S
H1041  N1054   1.045   .     S
H1042  N1055   1.046   .     S
H1043  N1055   1.046   .     S
H1044  C1083   1.086   .     S
H1046  C617    1.086   1_565 S
H1050  N1052   1.045   .     S
H1051  N1052   1.045   .     S
O1056  Zn1069  1.955   .     S
O1056  Zn1072  1.932   .     S
O1056  Zn1070  1.940   .     S
O1056  Zn1071  1.932   .     S
O1057  Zn1070  1.924   .     S
O1058  Zn1072  1.933   .     S
O1059  Zn1071  1.928   .     S
O1060  Zn1069  1.921   .     S
O1061  Zn1069  1.929   .     S
O1062  Zn1072  1.931   .     S
O1063  Zn1070  1.927   .     S
O1064  Zn1071  1.935   .     S
O1065  Zn1072  1.931   .     S
O1066  Zn1069  1.923   .     S
O1067  Zn1070  1.936   .     S
O1068  Zn1071  1.931   .     S
C1073  O1132   1.269   .     A
C1073  O1130   1.269   .     A
C1073  C1083   1.437   .     S
C1074  C1075   1.394   .     A
C1074  C1097   1.411   .     A
C1074  H1116   1.077   .     S
C1075  Cl1103  1.767   .     S
C1075  C474    1.418   1_556 S
C1076  O1131   1.279   .     A
C1076  C1082   1.454   .     S
C1076  O1133   1.276   .     A
C1077  C1078   1.425   .     A
C1077  C1079   1.424   .     A
C1078  C1081   1.413   .     A
C1078  C1098   1.423   .     A
C1079  N1120   1.433   .     S
C1079  C1080   1.407   .     A
C1080  Cl1102  1.770   .     S
C1080  C1092   1.400   .     A
C1081  Cl1101  1.777   .     S
C1081  C1092   1.396   .     A
C1082  C1150   1.334   .     S
C1082  H1171   1.088   .     S
C1084  C1091   1.416   .     A
C1084  C1093   1.394   .     A
C1084  N1121   1.433   .     S
C1085  C1088   1.451   .     S
C1085  C684    1.332   1_565 S
C1085  H710    1.088   1_565 S
C1086  C1087   1.436   .     S
C1087  O1134   1.275   .     A
C1087  O1128   1.275   .     A
C1088  O1135   1.270   .     A
C1088  O1129   1.270   .     A
C1089  C1092   1.460   .     S
C1089  O1126   1.274   .     A
C1089  O1124   1.274   .     A
C1090  O1127   1.288   .     A
C1090  C1091   1.482   .     S
C1090  O1125   1.282   .     A
C1091  C1094   1.400   .     A
C1093  C1096   1.407   .     A
C1093  H1114   1.082   .     S
C1094  H1115   1.077   .     S
C1094  C1095   1.411   .     A
C1095  C1096   1.419   .     A
C1095  C1097   1.424   .     A
C1096  C497    1.412   1_556 S
C1097  C495    1.414   1_556 S
C1098  C1099   1.418   .     A
C1099  N1122   1.438   .     S
C1099  C1100   1.403   .     A
C1100  N1119   1.437   .     S
H1105  N1120   1.046   .     S
H1106  N1120   1.045   .     S
H1107  N1121   1.045   .     S
H1108  N1121   1.045   .     S
H1109  N1122   1.046   .     S
H1110  N1122   1.046   .     S
H1111  C1150   1.086   .     S
H1113  C684    1.086   1_565 S
H1117  N1119   1.045   .     S
H1118  N1119   1.045   .     S
O1123  Zn1136  1.955   .     S
O1123  Zn1139  1.932   .     S
O1123  Zn1137  1.940   .     S
O1123  Zn1138  1.932   .     S
O1124  Zn1137  1.924   .     S
O1125  Zn1139  1.933   .     S
O1126  Zn1138  1.928   .     S
O1127  Zn1136  1.921   .     S
O1128  Zn1136  1.929   .     S
O1129  Zn1139  1.931   .     S
O1130  Zn1137  1.927   .     S
O1131  Zn1138  1.935   .     S
O1132  Zn1139  1.931   .     S
O1133  Zn1136  1.923   .     S
O1134  Zn1137  1.936   .     S
O1135  Zn1138  1.931   .     S
C1140  O1199   1.269   .     A
C1140  O1197   1.269   .     A
C1140  C1150   1.437   .     S
C1141  C1142   1.394   .     A
C1141  C1164   1.411   .     A
C1141  H1183   1.077   .     S
C1142  Cl1170  1.767   .     S
C1142  C541    1.418   1_556 S
C1143  O1198   1.279   .     A
C1143  C1149   1.454   .     S
C1143  O1200   1.276   .     A
C1144  C1145   1.425   .     A
C1144  C1146   1.424   .     A
C1145  C1148   1.413   .     A
C1145  C1165   1.423   .     A
C1146  N1187   1.433   .     S
C1146  C1147   1.407   .     A
C1147  Cl1169  1.770   .     S
C1147  C1159   1.400   .     A
C1148  Cl1168  1.777   .     S
C1148  C1159   1.396   .     A
C1149  C1016   1.334   1_655 S
C1149  H1037   1.088   1_655 S
C1151  C1158   1.416   .     A
C1151  C1160   1.394   .     A
C1151  N1188   1.433   .     S
C1152  C1155   1.451   .     S
C1152  C751    1.332   1_565 S
C1152  H777    1.088   1_565 S
C1153  C1154   1.436   .     S
C1154  O1201   1.275   .     A
C1154  O1195   1.275   .     A
C1155  O1202   1.270   .     A
C1155  O1196   1.270   .     A
C1156  C1159   1.460   .     S
C1156  O1193   1.274   .     A
C1156  O1191   1.274   .     A
C1157  O1194   1.288   .     A
C1157  C1158   1.482   .     S
C1157  O1192   1.282   .     A
C1158  C1161   1.400   .     A
C1160  C1163   1.407   .     A
C1160  H1181   1.082   .     S
C1161  H1182   1.077   .     S
C1161  C1162   1.411   .     A
C1162  C1163   1.419   .     A
C1162  C1164   1.424   .     A
C1163  C564    1.412   1_556 S
C1164  C562    1.414   1_556 S
C1165  C1166   1.418   .     A
C1166  N1189   1.438   .     S
C1166  C1167   1.403   .     A
C1167  N1186   1.437   .     S
H1172  N1187   1.046   .     S
H1173  N1187   1.045   .     S
H1174  N1188   1.045   .     S
H1175  N1188   1.045   .     S
H1176  N1189   1.046   .     S
H1177  N1189   1.046   .     S
H1178  C1016   1.086   1_655 S
H1180  C751    1.086   1_565 S
H1184  N1186   1.045   .     S
H1185  N1186   1.045   .     S
O1190  Zn1203  1.955   .     S
O1190  Zn1206  1.932   .     S
O1190  Zn1204  1.940   .     S
O1190  Zn1205  1.932   .     S
O1191  Zn1204  1.924   .     S
O1192  Zn1206  1.933   .     S
O1193  Zn1205  1.928   .     S
O1194  Zn1203  1.921   .     S
O1195  Zn1203  1.929   .     S
O1196  Zn1206  1.931   .     S
O1197  Zn1204  1.927   .     S
O1198  Zn1205  1.935   .     S
O1199  Zn1206  1.931   .     S
O1200  Zn1203  1.923   .     S
O1201  Zn1204  1.936   .     S
O1202  Zn1205  1.931   .     S
