data_str_m1_o2_o5_pcu_sym.25
_audit_creation_date              2020-01-03
_audit_creation_method            'Materials Studio'
_symmetry_space_group_name_H-M    'P1'
_symmetry_Int_Tables_number       1
_symmetry_cell_setting            triclinic
loop_
_symmetry_equiv_pos_as_xyz
  x,y,z
_cell_length_a                    24.4395
_cell_length_b                    24.4517
_cell_length_c                    22.4227
_cell_angle_alpha                 90.0005
_cell_angle_beta                  90.0002
_cell_angle_gamma                 89.9899
loop_
_atom_site_label
_atom_site_type_symbol
_atom_site_fract_x
_atom_site_fract_y
_atom_site_fract_z
_atom_site_U_iso_or_equiv
_atom_site_adp_type
_atom_site_occupancy
C1     C     0.22872   0.27091   0.25159   0.00000  Uiso   1.00
C2     C     0.22990   0.72763   0.24928   0.00000  Uiso   1.00
C3     C     0.20355   0.63183   0.24949   0.00000  Uiso   1.00
C4     C     0.33364   0.17045   0.69597   0.00000  Uiso   1.00
C5     C     0.63254   0.79666   0.24785   0.00000  Uiso   1.00
C6     C     0.16958   0.66645   0.69503   0.00000  Uiso   1.00
C7     C     0.79646   0.36817   0.24932   0.00000  Uiso   1.00
C8     C     0.33377   0.82988   0.30444   0.00000  Uiso   1.00
C9     C     0.63323   0.20331   0.75054   0.00000  Uiso   1.00
C10    C     0.16967   0.33400   0.30512   0.00000  Uiso   1.00
C11    C     0.79654   0.63228   0.75252   0.00000  Uiso   1.00
C12    C     0.66623   0.17011   0.30445   0.00000  Uiso   1.00
C13    C     0.72872   0.77089   0.75159   0.00000  Uiso   1.00
C14    C     0.36677   0.79670   0.75059   0.00000  Uiso   1.00
C15    C     0.83031   0.66598   0.30511   0.00000  Uiso   1.00
C16    C     0.20346   0.36772   0.75252   0.00000  Uiso   1.00
C17    C     0.14779   0.35215   0.25033   0.00000  Uiso   1.00
C18    C     0.85222   0.64764   0.75007   0.00000  Uiso   1.00
C19    C     0.35226   0.85207   0.24981   0.00000  Uiso   1.00
C20    C     0.64798   0.14747   0.74985   0.00000  Uiso   1.00
C21    C     0.85220   0.64785   0.25032   0.00000  Uiso   1.00
C22    C     0.14778   0.35236   0.75007   0.00000  Uiso   1.00
C23    C     0.64774   0.14793   0.24982   0.00000  Uiso   1.00
C24    C     0.27129   0.22839   0.25087   0.00000  Uiso   1.00
C25    C     0.35202   0.85253   0.74985   0.00000  Uiso   1.00
C26    C     0.85225   0.35207   0.74983   0.00000  Uiso   1.00
C27    C     0.14799   0.64748   0.24984   0.00000  Uiso   1.00
C28    C     0.64780   0.85214   0.75033   0.00000  Uiso   1.00
C29    C     0.35222   0.14765   0.25007   0.00000  Uiso   1.00
C30    C     0.14775   0.64793   0.74983   0.00000  Uiso   1.00
C31    C     0.85201   0.35252   0.24985   0.00000  Uiso   1.00
C32    C     0.35220   0.14785   0.75032   0.00000  Uiso   1.00
C33    C     0.64778   0.85235   0.25006   0.00000  Uiso   1.00
C34    C     0.10357   0.31361   0.11429   0.00000  Uiso   1.00
C35    C     0.22803   0.72941   0.74951   0.00000  Uiso   1.00
C36    C     0.94784   0.73583   0.80027   0.00000  Uiso   1.00
C37    C     0.31453   0.89672   0.11358   0.00000  Uiso   1.00
C38    C     0.73544   0.05235   0.80267   0.00000  Uiso   1.00
C39    C     0.89641   0.68635   0.11427   0.00000  Uiso   1.00
C40    C     0.05214   0.26417   0.80025   0.00000  Uiso   1.00
C41    C     0.68548   0.10329   0.11359   0.00000  Uiso   1.00
C42    C     0.26454   0.94769   0.80254   0.00000  Uiso   1.00
C43    C     0.89673   0.31428   0.88620   0.00000  Uiso   1.00
C44    C     0.05459   0.73526   0.19414   0.00000  Uiso   1.00
C45    C     0.68499   0.89673   0.88676   0.00000  Uiso   1.00
C46    C     0.77011   0.27237   0.24931   0.00000  Uiso   1.00
C47    C     0.26413   0.05214   0.19966   0.00000  Uiso   1.00
C48    C     0.10326   0.68574   0.88619   0.00000  Uiso   1.00
C49    C     0.94556   0.26466   0.19463   0.00000  Uiso   1.00
C50    C     0.31500   0.10327   0.88675   0.00000  Uiso   1.00
C51    C     0.73587   0.94785   0.19963   0.00000  Uiso   1.00
C52    C     0.60327   0.81328   0.61451   0.00000  Uiso   1.00
C53    C     0.44785   0.23582   0.30030   0.00000  Uiso   1.00
C54    C     0.81448   0.39672   0.61362   0.00000  Uiso   1.00
C55    C     0.23519   0.55276   0.30408   0.00000  Uiso   1.00
C56    C     0.39672   0.18670   0.61450   0.00000  Uiso   1.00
C57    C     0.27127   0.22910   0.75159   0.00000  Uiso   1.00
C58    C     0.55216   0.76418   0.30031   0.00000  Uiso   1.00
C59    C     0.18553   0.60327   0.61363   0.00000  Uiso   1.00
C60    C     0.76472   0.44739   0.30359   0.00000  Uiso   1.00
C61    C     0.39671   0.81428   0.38619   0.00000  Uiso   1.00
C62    C     0.55418   0.23552   0.69556   0.00000  Uiso   1.00
C63    C     0.18461   0.39641   0.38700   0.00000  Uiso   1.00
C64    C     0.76412   0.55212   0.69970   0.00000  Uiso   1.00
C65    C     0.60329   0.18571   0.38620   0.00000  Uiso   1.00
C66    C     0.44586   0.76446   0.69570   0.00000  Uiso   1.00
C67    C     0.81534   0.60356   0.38697   0.00000  Uiso   1.00
C68    C     0.72871   0.77160   0.25085   0.00000  Uiso   1.00
C69    C     0.23588   0.44788   0.69971   0.00000  Uiso   1.00
C70    C     0.00000   0.50000   0.47331   0.00000  Uiso   1.00
C71    C    -0.00000   0.50000   0.52669   0.00000  Uiso   1.00
C72    C     0.50000   0.00000   0.47331   0.00000  Uiso   1.00
C73    C     0.77128   0.72838   0.75087   0.00000  Uiso   1.00
C74    C     0.50000   0.00000   0.52669   0.00000  Uiso   1.00
C75    C     0.50000   0.00000   0.97331   0.00000  Uiso   1.00
C76    C     0.50000   0.00000   0.02669   0.00000  Uiso   1.00
C77    C    -0.00000   0.50000   0.97331   0.00000  Uiso   1.00
C78    C    -0.00000   0.50000   0.02669   0.00000  Uiso   1.00
C79    C    -0.00000   0.50000   0.09002   0.00000  Uiso   1.00
C80    C    -0.00000   0.50000   0.90998   0.00000  Uiso   1.00
C81    C     0.50000   0.00000   0.09001   0.00000  Uiso   1.00
C82    C     0.50000   0.00000   0.90999   0.00000  Uiso   1.00
C83    C     0.50000   0.00000   0.59002   0.00000  Uiso   1.00
C84    C     0.27199   0.77059   0.24946   0.00000  Uiso   1.00
C85    C     0.50000   0.00000   0.40998   0.00000  Uiso   1.00
C86    C    -0.00000   0.50000   0.59001   0.00000  Uiso   1.00
C87    C    -0.00000   0.50000   0.40999   0.00000  Uiso   1.00
C88    C     0.10522   0.60519   0.25001   0.00000  Uiso   1.00
C89    C     0.89476   0.39477   0.74999   0.00000  Uiso   1.00
C90    C     0.60519   0.89481   0.24999   0.00000  Uiso   1.00
C91    C     0.39475   0.10523   0.75002   0.00000  Uiso   1.00
C92    C     0.89478   0.39481   0.25001   0.00000  Uiso   1.00
C93    C     0.10524   0.60524   0.74999   0.00000  Uiso   1.00
C94    C     0.39481   0.10519   0.24999   0.00000  Uiso   1.00
C95    C     0.72988   0.22763   0.74936   0.00000  Uiso   1.00
C96    C     0.60525   0.89477   0.75002   0.00000  Uiso   1.00
C97    C     0.89481   0.60519   0.74999   0.00000  Uiso   1.00
C98    C     0.10524   0.39477   0.25002   0.00000  Uiso   1.00
C99    C     0.39478   0.89482   0.75001   0.00000  Uiso   1.00
C100   C     0.60524   0.10524   0.24999   0.00000  Uiso   1.00
C101   C     0.10519   0.39481   0.74999   0.00000  Uiso   1.00
C102   C     0.89475   0.60522   0.25002   0.00000  Uiso   1.00
C103   C     0.60522   0.10518   0.75001   0.00000  Uiso   1.00
C104   C     0.39476   0.89477   0.24998   0.00000  Uiso   1.00
C105   C     0.20839   0.28966   0.19667   0.00000  Uiso   1.00
C106   C     0.77126   0.72908   0.25158   0.00000  Uiso   1.00
C107   C     0.82632   0.74405   0.74654   0.00000  Uiso   1.00
C108   C     0.29095   0.79124   0.19493   0.00000  Uiso   1.00
C109   C     0.74465   0.17171   0.74732   0.00000  Uiso   1.00
C110   C     0.79160   0.71033   0.19666   0.00000  Uiso   1.00
C111   C     0.17367   0.25595   0.74652   0.00000  Uiso   1.00
C112   C     0.70906   0.20876   0.19495   0.00000  Uiso   1.00
C113   C     0.25535   0.82829   0.74728   0.00000  Uiso   1.00
C114   C     0.79202   0.28980   0.80420   0.00000  Uiso   1.00
C115   C     0.17475   0.74374   0.25133   0.00000  Uiso   1.00
C116   C     0.70937   0.79266   0.80611   0.00000  Uiso   1.00
C117   C     0.22871   0.27161   0.75087   0.00000  Uiso   1.00
C118   C     0.25572   0.17331   0.25456   0.00000  Uiso   1.00
C119   C     0.20798   0.71021   0.80420   0.00000  Uiso   1.00
C120   C     0.82526   0.25627   0.25153   0.00000  Uiso   1.00
C121   C     0.29062   0.20733   0.80610   0.00000  Uiso   1.00
C122   C     0.74427   0.82668   0.25453   0.00000  Uiso   1.00
C123   C     0.70826   0.78952   0.69668   0.00000  Uiso   1.00
C124   C     0.32633   0.24406   0.24655   0.00000  Uiso   1.00
C125   C     0.79091   0.29124   0.69498   0.00000  Uiso   1.00
C126   C     0.24468   0.67171   0.24779   0.00000  Uiso   1.00
C127   C     0.29173   0.21047   0.69667   0.00000  Uiso   1.00
C128   C     0.72802   0.22941   0.24948   0.00000  Uiso   1.00
C129   C     0.67366   0.75594   0.24654   0.00000  Uiso   1.00
C130   C     0.20910   0.70875   0.69498   0.00000  Uiso   1.00
C131   C     0.75533   0.32829   0.24763   0.00000  Uiso   1.00
C132   C     0.29202   0.78979   0.30415   0.00000  Uiso   1.00
C133   C     0.67473   0.24371   0.75191   0.00000  Uiso   1.00
C134   C     0.20925   0.29256   0.30611   0.00000  Uiso   1.00
C135   C     0.75572   0.67329   0.75457   0.00000  Uiso   1.00
C136   C     0.70798   0.21020   0.30417   0.00000  Uiso   1.00
C137   C     0.32527   0.75629   0.75196   0.00000  Uiso   1.00
C138   C     0.79073   0.70743   0.30610   0.00000  Uiso   1.00
C139   C     0.27013   0.77237   0.74936   0.00000  Uiso   1.00
C140   C     0.24427   0.32670   0.75457   0.00000  Uiso   1.00
C141   C     0.16647   0.32967   0.19596   0.00000  Uiso   1.00
C142   C     0.86745   0.70333   0.74785   0.00000  Uiso   1.00
C143   C     0.33045   0.83354   0.19500   0.00000  Uiso   1.00
C144   C     0.70352   0.13183   0.74898   0.00000  Uiso   1.00
C145   C     0.83351   0.67031   0.19595   0.00000  Uiso   1.00
C146   C     0.13254   0.29667   0.74783   0.00000  Uiso   1.00
C147   C     0.66955   0.16646   0.19501   0.00000  Uiso   1.00
C148   C     0.29648   0.86818   0.74893   0.00000  Uiso   1.00
C149   C     0.83377   0.32989   0.80447   0.00000  Uiso   1.00
C150   C     0.77197   0.27059   0.74951   0.00000  Uiso   1.00
C151   C     0.13325   0.70333   0.24997   0.00000  Uiso   1.00
C152   C     0.66981   0.83413   0.80511   0.00000  Uiso   1.00
C153   C     0.29654   0.13229   0.25251   0.00000  Uiso   1.00
C154   C     0.16622   0.67012   0.80447   0.00000  Uiso   1.00
C155   C     0.86676   0.29668   0.25017   0.00000  Uiso   1.00
C156   C     0.33019   0.16587   0.80510   0.00000  Uiso   1.00
C157   C     0.70346   0.86771   0.25248   0.00000  Uiso   1.00
C158   C     0.66635   0.82954   0.69597   0.00000  Uiso   1.00
C159   C     0.36746   0.20334   0.24786   0.00000  Uiso   1.00
C160   C     0.83042   0.33355   0.69503   0.00000  Uiso   1.00
H1     H     0.21696   0.28667   0.10963   0.00000  Uiso   1.00
H2     H     0.12435   0.80571   0.26086   0.00000  Uiso   1.00
H3     H     0.57049   0.80349   0.64708   0.00000  Uiso   1.00
H4     H     0.43468   0.24085   0.20841   0.00000  Uiso   1.00
H5     H     0.42995   0.27559   0.31408   0.00000  Uiso   1.00
H6     H     0.49264   0.24106   0.29448   0.00000  Uiso   1.00
H7     H     0.44080   0.20534   0.33621   0.00000  Uiso   1.00
H8     H     0.86588   0.32847   0.61087   0.00000  Uiso   1.00
H9     H     0.77613   0.37740   0.59752   0.00000  Uiso   1.00
H10    H     0.83566   0.41594   0.57516   0.00000  Uiso   1.00
H11    H     0.80402   0.42930   0.64618   0.00000  Uiso   1.00
H12    H     0.24515   0.56618   0.21363   0.00000  Uiso   1.00
H13    H     0.75592   0.74623   0.85666   0.00000  Uiso   1.00
H14    H     0.27453   0.57127   0.31853   0.00000  Uiso   1.00
H15    H     0.24102   0.50794   0.29937   0.00000  Uiso   1.00
H16    H     0.20372   0.56015   0.33889   0.00000  Uiso   1.00
H17    H     0.32797   0.13597   0.61138   0.00000  Uiso   1.00
H18    H     0.37768   0.22538   0.59897   0.00000  Uiso   1.00
H19    H     0.41563   0.16577   0.57570   0.00000  Uiso   1.00
H20    H     0.42950   0.19650   0.64706   0.00000  Uiso   1.00
H21    H     0.56530   0.75915   0.20843   0.00000  Uiso   1.00
H22    H     0.57006   0.72441   0.31410   0.00000  Uiso   1.00
H23    H     0.50736   0.75894   0.29450   0.00000  Uiso   1.00
H24    H     0.19449   0.12256   0.26675   0.00000  Uiso   1.00
H25    H     0.55920   0.79466   0.33622   0.00000  Uiso   1.00
H26    H     0.13413   0.67152   0.61086   0.00000  Uiso   1.00
H27    H     0.22388   0.62259   0.59753   0.00000  Uiso   1.00
H28    H     0.16435   0.58405   0.57517   0.00000  Uiso   1.00
H29    H     0.19599   0.57069   0.64619   0.00000  Uiso   1.00
H30    H     0.75494   0.43374   0.21316   0.00000  Uiso   1.00
H31    H     0.72535   0.42894   0.31800   0.00000  Uiso   1.00
H32    H     0.75894   0.49220   0.29874   0.00000  Uiso   1.00
H33    H     0.79612   0.44006   0.33850   0.00000  Uiso   1.00
H34    H     0.32801   0.86511   0.38865   0.00000  Uiso   1.00
H35    H     0.21677   0.71251   0.89119   0.00000  Uiso   1.00
H36    H     0.41562   0.83555   0.42478   0.00000  Uiso   1.00
H37    H     0.42952   0.80409   0.35379   0.00000  Uiso   1.00
H38    H     0.37759   0.77579   0.40215   0.00000  Uiso   1.00
H39    H     0.56558   0.24210   0.78762   0.00000  Uiso   1.00
H40    H     0.50938   0.24157   0.70031   0.00000  Uiso   1.00
H41    H     0.56138   0.20417   0.66059   0.00000  Uiso   1.00
H42    H     0.57291   0.27471   0.68116   0.00000  Uiso   1.00
H43    H     0.13779   0.32595   0.38990   0.00000  Uiso   1.00
H44    H     0.16332   0.41492   0.42581   0.00000  Uiso   1.00
H45    H     0.19435   0.42944   0.35473   0.00000  Uiso   1.00
H46    H     0.87565   0.19432   0.26130   0.00000  Uiso   1.00
H47    H     0.22332   0.37745   0.40272   0.00000  Uiso   1.00
H48    H     0.75926   0.56479   0.79167   0.00000  Uiso   1.00
H49    H     0.75894   0.50731   0.70527   0.00000  Uiso   1.00
H50    H     0.79456   0.55936   0.66377   0.00000  Uiso   1.00
H51    H     0.72429   0.57003   0.68608   0.00000  Uiso   1.00
H52    H     0.67199   0.13487   0.38866   0.00000  Uiso   1.00
H53    H     0.58438   0.16444   0.42478   0.00000  Uiso   1.00
H54    H     0.57049   0.19591   0.35380   0.00000  Uiso   1.00
H55    H     0.62242   0.22420   0.40217   0.00000  Uiso   1.00
H56    H     0.43440   0.75793   0.78775   0.00000  Uiso   1.00
H57    H     0.24405   0.25375   0.85665   0.00000  Uiso   1.00
H58    H     0.49066   0.75842   0.70048   0.00000  Uiso   1.00
H59    H     0.43867   0.79579   0.66070   0.00000  Uiso   1.00
H60    H     0.42715   0.72526   0.68131   0.00000  Uiso   1.00
H61    H     0.86215   0.67401   0.38991   0.00000  Uiso   1.00
H62    H     0.83661   0.58503   0.42577   0.00000  Uiso   1.00
H63    H     0.80561   0.57054   0.35467   0.00000  Uiso   1.00
H64    H     0.77662   0.62252   0.40267   0.00000  Uiso   1.00
H65    H     0.24074   0.43520   0.79169   0.00000  Uiso   1.00
H66    H     0.24106   0.49269   0.70530   0.00000  Uiso   1.00
H67    H     0.20545   0.44065   0.66379   0.00000  Uiso   1.00
H68    H     0.80551   0.87743   0.26671   0.00000  Uiso   1.00
H69    H     0.27571   0.42997   0.68610   0.00000  Uiso   1.00
H70    H     0.71665   0.78634   0.60962   0.00000  Uiso   1.00
H71    H     0.37681   0.30539   0.23380   0.00000  Uiso   1.00
H72    H     0.78860   0.28313   0.60789   0.00000  Uiso   1.00
H73    H     0.87680   0.80538   0.73378   0.00000  Uiso   1.00
H74    H     0.32387   0.68543   0.24365   0.00000  Uiso   1.00
H75    H     0.28333   0.21364   0.60961   0.00000  Uiso   1.00
H76    H     0.62317   0.69461   0.23380   0.00000  Uiso   1.00
H77    H     0.21141   0.71686   0.60789   0.00000  Uiso   1.00
H78    H     0.67614   0.31456   0.24346   0.00000  Uiso   1.00
H79    H     0.28320   0.78749   0.39114   0.00000  Uiso   1.00
H80    H     0.62438   0.30562   0.76219   0.00000  Uiso   1.00
H81    H     0.25577   0.24610   0.35666   0.00000  Uiso   1.00
H82    H     0.69450   0.62254   0.76680   0.00000  Uiso   1.00
H83    H     0.71680   0.21249   0.39116   0.00000  Uiso   1.00
H84    H     0.28868   0.78312   0.10784   0.00000  Uiso   1.00
H85    H     0.37562   0.69439   0.76231   0.00000  Uiso   1.00
H86    H     0.74420   0.75389   0.35665   0.00000  Uiso   1.00
H87    H     0.30550   0.37745   0.76680   0.00000  Uiso   1.00
H88    H     0.17232   0.36434   0.11148   0.00000  Uiso   1.00
H89    H     0.12264   0.27497   0.09870   0.00000  Uiso   1.00
H90    H     0.08473   0.33463   0.07550   0.00000  Uiso   1.00
H91    H     0.07072   0.30374   0.14675   0.00000  Uiso   1.00
H92    H     0.93467   0.74085   0.70839   0.00000  Uiso   1.00
H93    H     0.92994   0.77560   0.81406   0.00000  Uiso   1.00
H94    H     0.99264   0.74108   0.79445   0.00000  Uiso   1.00
H95    H     0.82383   0.18545   0.74305   0.00000  Uiso   1.00
H96    H     0.94081   0.70535   0.83619   0.00000  Uiso   1.00
H97    H     0.36595   0.82848   0.11085   0.00000  Uiso   1.00
H98    H     0.27619   0.87738   0.09747   0.00000  Uiso   1.00
H99    H     0.33572   0.91594   0.07513   0.00000  Uiso   1.00
H100   H     0.30405   0.92929   0.14614   0.00000  Uiso   1.00
H101   H     0.74490   0.06642   0.71227   0.00000  Uiso   1.00
H102   H     0.77488   0.07072   0.81700   0.00000  Uiso   1.00
H103   H     0.74119   0.00756   0.79754   0.00000  Uiso   1.00
H104   H     0.70418   0.05952   0.83776   0.00000  Uiso   1.00
H105   H     0.82765   0.63562   0.11148   0.00000  Uiso   1.00
H106   H     0.78302   0.71330   0.10961   0.00000  Uiso   1.00
H107   H     0.87734   0.72499   0.09867   0.00000  Uiso   1.00
H108   H     0.91524   0.66532   0.07548   0.00000  Uiso   1.00
H109   H     0.92926   0.69623   0.14672   0.00000  Uiso   1.00
H110   H     0.06533   0.25916   0.70837   0.00000  Uiso   1.00
H111   H     0.07004   0.22440   0.81403   0.00000  Uiso   1.00
H112   H     0.00735   0.25893   0.79442   0.00000  Uiso   1.00
H113   H     0.05918   0.29464   0.83617   0.00000  Uiso   1.00
H114   H     0.63406   0.17154   0.11087   0.00000  Uiso   1.00
H115   H     0.72382   0.12263   0.09747   0.00000  Uiso   1.00
H116   H     0.66428   0.08408   0.07513   0.00000  Uiso   1.00
H117   H     0.12319   0.19462   0.73375   0.00000  Uiso   1.00
H118   H     0.69595   0.07071   0.14614   0.00000  Uiso   1.00
H119   H     0.25512   0.93356   0.71216   0.00000  Uiso   1.00
H120   H     0.22510   0.92933   0.81687   0.00000  Uiso   1.00
H121   H     0.25880   0.99248   0.79739   0.00000  Uiso   1.00
H122   H     0.29579   0.94053   0.83766   0.00000  Uiso   1.00
H123   H     0.82804   0.36512   0.88867   0.00000  Uiso   1.00
H124   H     0.91566   0.33555   0.92477   0.00000  Uiso   1.00
H125   H     0.92953   0.30408   0.85378   0.00000  Uiso   1.00
H126   H     0.87761   0.27580   0.90217   0.00000  Uiso   1.00
H127   H     0.06537   0.74236   0.28624   0.00000  Uiso   1.00
H128   H     0.71133   0.21689   0.10787   0.00000  Uiso   1.00
H129   H     0.00977   0.74138   0.19849   0.00000  Uiso   1.00
H130   H     0.06200   0.70369   0.15944   0.00000  Uiso   1.00
H131   H     0.07346   0.77434   0.17961   0.00000  Uiso   1.00
H132   H     0.63815   0.82630   0.89001   0.00000  Uiso   1.00
H133   H     0.66380   0.91534   0.92558   0.00000  Uiso   1.00
H134   H     0.69464   0.92967   0.85435   0.00000  Uiso   1.00
H135   H     0.72373   0.87779   0.90241   0.00000  Uiso   1.00
H136   H     0.25924   0.06480   0.29164   0.00000  Uiso   1.00
H137   H     0.25895   0.00733   0.20523   0.00000  Uiso   1.00
H138   H     0.29457   0.05939   0.16375   0.00000  Uiso   1.00
H139   H     0.17618   0.81455   0.74299   0.00000  Uiso   1.00
H140   H     0.22430   0.07005   0.18604   0.00000  Uiso   1.00
H141   H     0.17195   0.63489   0.88868   0.00000  Uiso   1.00
H142   H     0.08433   0.66447   0.92476   0.00000  Uiso   1.00
H143   H     0.07046   0.69593   0.85377   0.00000  Uiso   1.00
H144   H     0.12238   0.72422   0.90216   0.00000  Uiso   1.00
H145   H     0.93456   0.25773   0.28672   0.00000  Uiso   1.00
H146   H     0.99038   0.25859   0.19911   0.00000  Uiso   1.00
H147   H     0.93820   0.29615   0.15984   0.00000  Uiso   1.00
H148   H     0.92675   0.22553   0.18015   0.00000  Uiso   1.00
H149   H     0.36184   0.17370   0.89001   0.00000  Uiso   1.00
H150   H     0.78322   0.28750   0.89119   0.00000  Uiso   1.00
H151   H     0.33618   0.08465   0.92557   0.00000  Uiso   1.00
H152   H     0.30535   0.07032   0.85434   0.00000  Uiso   1.00
H153   H     0.27625   0.12220   0.90240   0.00000  Uiso   1.00
H154   H     0.74077   0.93519   0.29160   0.00000  Uiso   1.00
H155   H     0.74105   0.99266   0.20519   0.00000  Uiso   1.00
H156   H     0.70542   0.94060   0.16372   0.00000  Uiso   1.00
H157   H     0.77569   0.92994   0.18600   0.00000  Uiso   1.00
H158   H     0.67201   0.86401   0.61137   0.00000  Uiso   1.00
H159   H     0.62231   0.77460   0.59898   0.00000  Uiso   1.00
H160   H     0.58435   0.83421   0.57571   0.00000  Uiso   1.00
N1     N     0.14402   0.34911   0.14125   0.00000  Uiso   1.00
N2     N     0.07677   0.71787   0.25094   0.00000  Uiso   1.00
N3     N     0.64984   0.85595   0.85987   0.00000  Uiso   1.00
N4     N     0.28270   0.07571   0.25533   0.00000  Uiso   1.00
N5     N     0.14369   0.65034   0.85900   0.00000  Uiso   1.00
N6     N     0.92324   0.28215   0.25133   0.00000  Uiso   1.00
N7     N     0.35015   0.14405   0.85987   0.00000  Uiso   1.00
N8     N     0.71730   0.92429   0.25530   0.00000  Uiso   1.00
N9     N     0.64378   0.84885   0.64126   0.00000  Uiso   1.00
N10    N     0.42402   0.21730   0.24473   0.00000  Uiso   1.00
N11    N     0.85015   0.35646   0.64067   0.00000  Uiso   1.00
N12    N     0.92401   0.71730   0.74471   0.00000  Uiso   1.00
N13    N     0.21805   0.57541   0.24744   0.00000  Uiso   1.00
N14    N     0.35621   0.15113   0.64126   0.00000  Uiso   1.00
N15    N     0.57597   0.78270   0.24474   0.00000  Uiso   1.00
N16    N     0.14986   0.64353   0.64067   0.00000  Uiso   1.00
N17    N     0.78197   0.42458   0.24706   0.00000  Uiso   1.00
N18    N     0.35629   0.84967   0.35898   0.00000  Uiso   1.00
N19    N     0.57675   0.21782   0.75206   0.00000  Uiso   1.00
N20    N     0.14955   0.35569   0.35989   0.00000  Uiso   1.00
N21    N     0.78271   0.57570   0.75536   0.00000  Uiso   1.00
N22    N     0.64371   0.15032   0.35899   0.00000  Uiso   1.00
N23    N     0.35020   0.85646   0.14065   0.00000  Uiso   1.00
N24    N     0.42325   0.78219   0.75217   0.00000  Uiso   1.00
N25    N     0.85041   0.64429   0.35988   0.00000  Uiso   1.00
N26    N     0.21729   0.42430   0.75537   0.00000  Uiso   1.00
N27    N     0.71799   0.07542   0.74634   0.00000  Uiso   1.00
N28    N     0.85596   0.65086   0.14124   0.00000  Uiso   1.00
N29    N     0.07598   0.28270   0.74469   0.00000  Uiso   1.00
N30    N     0.64981   0.14355   0.14066   0.00000  Uiso   1.00
N31    N     0.28201   0.92458   0.74624   0.00000  Uiso   1.00
N32    N     0.85631   0.34967   0.85900   0.00000  Uiso   1.00
O1     O    -0.00000   0.50000   0.25000   0.00000  Uiso   1.00
O2     O    -0.00000   0.45454   0.88202   0.00000  Uiso   1.00
O3     O     0.54546   0.00000   0.11798   0.00000  Uiso   1.00
O4     O     0.45454   0.00000   0.88202   0.00000  Uiso   1.00
O5     O     0.50000   0.95454   0.61798   0.00000  Uiso   1.00
O6     O     0.50000   0.04546   0.38202   0.00000  Uiso   1.00
O7     O     0.95454   0.50000   0.61798   0.00000  Uiso   1.00
O8     O     0.04546   0.50000   0.38202   0.00000  Uiso   1.00
O9     O     0.50000   0.04546   0.61798   0.00000  Uiso   1.00
O10    O     0.50000   0.95454   0.38202   0.00000  Uiso   1.00
O11    O     0.04546   0.50000   0.61798   0.00000  Uiso   1.00
O12    O    -0.00000   0.50000   0.75000   0.00000  Uiso   1.00
O13    O     0.95454   0.50000   0.38202   0.00000  Uiso   1.00
O14    O     0.06399   0.60947   0.21539   0.00000  Uiso   1.00
O15    O     0.93601   0.39053   0.78461   0.00000  Uiso   1.00
O16    O     0.60947   0.93601   0.21539   0.00000  Uiso   1.00
O17    O     0.39053   0.06399   0.78461   0.00000  Uiso   1.00
O18    O     0.93601   0.39053   0.21539   0.00000  Uiso   1.00
O19    O     0.06399   0.60947   0.78461   0.00000  Uiso   1.00
O20    O     0.39053   0.06399   0.21539   0.00000  Uiso   1.00
O21    O     0.60947   0.93601   0.78461   0.00000  Uiso   1.00
O22    O     0.93601   0.60947   0.78461   0.00000  Uiso   1.00
O23    O     0.50000   0.00000   0.25000   0.00000  Uiso   1.00
O24    O     0.06399   0.39053   0.21539   0.00000  Uiso   1.00
O25    O     0.39053   0.93601   0.78461   0.00000  Uiso   1.00
O26    O     0.60947   0.06399   0.21539   0.00000  Uiso   1.00
O27    O     0.06399   0.39053   0.78461   0.00000  Uiso   1.00
O28    O     0.93601   0.60947   0.21539   0.00000  Uiso   1.00
O29    O     0.60947   0.06399   0.78461   0.00000  Uiso   1.00
O30    O     0.39053   0.93601   0.21539   0.00000  Uiso   1.00
O31    O     0.56399   0.10947   0.71539   0.00000  Uiso   1.00
O32    O     0.43601   0.89053   0.28461   0.00000  Uiso   1.00
O33    O     0.10947   0.43601   0.71539   0.00000  Uiso   1.00
O34    O     0.50000   0.00000   0.75000   0.00000  Uiso   1.00
O35    O     0.89053   0.56399   0.28461   0.00000  Uiso   1.00
O36    O     0.43601   0.89053   0.71539   0.00000  Uiso   1.00
O37    O     0.56399   0.10947   0.28461   0.00000  Uiso   1.00
O38    O     0.89053   0.56399   0.71539   0.00000  Uiso   1.00
O39    O     0.10947   0.43601   0.28461   0.00000  Uiso   1.00
O40    O     0.43601   0.10947   0.28461   0.00000  Uiso   1.00
O41    O     0.56399   0.89053   0.71539   0.00000  Uiso   1.00
O42    O     0.89053   0.43601   0.28461   0.00000  Uiso   1.00
O43    O     0.10947   0.56399   0.71539   0.00000  Uiso   1.00
O44    O     0.56399   0.89053   0.28461   0.00000  Uiso   1.00
O45    O    -0.00000   0.45454   0.11798   0.00000  Uiso   1.00
O46    O     0.43601   0.10947   0.71539   0.00000  Uiso   1.00
O47    O     0.10947   0.56399   0.28461   0.00000  Uiso   1.00
O48    O     0.89053   0.43601   0.71539   0.00000  Uiso   1.00
O49    O     0.23026   0.26710   0.14525   0.00000  Uiso   1.00
O50    O     0.83762   0.79940   0.74211   0.00000  Uiso   1.00
O51    O     0.26916   0.76920   0.14323   0.00000  Uiso   1.00
O52    O     0.79843   0.15404   0.74419   0.00000  Uiso   1.00
O53    O     0.76972   0.73288   0.14524   0.00000  Uiso   1.00
O54    O     0.16237   0.20060   0.74209   0.00000  Uiso   1.00
O55    O     0.73085   0.23080   0.14325   0.00000  Uiso   1.00
O56    O    -0.00000   0.54546   0.88202   0.00000  Uiso   1.00
O57    O     0.20157   0.84596   0.74410   0.00000  Uiso   1.00
O58    O     0.77016   0.26751   0.85573   0.00000  Uiso   1.00
O59    O     0.16367   0.79926   0.25387   0.00000  Uiso   1.00
O60    O     0.72807   0.77521   0.86124   0.00000  Uiso   1.00
O61    O     0.20040   0.16189   0.25942   0.00000  Uiso   1.00
O62    O     0.22983   0.73250   0.85573   0.00000  Uiso   1.00
O63    O     0.83634   0.20076   0.25424   0.00000  Uiso   1.00
O64    O     0.27192   0.22478   0.86123   0.00000  Uiso   1.00
O65    O     0.79959   0.83810   0.25939   0.00000  Uiso   1.00
O66    O     0.73002   0.76684   0.64526   0.00000  Uiso   1.00
O67    O     0.45454   0.00000   0.11798   0.00000  Uiso   1.00
O68    O     0.33764   0.29941   0.24214   0.00000  Uiso   1.00
O69    O     0.76910   0.26921   0.64328   0.00000  Uiso   1.00
O70    O     0.29848   0.65402   0.24514   0.00000  Uiso   1.00
O71    O     0.26997   0.23314   0.64526   0.00000  Uiso   1.00
O72    O     0.66235   0.70059   0.24213   0.00000  Uiso   1.00
O73    O     0.23091   0.73077   0.64328   0.00000  Uiso   1.00
O74    O     0.70154   0.34597   0.24482   0.00000  Uiso   1.00
O75    O     0.27014   0.76751   0.35568   0.00000  Uiso   1.00
O76    O     0.66366   0.29921   0.75494   0.00000  Uiso   1.00
O77    O     0.22783   0.27499   0.36125   0.00000  Uiso   1.00
O78    O     0.54546   0.00000   0.88202   0.00000  Uiso   1.00
O79    O     0.70040   0.66187   0.75945   0.00000  Uiso   1.00
O80    O     0.72986   0.23248   0.35570   0.00000  Uiso   1.00
O81    O     0.33634   0.70079   0.75503   0.00000  Uiso   1.00
O82    O     0.77214   0.72500   0.36123   0.00000  Uiso   1.00
O83    O     0.29959   0.33812   0.75946   0.00000  Uiso   1.00
O84    O    -0.00000   0.54546   0.11798   0.00000  Uiso   1.00
Zn1    Zn    0.06497   0.50000   0.29947   0.00000  Uiso   1.00
Zn2    Zn    0.43503   0.00000   0.20053   0.00000  Uiso   1.00
Zn3    Zn   -0.00000   0.43503   0.79947   0.00000  Uiso   1.00
Zn4    Zn   -0.00000   0.56497   0.20053   0.00000  Uiso   1.00
Zn5    Zn    0.43503   0.00000   0.79947   0.00000  Uiso   1.00
Zn6    Zn    0.56497   0.00000   0.20053   0.00000  Uiso   1.00
Zn7    Zn   -0.00000   0.56497   0.79947   0.00000  Uiso   1.00
Zn8    Zn   -0.00000   0.43503   0.20053   0.00000  Uiso   1.00
Zn9    Zn    0.93503   0.50000   0.70053   0.00000  Uiso   1.00
Zn10   Zn    0.50000   0.93503   0.29947   0.00000  Uiso   1.00
Zn11   Zn    0.50000   0.06497   0.70053   0.00000  Uiso   1.00
Zn12   Zn    0.93503   0.50000   0.29947   0.00000  Uiso   1.00
Zn13   Zn    0.06497   0.50000   0.70053   0.00000  Uiso   1.00
Zn14   Zn    0.50000   0.06497   0.29947   0.00000  Uiso   1.00
Zn15   Zn    0.50000   0.93503   0.70053   0.00000  Uiso   1.00
Zn16   Zn    0.56497   0.00000   0.79947   0.00000  Uiso   1.00
loop_
_geom_bond_atom_site_label_1
_geom_bond_atom_site_label_2
_geom_bond_distance
_geom_bond_site_symmetry_2
_ccdc_geom_bond_type
C1     C105    1.405   .     A
C1     C24     1.471   .     S
C1     C134    1.415   .     A
C2     C84     1.470   .     S
C2     C115    1.405   .     A
C2     C126    1.415   .     A
C3     C27     1.411   .     A
C3     C126    1.401   .     A
C3     N13     1.425   .     S
C4     C32     1.413   .     A
C4     C127    1.416   .     A
C4     N14     1.426   .     S
C5     C33     1.413   .     A
C5     C129    1.415   .     A
C5     N15     1.426   .     S
C6     C30     1.414   .     A
C6     C130    1.415   .     A
C6     N16     1.426   .     S
C7     N17     1.425   .     S
C7     C131    1.401   .     A
C7     C31     1.411   .     A
C8     C19     1.414   .     A
C8     C132    1.415   .     A
C8     N18     1.426   .     S
C9     C133    1.416   .     A
C9     N19     1.426   .     S
C9     C20     1.412   .     A
C10    N20     1.425   .     S
C10    C17     1.411   .     A
C10    C134    1.401   .     A
C11    C18     1.413   .     A
C11    C135    1.415   .     A
C11    N21     1.426   .     S
C12    C23     1.414   .     A
C12    C136    1.415   .     A
C12    N22     1.426   .     S
C13    C73     1.471   .     S
C13    C123    1.405   .     A
C13    C116    1.415   .     A
C14    C137    1.416   .     A
C14    C25     1.412   .     A
C14    N24     1.426   .     S
C15    N25     1.425   .     S
C15    C138    1.401   .     A
C15    C21     1.411   .     A
C16    C140    1.415   .     A
C16    C22     1.413   .     A
C16    N26     1.426   .     S
C17    C98     1.472   .     S
C17    C141    1.413   .     A
C18    C97     1.470   .     S
C18    C142    1.413   .     A
C19    C104    1.473   .     S
C19    C143    1.414   .     A
C20    C144    1.410   .     A
C20    C103    1.470   .     S
C21    C102    1.472   .     S
C21    C145    1.413   .     A
C22    C146    1.413   .     A
C22    C101    1.470   .     S
C23    C147    1.414   .     A
C23    C100    1.473   .     S
C24    C124    1.402   .     A
C24    C118    1.402   .     A
C25    C99     1.470   .     S
C25    C148    1.410   .     A
C26    C160    1.414   .     A
C26    C149    1.414   .     A
C26    C89     1.473   .     S
C27    C151    1.412   .     A
C27    C88     1.471   .     S
C28    C158    1.413   .     A
C28    C96     1.472   .     S
C28    C152    1.411   .     A
C29    C94     1.470   .     S
C29    C159    1.413   .     A
C29    C153    1.413   .     A
C30    C154    1.414   .     A
C30    C93     1.473   .     S
C31    C155    1.412   .     A
C31    C92     1.470   .     S
C32    C156    1.411   .     A
C32    C91     1.472   .     S
C33    C157    1.413   .     A
C33    C90     1.470   .     S
C34    H90     1.110   .     S
C34    N1      1.448   .     S
C34    H89     1.110   .     S
C34    H91     1.110   .     S
C35    C139    1.470   .     S
C35    C130    1.402   .     A
C35    C119    1.402   .     A
C36    N12     1.448   .     S
C36    H94     1.110   .     S
C36    H96     1.111   .     S
C36    H93     1.110   .     S
C37    H99     1.110   .     S
C37    N23     1.448   .     S
C37    H100    1.110   .     S
C37    H98     1.110   .     S
C38    H102    1.111   .     S
C38    N27     1.448   .     S
C38    H103    1.110   .     S
C38    H104    1.111   .     S
C39    H107    1.110   .     S
C39    N28     1.448   .     S
C39    H109    1.110   .     S
C39    H108    1.110   .     S
C40    H112    1.110   .     S
C40    N29     1.448   .     S
C40    H113    1.111   .     S
C40    H111    1.110   .     S
C41    H118    1.110   .     S
C41    H115    1.110   .     S
C41    N30     1.448   .     S
C41    H116    1.110   .     S
C42    H120    1.111   .     S
C42    H121    1.110   .     S
C42    N31     1.448   .     S
C42    H122    1.111   .     S
C43    N32     1.448   .     S
C43    H126    1.110   .     S
C43    H124    1.110   .     S
C43    H125    1.110   .     S
C44    N2      1.448   .     S
C44    H129    1.110   .     S
C44    H131    1.110   .     S
C44    H130    1.111   .     S
C45    H135    1.111   .     S
C45    H134    1.110   .     S
C45    H133    1.110   .     S
C45    N3      1.448   .     S
C46    C120    1.405   .     A
C46    C128    1.470   .     S
C46    C131    1.415   .     A
C47    N4      1.448   .     S
C47    H140    1.110   .     S
C47    H138    1.111   .     S
C47    H137    1.110   .     S
C48    N5      1.448   .     S
C48    H143    1.110   .     S
C48    H142    1.110   .     S
C48    H144    1.110   .     S
C49    H146    1.110   .     S
C49    H148    1.110   .     S
C49    N6      1.448   .     S
C49    H147    1.111   .     S
C50    N7      1.448   .     S
C50    H151    1.110   .     S
C50    H153    1.111   .     S
C50    H152    1.110   .     S
C51    N8      1.448   .     S
C51    H157    1.110   .     S
C51    H155    1.110   .     S
C51    H156    1.111   .     S
C52    H3      1.110   .     S
C52    N9      1.448   .     S
C52    H159    1.110   .     S
C52    H160    1.110   .     S
C53    H6      1.110   .     S
C53    H5      1.110   .     S
C53    H7      1.111   .     S
C53    N10     1.448   .     S
C54    H10     1.110   .     S
C54    H9      1.110   .     S
C54    N11     1.448   .     S
C54    H11     1.110   .     S
C55    N13     1.448   .     S
C55    H16     1.111   .     S
C55    H14     1.111   .     S
C55    H15     1.110   .     S
C56    H18     1.110   .     S
C56    H20     1.110   .     S
C56    N14     1.448   .     S
C56    H19     1.110   .     S
C57    C127    1.405   .     A
C57    C117    1.470   .     S
C57    C121    1.415   .     A
C58    H23     1.110   .     S
C58    H22     1.110   .     S
C58    N15     1.448   .     S
C58    H25     1.111   .     S
C59    H29     1.110   .     S
C59    H27     1.110   .     S
C59    N16     1.448   .     S
C59    H28     1.110   .     S
C60    H33     1.111   .     S
C60    H32     1.110   .     S
C60    N17     1.448   .     S
C60    H31     1.111   .     S
C61    H37     1.110   .     S
C61    H36     1.110   .     S
C61    N18     1.448   .     S
C61    H38     1.110   .     S
C62    H41     1.111   .     S
C62    H42     1.110   .     S
C62    N19     1.448   .     S
C62    H40     1.110   .     S
C63    H47     1.111   .     S
C63    H45     1.110   .     S
C63    N20     1.448   .     S
C63    H44     1.110   .     S
C64    H50     1.111   .     S
C64    H49     1.110   .     S
C64    N21     1.448   .     S
C64    H51     1.110   .     S
C65    H53     1.110   .     S
C65    N22     1.448   .     S
C65    H55     1.110   .     S
C65    H54     1.110   .     S
C66    H59     1.111   .     S
C66    H60     1.110   .     S
C66    H58     1.110   .     S
C66    N24     1.448   .     S
C67    N25     1.448   .     S
C67    H63     1.110   .     S
C67    H62     1.110   .     S
C67    H64     1.111   .     S
C68    C122    1.402   .     A
C68    C129    1.402   .     A
C68    C106    1.471   .     S
C69    H67     1.111   .     S
C69    H66     1.110   .     S
C69    N26     1.448   .     S
C69    H69     1.110   .     S
C70    C71     1.197   .     S
C70    C87     1.420   .     S
C71    C86     1.420   .     S
C72    C85     1.420   .     S
C72    C74     1.197   .     S
C73    C135    1.402   .     A
C73    C107    1.402   .     A
C74    C83     1.420   .     S
C75    C82     1.420   .     S
C75    C76     1.197   1_556 S
C76    C75     1.197   1_554 S
C76    C81     1.420   .     S
C77    C80     1.420   .     S
C77    C78     1.197   1_556 S
C78    C79     1.420   .     S
C78    C77     1.197   1_554 S
C79    O45     1.276   .     A
C79    O84     1.276   .     A
C80    O2      1.276   .     A
C80    O56     1.276   .     A
C81    O67     1.276   .     A
C81    O3      1.276   .     A
C82    O4      1.276   .     S
C82    O78     1.276   .     S
C83    O5      1.276   1_545 A
C83    O9      1.276   .     S
C84    C132    1.402   .     A
C84    C108    1.402   .     A
C85    O6      1.276   .     A
C85    O10     1.276   1_545 S
C86    O7      1.276   1_455 A
C86    O11     1.276   .     S
C87    O13     1.276   1_455 A
C87    O8      1.276   .     S
C88    O47     1.276   .     A
C88    O14     1.276   .     A
C89    O48     1.277   .     A
C89    O15     1.277   .     A
C90    O16     1.276   .     A
C90    O44     1.276   .     A
C91    O46     1.277   .     A
C91    O17     1.276   .     A
C92    O18     1.276   .     A
C92    O42     1.276   .     A
C93    O19     1.277   .     A
C93    O43     1.277   .     A
C94    O40     1.276   .     A
C94    O20     1.276   .     A
C95    C133    1.405   .     A
C95    C109    1.415   .     A
C95    C150    1.470   .     S
C96    O41     1.277   .     A
C96    O21     1.276   .     A
C97    O22     1.276   .     A
C97    O38     1.276   .     A
C98    O24     1.277   .     A
C98    O39     1.276   .     A
C99    O36     1.276   .     A
C99    O25     1.276   .     A
C100   O37     1.277   .     A
C100   O26     1.277   .     A
C101   O33     1.276   .     A
C101   O27     1.276   .     A
C102   O28     1.277   .     A
C102   O35     1.276   .     A
C103   O31     1.276   .     A
C103   O29     1.276   .     A
C104   O30     1.276   .     A
C104   O32     1.277   .     A
C105   O49     1.385   .     S
C105   C141    1.417   .     A
C106   C138    1.415   .     A
C106   C110    1.405   .     A
C107   C142    1.415   .     A
C107   O50     1.385   .     S
C108   O51     1.385   .     S
C108   C143    1.415   .     A
C109   C144    1.401   .     A
C109   O52     1.385   .     S
C110   C145    1.417   .     A
C110   O53     1.385   .     S
C111   O54     1.385   .     S
C111   C146    1.415   .     A
C111   C117    1.402   .     A
C112   C147    1.415   .     A
C112   C128    1.402   .     A
C112   O55     1.385   .     S
C113   C148    1.401   .     A
C113   C139    1.415   .     A
C113   O57     1.385   .     S
C114   C150    1.402   .     A
C114   C149    1.415   .     A
C114   O58     1.385   .     S
C115   C151    1.416   .     A
C115   O59     1.385   .     S
C116   O60     1.385   .     S
C116   C152    1.401   .     A
C117   C140    1.402   .     A
C118   C153    1.415   .     A
C118   O61     1.385   .     S
C119   C154    1.415   .     A
C119   O62     1.385   .     S
C120   C155    1.416   .     A
C120   O63     1.385   .     S
C121   O64     1.385   .     S
C121   C156    1.401   .     A
C122   O65     1.385   .     S
C122   C157    1.415   .     A
C123   O66     1.385   .     S
C123   C158    1.416   .     A
C124   O68     1.385   .     S
C124   C159    1.415   .     A
C125   C160    1.415   .     A
C125   C150    1.402   .     A
C125   O69     1.385   .     S
C126   O70     1.385   .     S
C127   O71     1.385   .     S
C128   C136    1.402   .     A
C129   O72     1.385   .     S
C130   O73     1.385   .     S
C131   O74     1.385   .     S
C132   O75     1.385   .     S
C133   O76     1.385   .     S
C134   O77     1.385   .     S
C135   O79     1.385   .     S
C136   O80     1.385   .     S
C137   C139    1.405   .     A
C137   O81     1.385   .     S
C138   O82     1.385   .     S
C140   O83     1.385   .     S
C141   N1      1.426   .     S
C142   N12     1.426   .     S
C143   N23     1.426   .     S
C144   N27     1.425   .     S
C145   N28     1.426   .     S
C146   N29     1.426   .     S
C147   N30     1.426   .     S
C148   N31     1.425   .     S
C149   N32     1.426   .     S
C151   N2      1.426   .     S
C152   N3      1.425   .     S
C153   N4      1.426   .     S
C154   N5      1.426   .     S
C155   N6      1.426   .     S
C156   N7      1.425   .     S
C157   N8      1.426   .     S
C158   N9      1.426   .     S
C159   N10     1.426   .     S
C160   N11     1.426   .     S
H1     O49     0.986   .     S
H2     O59     0.986   .     S
H4     N10     1.031   .     S
H8     N11     1.031   .     S
H12    N13     1.032   .     S
H13    O60     0.988   .     S
H17    N14     1.031   .     S
H21    N15     1.031   .     S
H24    O61     0.986   .     S
H26    N16     1.031   .     S
H30    N17     1.032   .     S
H34    N18     1.031   .     S
H35    O62     0.986   .     S
H39    N19     1.031   .     S
H43    N20     1.032   .     S
H46    O63     0.986   .     S
H48    N21     1.031   .     S
H52    N22     1.031   .     S
H56    N24     1.031   .     S
H57    O64     0.988   .     S
H61    N25     1.032   .     S
H65    N26     1.031   .     S
H68    O65     0.986   .     S
H70    O66     0.986   .     S
H71    O68     0.986   .     S
H72    O69     0.986   .     S
H73    O50     0.986   .     S
H74    O70     0.988   .     S
H75    O71     0.986   .     S
H76    O72     0.986   .     S
H77    O73     0.986   .     S
H78    O74     0.988   .     S
H79    O75     0.986   .     S
H80    O76     0.986   .     S
H81    O77     0.988   .     S
H82    O79     0.986   .     S
H83    O80     0.986   .     S
H84    O51     0.986   .     S
H85    O81     0.986   .     S
H86    O82     0.988   .     S
H87    O83     0.986   .     S
H88    N1      1.031   .     S
H92    N12     1.031   .     S
H95    O52     0.988   .     S
H97    N23     1.031   .     S
H101   N27     1.032   .     S
H105   N28     1.031   .     S
H106   O53     0.986   .     S
H110   N29     1.031   .     S
H114   N30     1.031   .     S
H117   O54     0.986   .     S
H119   N31     1.032   .     S
H123   N32     1.031   .     S
H127   N2      1.031   .     S
H128   O55     0.986   .     S
H132   N3      1.032   .     S
H136   N4      1.031   .     S
H139   O57     0.988   .     S
H141   N5      1.031   .     S
H145   N6      1.031   .     S
H149   N7      1.032   .     S
H150   O58     0.986   .     S
H154   N8      1.031   .     S
H158   N9      1.031   .     S
O1     Zn12    1.937   1_455 S
O1     Zn8     1.938   .     S
O1     Zn4     1.938   .     S
O1     Zn1     1.937   .     S
O2     Zn3     1.911   .     S
O3     Zn6     1.911   .     S
O4     Zn5     1.911   .     S
O5     C83     1.276   1_565 A
O5     Zn15    1.911   .     S
O6     Zn14    1.911   .     S
O7     Zn9     1.911   .     S
O7     C86     1.276   1_655 A
O8     Zn1     1.911   .     S
O9     Zn11    1.911   .     S
O10    Zn10    1.911   .     S
O10    C85     1.276   1_565 S
O11    Zn13    1.911   .     S
O12    Zn7     1.938   .     S
O12    Zn9     1.937   1_455 S
O12    Zn3     1.938   .     S
O12    Zn13    1.937   .     S
O13    Zn12    1.911   .     S
O13    C87     1.276   1_655 A
O14    Zn4     1.934   .     S
O15    Zn3     1.934   1_655 S
O16    Zn6     1.934   1_565 S
O17    Zn5     1.934   .     S
O18    Zn8     1.934   1_655 S
O19    Zn7     1.934   .     S
O20    Zn2     1.934   .     S
O21    Zn16    1.934   1_565 S
O22    Zn7     1.934   1_655 S
O23    Zn14    1.938   .     S
O23    Zn2     1.937   .     S
O23    Zn6     1.937   .     S
O23    Zn10    1.938   1_545 S
O24    Zn8     1.934   .     S
O25    Zn5     1.935   1_565 S
O26    Zn6     1.935   .     S
O27    Zn3     1.934   .     S
O28    Zn4     1.934   1_655 S
O29    Zn16    1.935   .     S
O30    Zn2     1.935   1_565 S
O31    Zn11    1.934   .     S
O32    Zn10    1.934   .     S
O33    Zn13    1.934   .     S
O34    Zn5     1.937   .     S
O34    Zn16    1.937   .     S
O34    Zn11    1.938   .     S
O34    Zn15    1.938   1_545 S
O35    Zn12    1.934   .     S
O36    Zn15    1.934   .     S
O37    Zn14    1.934   .     S
O38    Zn9     1.934   .     S
O39    Zn1     1.934   .     S
O40    Zn14    1.934   .     S
O41    Zn15    1.934   .     S
O42    Zn12    1.935   .     S
O43    Zn13    1.935   .     S
O44    Zn10    1.934   .     S
O45    Zn8     1.911   .     S
O46    Zn11    1.934   .     S
O47    Zn1     1.935   .     S
O48    Zn9     1.935   .     S
O56    Zn7     1.911   .     S
O67    Zn2     1.911   .     S
O78    Zn16    1.911   .     S
O84    Zn4     1.911   .     S
Zn2    O30     1.935   1_545 S
Zn3    O15     1.934   1_455 S
Zn4    O28     1.934   1_455 S
Zn5    O25     1.935   1_545 S
Zn6    O16     1.934   1_545 S
Zn7    O22     1.934   1_455 S
Zn8    O18     1.934   1_455 S
Zn9    O12     1.937   1_655 S
Zn10   O23     1.938   1_565 S
Zn12   O1      1.937   1_655 S
Zn15   O34     1.938   1_565 S
Zn16   O21     1.934   1_545 S
