data_str_m1_o10_o16_pcu_sym.83
_audit_creation_date              2020-01-03
_audit_creation_method            'Materials Studio'
_symmetry_space_group_name_H-M    'P1'
_symmetry_Int_Tables_number       1
_symmetry_cell_setting            triclinic
loop_
_symmetry_equiv_pos_as_xyz
  x,y,z
_cell_length_a                    32.7031
_cell_length_b                    32.6177
_cell_length_c                    30.7037
_cell_angle_alpha                 96.6853
_cell_angle_beta                  75.2659
_cell_angle_gamma                 98.8666
loop_
_atom_site_label
_atom_site_type_symbol
_atom_site_fract_x
_atom_site_fract_y
_atom_site_fract_z
_atom_site_U_iso_or_equiv
_atom_site_adp_type
_atom_site_occupancy
C1     C     0.05301   0.15919   0.25995   0.00000  Uiso   1.00
C2     C     0.18237   0.16395   0.05287   0.00000  Uiso   1.00
C3     C     0.19442   0.09563   0.06508   0.00000  Uiso   1.00
C4     C     0.28069   0.17401   0.24049   0.00000  Uiso   1.00
C5     C     0.13735   0.18905   0.42114   0.00000  Uiso   1.00
C6     C     0.32606   0.17892   0.23940   0.00000  Uiso   1.00
C7     C     0.00820   0.15502   0.26315   0.00000  Uiso   1.00
C8     C     0.17853   0.32201   0.23470   0.00000  Uiso   1.00
C9     C     0.15174   0.01202   0.26457   0.00000  Uiso   1.00
C10    C     0.15596   0.05600   0.26038   0.00000  Uiso   1.00
C11    C     0.17642   0.27784   0.24001   0.00000  Uiso   1.00
C12    C     0.11454   0.23378   0.48957   0.00000  Uiso   1.00
C13    C     0.18495   0.14792   0.12908   0.00000  Uiso   1.00
C14    C     0.14773   0.18374   0.37121   0.00000  Uiso   1.00
C15    C     0.18735   0.07974   0.02316   0.00000  Uiso   1.00
C16    C     0.19132   0.13715   0.08039   0.00000  Uiso   1.00
C17    C     0.12379   0.22672   0.44246   0.00000  Uiso   1.00
C18    C     0.31683   0.12037   0.28775   0.00000  Uiso   1.00
C19    C     0.20888   0.00609   0.19584   0.00000  Uiso   1.00
C20    C     0.08299   0.32735   0.30275   0.00000  Uiso   1.00
C21    C     0.05517   0.30569   0.34369   0.00000  Uiso   1.00
C22    C     0.00808   0.30039   0.34333   0.00000  Uiso   1.00
C23    C     0.12463   0.20553   0.01500   0.00000  Uiso   1.00
C24    C     0.16493   0.04783   0.43531   0.00000  Uiso   1.00
C25    C     0.19326   0.03648   0.01107   0.00000  Uiso   1.00
C26    C     0.19352   0.20834   0.06220   0.00000  Uiso   1.00
C27    C     0.07844   0.17944   0.07873   0.00000  Uiso   1.00
C28    C     0.03474   0.19070   0.07832   0.00000  Uiso   1.00
C29    C     0.33204   0.15817   0.09975   0.00000  Uiso   1.00
C30    C     0.05970   0.27444   0.00308   0.00000  Uiso   1.00
C31    C     0.06347   0.31484   0.48073   0.00000  Uiso   1.00
C32    C     0.02021   0.32324   0.47606   0.00000  Uiso   1.00
C33    C     0.12243   0.09770   0.39823   0.00000  Uiso   1.00
C34    C     0.14622   0.17122   0.49262   0.00000  Uiso   1.00
C35    C     0.02056   0.21104   0.21298   0.00000  Uiso   1.00
C36    C     0.14360   0.15877   0.44779   0.00000  Uiso   1.00
C37    C     0.16667   0.14711   0.01446   0.00000  Uiso   1.00
C38    C     0.17213   0.10499   0.49711   0.00000  Uiso   1.00
C39    C     0.16038   0.08983   0.45585   0.00000  Uiso   1.00
C40    C     0.14481   0.11628   0.43250   0.00000  Uiso   1.00
H41    H     0.20153   0.07511   0.08686   0.00000  Uiso   1.00
H42    H     0.07910   0.17661   0.11425   0.00000  Uiso   1.00
H43    H     0.08292   0.14820   0.06062   0.00000  Uiso   1.00
H44    H     0.03025   0.22152   0.09720   0.00000  Uiso   1.00
H45    H     0.03314   0.19264   0.04293   0.00000  Uiso   1.00
H46    H     0.00183   0.12738   0.08039   0.00000  Uiso   1.00
H47    H     0.30086   0.16752   0.09948   0.00000  Uiso   1.00
H48    H     0.33268   0.15543   0.13527   0.00000  Uiso   1.00
H49    H     0.03624   0.27636   0.03630   0.00000  Uiso   1.00
H50    H     0.04645   0.24776   0.48227   0.00000  Uiso   1.00
H51    H     0.07692   0.00802   0.00127   0.00000  Uiso   1.00
H52    H     0.11952   0.25040   0.42265   0.00000  Uiso   1.00
H53    H     0.08536   0.31263   0.44663   0.00000  Uiso   1.00
H54    H     0.00641   0.29735   0.45512   0.00000  Uiso   1.00
H55    H     0.02416   0.01921   0.45943   0.00000  Uiso   1.00
H56    H     0.33124   0.32660   0.00986   0.00000  Uiso   1.00
H57    H     0.07732   0.30870   0.27148   0.00000  Uiso   1.00
H58    H     0.07364   0.02563   0.30390   0.00000  Uiso   1.00
H59    H     0.06501   0.27453   0.34361   0.00000  Uiso   1.00
H60    H     0.05979   0.32445   0.37508   0.00000  Uiso   1.00
H61    H     0.33069   0.33123   0.34407   0.00000  Uiso   1.00
H62    H     0.32214   0.28475   0.37356   0.00000  Uiso   1.00
H63    H     0.00264   0.28093   0.31262   0.00000  Uiso   1.00
N64    N     0.29729   0.09268   0.30738   0.00000  Uiso   1.00
N65    N     0.23302   0.01998   0.16490   0.00000  Uiso   1.00
N66    N     0.16855   0.01458   0.41826   0.00000  Uiso   1.00
N67    N     0.19813   0.00182   0.00199   0.00000  Uiso   1.00
N68    N     0.20261   0.24372   0.06966   0.00000  Uiso   1.00
N69    N     0.10434   0.08285   0.37124   0.00000  Uiso   1.00
N70    N     0.04274   0.23667   0.19204   0.00000  Uiso   1.00
O71    O     0.16667   0.16667   0.25000   0.00000  Uiso   1.00
O72    O     0.15451   0.12637   0.15459   0.00000  Uiso   1.00
O73    O     0.12940   0.20391   0.34968   0.00000  Uiso   1.00
O74    O     0.20824   0.17759   0.14606   0.00000  Uiso   1.00
O75    O     0.17451   0.15880   0.34968   0.00000  Uiso   1.00
O76    O     0.12614   0.33017   0.30424   0.00000  Uiso   1.00
O77    O     0.11137   0.21135   0.06171   0.00000  Uiso   1.00
O78    O     0.09951   0.27014   0.01132   0.00000  Uiso   1.00
O79    O     0.17930   0.08019   0.28214   0.00000  Uiso   1.00
O80    O     0.14632   0.26085   0.27014   0.00000  Uiso   1.00
O81    O     0.07412   0.13291   0.23413   0.00000  Uiso   1.00
O82    O     0.26693   0.19272   0.21361   0.00000  Uiso   1.00
O83    O     0.07071   0.18878   0.28213   0.00000  Uiso   1.00
O84    O     0.25491   0.15226   0.27014   0.00000  Uiso   1.00
O85    O     0.13760   0.06944   0.23413   0.00000  Uiso   1.00
O86    O     0.20345   0.25620   0.21361   0.00000  Uiso   1.00
Zn87   Zn    0.19338   0.13994   0.28734   0.00000  Uiso   1.00
Zn88   Zn    0.13379   0.12458   0.21876   0.00000  Uiso   1.00
Zn89   Zn    0.21056   0.19775   0.20657   0.00000  Uiso   1.00
Zn90   Zn    0.12893   0.20439   0.28734   0.00000  Uiso   1.00
C91    C     0.38634   0.15919   0.25995   0.00000  Uiso   1.00
C92    C     0.51570   0.16395   0.05287   0.00000  Uiso   1.00
C93    C     0.52776   0.09563   0.06508   0.00000  Uiso   1.00
C94    C     0.61402   0.17401   0.24049   0.00000  Uiso   1.00
C95    C     0.47068   0.18905   0.42114   0.00000  Uiso   1.00
C96    C     0.65939   0.17892   0.23940   0.00000  Uiso   1.00
C97    C     0.34153   0.15502   0.26315   0.00000  Uiso   1.00
C98    C     0.51186   0.32201   0.23470   0.00000  Uiso   1.00
C99    C     0.48507   0.01202   0.26457   0.00000  Uiso   1.00
C100   C     0.48929   0.05600   0.26038   0.00000  Uiso   1.00
C101   C     0.50975   0.27784   0.24001   0.00000  Uiso   1.00
C102   C     0.44788   0.23378   0.48957   0.00000  Uiso   1.00
C103   C     0.51829   0.14792   0.12908   0.00000  Uiso   1.00
C104   C     0.48106   0.18374   0.37121   0.00000  Uiso   1.00
C105   C     0.52069   0.07974   0.02316   0.00000  Uiso   1.00
C106   C     0.52466   0.13715   0.08039   0.00000  Uiso   1.00
C107   C     0.45712   0.22672   0.44246   0.00000  Uiso   1.00
C108   C     0.65016   0.12037   0.28775   0.00000  Uiso   1.00
C109   C     0.54221   0.00609   0.19584   0.00000  Uiso   1.00
C110   C     0.41632   0.32735   0.30275   0.00000  Uiso   1.00
C111   C     0.38850   0.30569   0.34369   0.00000  Uiso   1.00
C112   C     0.34141   0.30039   0.34333   0.00000  Uiso   1.00
C113   C     0.45797   0.20553   0.01500   0.00000  Uiso   1.00
C114   C     0.49827   0.04783   0.43531   0.00000  Uiso   1.00
C115   C     0.52659   0.03648   0.01107   0.00000  Uiso   1.00
C116   C     0.52685   0.20834   0.06220   0.00000  Uiso   1.00
C117   C     0.41177   0.17944   0.07873   0.00000  Uiso   1.00
C118   C     0.36807   0.19070   0.07832   0.00000  Uiso   1.00
C119   C     0.66537   0.15817   0.09975   0.00000  Uiso   1.00
C120   C     0.39304   0.27444   0.00308   0.00000  Uiso   1.00
C121   C     0.39680   0.31484   0.48073   0.00000  Uiso   1.00
C122   C     0.35354   0.32324   0.47606   0.00000  Uiso   1.00
C123   C     0.45577   0.09770   0.39823   0.00000  Uiso   1.00
C124   C     0.47955   0.17122   0.49262   0.00000  Uiso   1.00
C125   C     0.35389   0.21104   0.21298   0.00000  Uiso   1.00
C126   C     0.47694   0.15877   0.44779   0.00000  Uiso   1.00
C127   C     0.50001   0.14711   0.01446   0.00000  Uiso   1.00
C128   C     0.50546   0.10499   0.49711   0.00000  Uiso   1.00
C129   C     0.49371   0.08983   0.45585   0.00000  Uiso   1.00
C130   C     0.47815   0.11628   0.43250   0.00000  Uiso   1.00
H131   H     0.53486   0.07511   0.08686   0.00000  Uiso   1.00
H132   H     0.41243   0.17661   0.11425   0.00000  Uiso   1.00
H133   H     0.41625   0.14820   0.06062   0.00000  Uiso   1.00
H134   H     0.36358   0.22152   0.09720   0.00000  Uiso   1.00
H135   H     0.36648   0.19264   0.04293   0.00000  Uiso   1.00
H136   H     0.33517   0.12738   0.08039   0.00000  Uiso   1.00
H137   H     0.63420   0.16752   0.09948   0.00000  Uiso   1.00
H138   H     0.66601   0.15543   0.13527   0.00000  Uiso   1.00
H139   H     0.36957   0.27636   0.03630   0.00000  Uiso   1.00
H140   H     0.37978   0.24776   0.48227   0.00000  Uiso   1.00
H141   H     0.41026   0.00802   0.00127   0.00000  Uiso   1.00
H142   H     0.45285   0.25040   0.42265   0.00000  Uiso   1.00
H143   H     0.41869   0.31263   0.44663   0.00000  Uiso   1.00
H144   H     0.33975   0.29735   0.45512   0.00000  Uiso   1.00
H145   H     0.35750   0.01921   0.45943   0.00000  Uiso   1.00
H146   H     0.66458   0.32660   0.00986   0.00000  Uiso   1.00
H147   H     0.41065   0.30870   0.27148   0.00000  Uiso   1.00
H148   H     0.40697   0.02563   0.30390   0.00000  Uiso   1.00
H149   H     0.39834   0.27453   0.34361   0.00000  Uiso   1.00
H150   H     0.39312   0.32445   0.37508   0.00000  Uiso   1.00
H151   H     0.66403   0.33123   0.34407   0.00000  Uiso   1.00
H152   H     0.65547   0.28475   0.37356   0.00000  Uiso   1.00
H153   H     0.33598   0.28093   0.31262   0.00000  Uiso   1.00
N154   N     0.63063   0.09268   0.30738   0.00000  Uiso   1.00
N155   N     0.56635   0.01998   0.16490   0.00000  Uiso   1.00
N156   N     0.50189   0.01458   0.41826   0.00000  Uiso   1.00
N157   N     0.53146   0.00182   0.00199   0.00000  Uiso   1.00
N158   N     0.53595   0.24372   0.06966   0.00000  Uiso   1.00
N159   N     0.43768   0.08285   0.37124   0.00000  Uiso   1.00
N160   N     0.37608   0.23667   0.19204   0.00000  Uiso   1.00
O161   O     0.50000   0.16667   0.25000   0.00000  Uiso   1.00
O162   O     0.48784   0.12637   0.15459   0.00000  Uiso   1.00
O163   O     0.46274   0.20391   0.34968   0.00000  Uiso   1.00
O164   O     0.54157   0.17759   0.14606   0.00000  Uiso   1.00
O165   O     0.50785   0.15880   0.34968   0.00000  Uiso   1.00
O166   O     0.45947   0.33017   0.30424   0.00000  Uiso   1.00
O167   O     0.44471   0.21135   0.06171   0.00000  Uiso   1.00
O168   O     0.43285   0.27014   0.01132   0.00000  Uiso   1.00
O169   O     0.51264   0.08019   0.28214   0.00000  Uiso   1.00
O170   O     0.47965   0.26085   0.27014   0.00000  Uiso   1.00
O171   O     0.40745   0.13291   0.23413   0.00000  Uiso   1.00
O172   O     0.60026   0.19272   0.21361   0.00000  Uiso   1.00
O173   O     0.40405   0.18878   0.28213   0.00000  Uiso   1.00
O174   O     0.58824   0.15226   0.27014   0.00000  Uiso   1.00
O175   O     0.47093   0.06944   0.23413   0.00000  Uiso   1.00
O176   O     0.53678   0.25620   0.21361   0.00000  Uiso   1.00
Zn177  Zn    0.52672   0.13994   0.28734   0.00000  Uiso   1.00
Zn178  Zn    0.46713   0.12458   0.21876   0.00000  Uiso   1.00
Zn179  Zn    0.54389   0.19775   0.20657   0.00000  Uiso   1.00
Zn180  Zn    0.46226   0.20439   0.28734   0.00000  Uiso   1.00
C181   C     0.71967   0.15919   0.25995   0.00000  Uiso   1.00
C182   C     0.84904   0.16395   0.05287   0.00000  Uiso   1.00
C183   C     0.86109   0.09563   0.06508   0.00000  Uiso   1.00
C184   C     0.94735   0.17401   0.24049   0.00000  Uiso   1.00
C185   C     0.80401   0.18905   0.42114   0.00000  Uiso   1.00
C186   C     0.99272   0.17892   0.23940   0.00000  Uiso   1.00
C187   C     0.67487   0.15502   0.26315   0.00000  Uiso   1.00
C188   C     0.84519   0.32201   0.23470   0.00000  Uiso   1.00
C189   C     0.81841   0.01202   0.26457   0.00000  Uiso   1.00
C190   C     0.82263   0.05600   0.26038   0.00000  Uiso   1.00
C191   C     0.84309   0.27784   0.24001   0.00000  Uiso   1.00
C192   C     0.78121   0.23378   0.48957   0.00000  Uiso   1.00
C193   C     0.85162   0.14792   0.12908   0.00000  Uiso   1.00
C194   C     0.81440   0.18374   0.37121   0.00000  Uiso   1.00
C195   C     0.85402   0.07974   0.02316   0.00000  Uiso   1.00
C196   C     0.85799   0.13715   0.08039   0.00000  Uiso   1.00
C197   C     0.79046   0.22672   0.44246   0.00000  Uiso   1.00
C198   C     0.98349   0.12037   0.28775   0.00000  Uiso   1.00
C199   C     0.87554   0.00609   0.19584   0.00000  Uiso   1.00
C200   C     0.74966   0.32735   0.30275   0.00000  Uiso   1.00
C201   C     0.72184   0.30569   0.34369   0.00000  Uiso   1.00
C202   C     0.67474   0.30039   0.34333   0.00000  Uiso   1.00
C203   C     0.79130   0.20553   0.01500   0.00000  Uiso   1.00
C204   C     0.83160   0.04783   0.43531   0.00000  Uiso   1.00
C205   C     0.85993   0.03648   0.01107   0.00000  Uiso   1.00
C206   C     0.86019   0.20834   0.06220   0.00000  Uiso   1.00
C207   C     0.74511   0.17944   0.07873   0.00000  Uiso   1.00
C208   C     0.70141   0.19070   0.07832   0.00000  Uiso   1.00
C209   C     0.99871   0.15817   0.09975   0.00000  Uiso   1.00
C210   C     0.72637   0.27444   0.00308   0.00000  Uiso   1.00
C211   C     0.73014   0.31484   0.48073   0.00000  Uiso   1.00
C212   C     0.68688   0.32324   0.47606   0.00000  Uiso   1.00
C213   C     0.78910   0.09770   0.39823   0.00000  Uiso   1.00
C214   C     0.81289   0.17122   0.49262   0.00000  Uiso   1.00
C215   C     0.68723   0.21104   0.21298   0.00000  Uiso   1.00
C216   C     0.81027   0.15877   0.44779   0.00000  Uiso   1.00
C217   C     0.83334   0.14711   0.01446   0.00000  Uiso   1.00
C218   C     0.83879   0.10499   0.49711   0.00000  Uiso   1.00
C219   C     0.82705   0.08983   0.45585   0.00000  Uiso   1.00
C220   C     0.81148   0.11628   0.43250   0.00000  Uiso   1.00
H221   H     0.86819   0.07511   0.08686   0.00000  Uiso   1.00
H222   H     0.74577   0.17661   0.11425   0.00000  Uiso   1.00
H223   H     0.74958   0.14820   0.06062   0.00000  Uiso   1.00
H224   H     0.69692   0.22152   0.09720   0.00000  Uiso   1.00
H225   H     0.69981   0.19264   0.04293   0.00000  Uiso   1.00
H226   H     0.66850   0.12738   0.08039   0.00000  Uiso   1.00
H227   H     0.96753   0.16752   0.09948   0.00000  Uiso   1.00
H228   H     0.99934   0.15543   0.13527   0.00000  Uiso   1.00
H229   H     0.70291   0.27636   0.03630   0.00000  Uiso   1.00
H230   H     0.71311   0.24776   0.48227   0.00000  Uiso   1.00
H231   H     0.74359   0.00802   0.00127   0.00000  Uiso   1.00
H232   H     0.78619   0.25040   0.42265   0.00000  Uiso   1.00
H233   H     0.75202   0.31263   0.44663   0.00000  Uiso   1.00
H234   H     0.67308   0.29735   0.45512   0.00000  Uiso   1.00
H235   H     0.69083   0.01921   0.45943   0.00000  Uiso   1.00
H236   H     0.99791   0.32660   0.00986   0.00000  Uiso   1.00
H237   H     0.74398   0.30870   0.27148   0.00000  Uiso   1.00
H238   H     0.74030   0.02563   0.30390   0.00000  Uiso   1.00
H239   H     0.73168   0.27453   0.34361   0.00000  Uiso   1.00
H240   H     0.72645   0.32445   0.37508   0.00000  Uiso   1.00
H241   H     0.99736   0.33123   0.34407   0.00000  Uiso   1.00
H242   H     0.98881   0.28475   0.37356   0.00000  Uiso   1.00
H243   H     0.66931   0.28093   0.31262   0.00000  Uiso   1.00
N244   N     0.96396   0.09268   0.30738   0.00000  Uiso   1.00
N245   N     0.89969   0.01998   0.16490   0.00000  Uiso   1.00
N246   N     0.83522   0.01458   0.41826   0.00000  Uiso   1.00
N247   N     0.86480   0.00182   0.00199   0.00000  Uiso   1.00
N248   N     0.86928   0.24372   0.06966   0.00000  Uiso   1.00
N249   N     0.77101   0.08285   0.37124   0.00000  Uiso   1.00
N250   N     0.70941   0.23667   0.19204   0.00000  Uiso   1.00
O251   O     0.83333   0.16667   0.25000   0.00000  Uiso   1.00
O252   O     0.82118   0.12637   0.15459   0.00000  Uiso   1.00
O253   O     0.79607   0.20391   0.34968   0.00000  Uiso   1.00
O254   O     0.87491   0.17759   0.14606   0.00000  Uiso   1.00
O255   O     0.84118   0.15880   0.34968   0.00000  Uiso   1.00
O256   O     0.79280   0.33017   0.30424   0.00000  Uiso   1.00
O257   O     0.77804   0.21135   0.06171   0.00000  Uiso   1.00
O258   O     0.76618   0.27014   0.01132   0.00000  Uiso   1.00
O259   O     0.84597   0.08019   0.28214   0.00000  Uiso   1.00
O260   O     0.81298   0.26085   0.27014   0.00000  Uiso   1.00
O261   O     0.74078   0.13291   0.23413   0.00000  Uiso   1.00
O262   O     0.93360   0.19272   0.21361   0.00000  Uiso   1.00
O263   O     0.73738   0.18878   0.28213   0.00000  Uiso   1.00
O264   O     0.92158   0.15226   0.27014   0.00000  Uiso   1.00
O265   O     0.80426   0.06944   0.23413   0.00000  Uiso   1.00
O266   O     0.87012   0.25620   0.21361   0.00000  Uiso   1.00
Zn267  Zn    0.86005   0.13994   0.28734   0.00000  Uiso   1.00
Zn268  Zn    0.80046   0.12458   0.21876   0.00000  Uiso   1.00
Zn269  Zn    0.87723   0.19775   0.20657   0.00000  Uiso   1.00
Zn270  Zn    0.79560   0.20439   0.28734   0.00000  Uiso   1.00
C271   C     0.05301   0.49252   0.25995   0.00000  Uiso   1.00
C272   C     0.18237   0.49729   0.05287   0.00000  Uiso   1.00
C273   C     0.19442   0.42897   0.06508   0.00000  Uiso   1.00
C274   C     0.28069   0.50735   0.24049   0.00000  Uiso   1.00
C275   C     0.13735   0.52239   0.42114   0.00000  Uiso   1.00
C276   C     0.32606   0.51225   0.23940   0.00000  Uiso   1.00
C277   C     0.00820   0.48835   0.26315   0.00000  Uiso   1.00
C278   C     0.17853   0.65534   0.23470   0.00000  Uiso   1.00
C279   C     0.15174   0.34536   0.26457   0.00000  Uiso   1.00
C280   C     0.15596   0.38934   0.26038   0.00000  Uiso   1.00
C281   C     0.17642   0.61118   0.24001   0.00000  Uiso   1.00
C282   C     0.11454   0.56711   0.48957   0.00000  Uiso   1.00
C283   C     0.18495   0.48125   0.12908   0.00000  Uiso   1.00
C284   C     0.14773   0.51708   0.37121   0.00000  Uiso   1.00
C285   C     0.18735   0.41307   0.02316   0.00000  Uiso   1.00
C286   C     0.19132   0.47048   0.08039   0.00000  Uiso   1.00
C287   C     0.12379   0.56006   0.44246   0.00000  Uiso   1.00
C288   C     0.31683   0.45371   0.28775   0.00000  Uiso   1.00
C289   C     0.20888   0.33942   0.19584   0.00000  Uiso   1.00
C290   C     0.08299   0.66069   0.30275   0.00000  Uiso   1.00
C291   C     0.05517   0.63903   0.34369   0.00000  Uiso   1.00
C292   C     0.00808   0.63373   0.34333   0.00000  Uiso   1.00
C293   C     0.12463   0.53886   0.01500   0.00000  Uiso   1.00
C294   C     0.16493   0.38117   0.43531   0.00000  Uiso   1.00
C295   C     0.19326   0.36981   0.01107   0.00000  Uiso   1.00
C296   C     0.19352   0.54167   0.06220   0.00000  Uiso   1.00
C297   C     0.07844   0.51277   0.07873   0.00000  Uiso   1.00
C298   C     0.03474   0.52403   0.07832   0.00000  Uiso   1.00
C299   C     0.33204   0.49150   0.09975   0.00000  Uiso   1.00
C300   C     0.05970   0.60777   0.00308   0.00000  Uiso   1.00
C301   C     0.06347   0.64817   0.48073   0.00000  Uiso   1.00
C302   C     0.02021   0.65657   0.47606   0.00000  Uiso   1.00
C303   C     0.12243   0.43103   0.39823   0.00000  Uiso   1.00
C304   C     0.14622   0.50456   0.49262   0.00000  Uiso   1.00
C305   C     0.02056   0.54438   0.21298   0.00000  Uiso   1.00
C306   C     0.14360   0.49210   0.44779   0.00000  Uiso   1.00
C307   C     0.16667   0.48045   0.01446   0.00000  Uiso   1.00
C308   C     0.17213   0.43832   0.49711   0.00000  Uiso   1.00
C309   C     0.16038   0.42317   0.45585   0.00000  Uiso   1.00
C310   C     0.14481   0.44961   0.43250   0.00000  Uiso   1.00
H311   H     0.20153   0.40845   0.08686   0.00000  Uiso   1.00
H312   H     0.07910   0.50995   0.11425   0.00000  Uiso   1.00
H313   H     0.08292   0.48153   0.06062   0.00000  Uiso   1.00
H314   H     0.03025   0.55486   0.09720   0.00000  Uiso   1.00
H315   H     0.03314   0.52597   0.04293   0.00000  Uiso   1.00
H316   H     0.00183   0.46071   0.08039   0.00000  Uiso   1.00
H317   H     0.30086   0.50086   0.09948   0.00000  Uiso   1.00
H318   H     0.33268   0.48876   0.13527   0.00000  Uiso   1.00
H319   H     0.03624   0.60969   0.03630   0.00000  Uiso   1.00
H320   H     0.04645   0.58109   0.48227   0.00000  Uiso   1.00
H321   H     0.07692   0.34135   0.00127   0.00000  Uiso   1.00
H322   H     0.11952   0.58374   0.42265   0.00000  Uiso   1.00
H323   H     0.08536   0.64596   0.44663   0.00000  Uiso   1.00
H324   H     0.00641   0.63069   0.45512   0.00000  Uiso   1.00
H325   H     0.02416   0.35255   0.45943   0.00000  Uiso   1.00
H326   H     0.33124   0.65993   0.00986   0.00000  Uiso   1.00
H327   H     0.07732   0.64203   0.27148   0.00000  Uiso   1.00
H328   H     0.07364   0.35896   0.30390   0.00000  Uiso   1.00
H329   H     0.06501   0.60786   0.34361   0.00000  Uiso   1.00
H330   H     0.05979   0.65778   0.37508   0.00000  Uiso   1.00
H331   H     0.33069   0.66456   0.34407   0.00000  Uiso   1.00
H332   H     0.32214   0.61808   0.37356   0.00000  Uiso   1.00
H333   H     0.00264   0.61427   0.31262   0.00000  Uiso   1.00
N334   N     0.29729   0.42602   0.30738   0.00000  Uiso   1.00
N335   N     0.23302   0.35331   0.16490   0.00000  Uiso   1.00
N336   N     0.16855   0.34791   0.41826   0.00000  Uiso   1.00
N337   N     0.19813   0.33515   0.00199   0.00000  Uiso   1.00
N338   N     0.20261   0.57705   0.06966   0.00000  Uiso   1.00
N339   N     0.10434   0.41619   0.37124   0.00000  Uiso   1.00
N340   N     0.04274   0.57000   0.19204   0.00000  Uiso   1.00
O341   O     0.16667   0.50000   0.25000   0.00000  Uiso   1.00
O342   O     0.15451   0.45970   0.15459   0.00000  Uiso   1.00
O343   O     0.12940   0.53724   0.34968   0.00000  Uiso   1.00
O344   O     0.20824   0.51092   0.14606   0.00000  Uiso   1.00
O345   O     0.17451   0.49213   0.34968   0.00000  Uiso   1.00
O346   O     0.12614   0.66351   0.30424   0.00000  Uiso   1.00
O347   O     0.11137   0.54469   0.06171   0.00000  Uiso   1.00
O348   O     0.09951   0.60348   0.01132   0.00000  Uiso   1.00
O349   O     0.17930   0.41352   0.28214   0.00000  Uiso   1.00
O350   O     0.14632   0.59418   0.27014   0.00000  Uiso   1.00
O351   O     0.07412   0.46625   0.23413   0.00000  Uiso   1.00
O352   O     0.26693   0.52605   0.21361   0.00000  Uiso   1.00
O353   O     0.07071   0.52211   0.28213   0.00000  Uiso   1.00
O354   O     0.25491   0.48559   0.27014   0.00000  Uiso   1.00
O355   O     0.13760   0.40277   0.23413   0.00000  Uiso   1.00
O356   O     0.20345   0.58953   0.21361   0.00000  Uiso   1.00
Zn357  Zn    0.19338   0.47327   0.28734   0.00000  Uiso   1.00
Zn358  Zn    0.13379   0.45791   0.21876   0.00000  Uiso   1.00
Zn359  Zn    0.21056   0.53109   0.20657   0.00000  Uiso   1.00
Zn360  Zn    0.12893   0.53773   0.28734   0.00000  Uiso   1.00
C361   C     0.38634   0.49252   0.25995   0.00000  Uiso   1.00
C362   C     0.51570   0.49729   0.05287   0.00000  Uiso   1.00
C363   C     0.52776   0.42897   0.06508   0.00000  Uiso   1.00
C364   C     0.61402   0.50735   0.24049   0.00000  Uiso   1.00
C365   C     0.47068   0.52239   0.42114   0.00000  Uiso   1.00
C366   C     0.65939   0.51225   0.23940   0.00000  Uiso   1.00
C367   C     0.34153   0.48835   0.26315   0.00000  Uiso   1.00
C368   C     0.51186   0.65534   0.23470   0.00000  Uiso   1.00
C369   C     0.48507   0.34536   0.26457   0.00000  Uiso   1.00
C370   C     0.48929   0.38934   0.26038   0.00000  Uiso   1.00
C371   C     0.50975   0.61118   0.24001   0.00000  Uiso   1.00
C372   C     0.44788   0.56711   0.48957   0.00000  Uiso   1.00
C373   C     0.51829   0.48125   0.12908   0.00000  Uiso   1.00
C374   C     0.48106   0.51708   0.37121   0.00000  Uiso   1.00
C375   C     0.52069   0.41307   0.02316   0.00000  Uiso   1.00
C376   C     0.52466   0.47048   0.08039   0.00000  Uiso   1.00
C377   C     0.45712   0.56006   0.44246   0.00000  Uiso   1.00
C378   C     0.65016   0.45371   0.28775   0.00000  Uiso   1.00
C379   C     0.54221   0.33942   0.19584   0.00000  Uiso   1.00
C380   C     0.41632   0.66069   0.30275   0.00000  Uiso   1.00
C381   C     0.38850   0.63903   0.34369   0.00000  Uiso   1.00
C382   C     0.34141   0.63373   0.34333   0.00000  Uiso   1.00
C383   C     0.45797   0.53886   0.01500   0.00000  Uiso   1.00
C384   C     0.49827   0.38117   0.43531   0.00000  Uiso   1.00
C385   C     0.52659   0.36981   0.01107   0.00000  Uiso   1.00
C386   C     0.52685   0.54167   0.06220   0.00000  Uiso   1.00
C387   C     0.41177   0.51277   0.07873   0.00000  Uiso   1.00
C388   C     0.36807   0.52403   0.07832   0.00000  Uiso   1.00
C389   C     0.66537   0.49150   0.09975   0.00000  Uiso   1.00
C390   C     0.39304   0.60777   0.00308   0.00000  Uiso   1.00
C391   C     0.39680   0.64817   0.48073   0.00000  Uiso   1.00
C392   C     0.35354   0.65657   0.47606   0.00000  Uiso   1.00
C393   C     0.45577   0.43103   0.39823   0.00000  Uiso   1.00
C394   C     0.47955   0.50456   0.49262   0.00000  Uiso   1.00
C395   C     0.35389   0.54438   0.21298   0.00000  Uiso   1.00
C396   C     0.47694   0.49210   0.44779   0.00000  Uiso   1.00
C397   C     0.50001   0.48045   0.01446   0.00000  Uiso   1.00
C398   C     0.50546   0.43832   0.49711   0.00000  Uiso   1.00
C399   C     0.49371   0.42317   0.45585   0.00000  Uiso   1.00
C400   C     0.47815   0.44961   0.43250   0.00000  Uiso   1.00
H401   H     0.53486   0.40845   0.08686   0.00000  Uiso   1.00
H402   H     0.41243   0.50995   0.11425   0.00000  Uiso   1.00
H403   H     0.41625   0.48153   0.06062   0.00000  Uiso   1.00
H404   H     0.36358   0.55486   0.09720   0.00000  Uiso   1.00
H405   H     0.36648   0.52597   0.04293   0.00000  Uiso   1.00
H406   H     0.33517   0.46071   0.08039   0.00000  Uiso   1.00
H407   H     0.63420   0.50086   0.09948   0.00000  Uiso   1.00
H408   H     0.66601   0.48876   0.13527   0.00000  Uiso   1.00
H409   H     0.36957   0.60969   0.03630   0.00000  Uiso   1.00
H410   H     0.37978   0.58109   0.48227   0.00000  Uiso   1.00
H411   H     0.41026   0.34135   0.00127   0.00000  Uiso   1.00
H412   H     0.45285   0.58374   0.42265   0.00000  Uiso   1.00
H413   H     0.41869   0.64596   0.44663   0.00000  Uiso   1.00
H414   H     0.33975   0.63069   0.45512   0.00000  Uiso   1.00
H415   H     0.35750   0.35255   0.45943   0.00000  Uiso   1.00
H416   H     0.66458   0.65993   0.00986   0.00000  Uiso   1.00
H417   H     0.41065   0.64203   0.27148   0.00000  Uiso   1.00
H418   H     0.40697   0.35896   0.30390   0.00000  Uiso   1.00
H419   H     0.39834   0.60786   0.34361   0.00000  Uiso   1.00
H420   H     0.39312   0.65778   0.37508   0.00000  Uiso   1.00
H421   H     0.66403   0.66456   0.34407   0.00000  Uiso   1.00
H422   H     0.65547   0.61808   0.37356   0.00000  Uiso   1.00
H423   H     0.33598   0.61427   0.31262   0.00000  Uiso   1.00
N424   N     0.63063   0.42602   0.30738   0.00000  Uiso   1.00
N425   N     0.56635   0.35331   0.16490   0.00000  Uiso   1.00
N426   N     0.50189   0.34791   0.41826   0.00000  Uiso   1.00
N427   N     0.53146   0.33515   0.00199   0.00000  Uiso   1.00
N428   N     0.53595   0.57705   0.06966   0.00000  Uiso   1.00
N429   N     0.43768   0.41619   0.37124   0.00000  Uiso   1.00
N430   N     0.37608   0.57000   0.19204   0.00000  Uiso   1.00
O431   O     0.50000   0.50000   0.25000   0.00000  Uiso   1.00
O432   O     0.48784   0.45970   0.15459   0.00000  Uiso   1.00
O433   O     0.46274   0.53724   0.34968   0.00000  Uiso   1.00
O434   O     0.54157   0.51092   0.14606   0.00000  Uiso   1.00
O435   O     0.50785   0.49213   0.34968   0.00000  Uiso   1.00
O436   O     0.45947   0.66351   0.30424   0.00000  Uiso   1.00
O437   O     0.44471   0.54469   0.06171   0.00000  Uiso   1.00
O438   O     0.43285   0.60348   0.01132   0.00000  Uiso   1.00
O439   O     0.51264   0.41352   0.28214   0.00000  Uiso   1.00
O440   O     0.47965   0.59418   0.27014   0.00000  Uiso   1.00
O441   O     0.40745   0.46625   0.23413   0.00000  Uiso   1.00
O442   O     0.60026   0.52605   0.21361   0.00000  Uiso   1.00
O443   O     0.40405   0.52211   0.28213   0.00000  Uiso   1.00
O444   O     0.58824   0.48559   0.27014   0.00000  Uiso   1.00
O445   O     0.47093   0.40277   0.23413   0.00000  Uiso   1.00
O446   O     0.53678   0.58953   0.21361   0.00000  Uiso   1.00
Zn447  Zn    0.52672   0.47327   0.28734   0.00000  Uiso   1.00
Zn448  Zn    0.46713   0.45791   0.21876   0.00000  Uiso   1.00
Zn449  Zn    0.54389   0.53109   0.20657   0.00000  Uiso   1.00
Zn450  Zn    0.46226   0.53773   0.28734   0.00000  Uiso   1.00
C451   C     0.71967   0.49252   0.25995   0.00000  Uiso   1.00
C452   C     0.84904   0.49729   0.05287   0.00000  Uiso   1.00
C453   C     0.86109   0.42897   0.06508   0.00000  Uiso   1.00
C454   C     0.94735   0.50735   0.24049   0.00000  Uiso   1.00
C455   C     0.80401   0.52239   0.42114   0.00000  Uiso   1.00
C456   C     0.99272   0.51225   0.23940   0.00000  Uiso   1.00
C457   C     0.67487   0.48835   0.26315   0.00000  Uiso   1.00
C458   C     0.84519   0.65534   0.23470   0.00000  Uiso   1.00
C459   C     0.81841   0.34536   0.26457   0.00000  Uiso   1.00
C460   C     0.82263   0.38934   0.26038   0.00000  Uiso   1.00
C461   C     0.84309   0.61118   0.24001   0.00000  Uiso   1.00
C462   C     0.78121   0.56711   0.48957   0.00000  Uiso   1.00
C463   C     0.85162   0.48125   0.12908   0.00000  Uiso   1.00
C464   C     0.81440   0.51708   0.37121   0.00000  Uiso   1.00
C465   C     0.85402   0.41307   0.02316   0.00000  Uiso   1.00
C466   C     0.85799   0.47048   0.08039   0.00000  Uiso   1.00
C467   C     0.79046   0.56006   0.44246   0.00000  Uiso   1.00
C468   C     0.98349   0.45371   0.28775   0.00000  Uiso   1.00
C469   C     0.87554   0.33942   0.19584   0.00000  Uiso   1.00
C470   C     0.74966   0.66069   0.30275   0.00000  Uiso   1.00
C471   C     0.72184   0.63903   0.34369   0.00000  Uiso   1.00
C472   C     0.67474   0.63373   0.34333   0.00000  Uiso   1.00
C473   C     0.79130   0.53886   0.01500   0.00000  Uiso   1.00
C474   C     0.83160   0.38117   0.43531   0.00000  Uiso   1.00
C475   C     0.85993   0.36981   0.01107   0.00000  Uiso   1.00
C476   C     0.86019   0.54167   0.06220   0.00000  Uiso   1.00
C477   C     0.74511   0.51277   0.07873   0.00000  Uiso   1.00
C478   C     0.70141   0.52403   0.07832   0.00000  Uiso   1.00
C479   C     0.99871   0.49150   0.09975   0.00000  Uiso   1.00
C480   C     0.72637   0.60777   0.00308   0.00000  Uiso   1.00
C481   C     0.73014   0.64817   0.48073   0.00000  Uiso   1.00
C482   C     0.68688   0.65657   0.47606   0.00000  Uiso   1.00
C483   C     0.78910   0.43103   0.39823   0.00000  Uiso   1.00
C484   C     0.81289   0.50456   0.49262   0.00000  Uiso   1.00
C485   C     0.68723   0.54438   0.21298   0.00000  Uiso   1.00
C486   C     0.81027   0.49210   0.44779   0.00000  Uiso   1.00
C487   C     0.83334   0.48045   0.01446   0.00000  Uiso   1.00
C488   C     0.83879   0.43832   0.49711   0.00000  Uiso   1.00
C489   C     0.82705   0.42317   0.45585   0.00000  Uiso   1.00
C490   C     0.81148   0.44961   0.43250   0.00000  Uiso   1.00
H491   H     0.86819   0.40845   0.08686   0.00000  Uiso   1.00
H492   H     0.74577   0.50995   0.11425   0.00000  Uiso   1.00
H493   H     0.74958   0.48153   0.06062   0.00000  Uiso   1.00
H494   H     0.69692   0.55486   0.09720   0.00000  Uiso   1.00
H495   H     0.69981   0.52597   0.04293   0.00000  Uiso   1.00
H496   H     0.66850   0.46071   0.08039   0.00000  Uiso   1.00
H497   H     0.96753   0.50086   0.09948   0.00000  Uiso   1.00
H498   H     0.99934   0.48876   0.13527   0.00000  Uiso   1.00
H499   H     0.70291   0.60969   0.03630   0.00000  Uiso   1.00
H500   H     0.71311   0.58109   0.48227   0.00000  Uiso   1.00
H501   H     0.74359   0.34135   0.00127   0.00000  Uiso   1.00
H502   H     0.78619   0.58374   0.42265   0.00000  Uiso   1.00
H503   H     0.75202   0.64596   0.44663   0.00000  Uiso   1.00
H504   H     0.67308   0.63069   0.45512   0.00000  Uiso   1.00
H505   H     0.69083   0.35255   0.45943   0.00000  Uiso   1.00
H506   H     0.99791   0.65993   0.00986   0.00000  Uiso   1.00
H507   H     0.74398   0.64203   0.27148   0.00000  Uiso   1.00
H508   H     0.74030   0.35896   0.30390   0.00000  Uiso   1.00
H509   H     0.73168   0.60786   0.34361   0.00000  Uiso   1.00
H510   H     0.72645   0.65778   0.37508   0.00000  Uiso   1.00
H511   H     0.99736   0.66456   0.34407   0.00000  Uiso   1.00
H512   H     0.98881   0.61808   0.37356   0.00000  Uiso   1.00
H513   H     0.66931   0.61427   0.31262   0.00000  Uiso   1.00
N514   N     0.96396   0.42602   0.30738   0.00000  Uiso   1.00
N515   N     0.89969   0.35331   0.16490   0.00000  Uiso   1.00
N516   N     0.83522   0.34791   0.41826   0.00000  Uiso   1.00
N517   N     0.86480   0.33515   0.00199   0.00000  Uiso   1.00
N518   N     0.86928   0.57705   0.06966   0.00000  Uiso   1.00
N519   N     0.77101   0.41619   0.37124   0.00000  Uiso   1.00
N520   N     0.70941   0.57000   0.19204   0.00000  Uiso   1.00
O521   O     0.83333   0.50000   0.25000   0.00000  Uiso   1.00
O522   O     0.82118   0.45970   0.15459   0.00000  Uiso   1.00
O523   O     0.79607   0.53724   0.34968   0.00000  Uiso   1.00
O524   O     0.87491   0.51092   0.14606   0.00000  Uiso   1.00
O525   O     0.84118   0.49213   0.34968   0.00000  Uiso   1.00
O526   O     0.79280   0.66351   0.30424   0.00000  Uiso   1.00
O527   O     0.77804   0.54469   0.06171   0.00000  Uiso   1.00
O528   O     0.76618   0.60348   0.01132   0.00000  Uiso   1.00
O529   O     0.84597   0.41352   0.28214   0.00000  Uiso   1.00
O530   O     0.81298   0.59418   0.27014   0.00000  Uiso   1.00
O531   O     0.74078   0.46625   0.23413   0.00000  Uiso   1.00
O532   O     0.93360   0.52605   0.21361   0.00000  Uiso   1.00
O533   O     0.73738   0.52211   0.28213   0.00000  Uiso   1.00
O534   O     0.92158   0.48559   0.27014   0.00000  Uiso   1.00
O535   O     0.80426   0.40277   0.23413   0.00000  Uiso   1.00
O536   O     0.87012   0.58953   0.21361   0.00000  Uiso   1.00
Zn537  Zn    0.86005   0.47327   0.28734   0.00000  Uiso   1.00
Zn538  Zn    0.80046   0.45791   0.21876   0.00000  Uiso   1.00
Zn539  Zn    0.87723   0.53109   0.20657   0.00000  Uiso   1.00
Zn540  Zn    0.79560   0.53773   0.28734   0.00000  Uiso   1.00
C541   C     0.05301   0.82585   0.25995   0.00000  Uiso   1.00
C542   C     0.18237   0.83062   0.05287   0.00000  Uiso   1.00
C543   C     0.19442   0.76230   0.06508   0.00000  Uiso   1.00
C544   C     0.28069   0.84068   0.24049   0.00000  Uiso   1.00
C545   C     0.13735   0.85572   0.42114   0.00000  Uiso   1.00
C546   C     0.32606   0.84558   0.23940   0.00000  Uiso   1.00
C547   C     0.00820   0.82168   0.26315   0.00000  Uiso   1.00
C548   C     0.17853   0.98867   0.23470   0.00000  Uiso   1.00
C549   C     0.15174   0.67869   0.26457   0.00000  Uiso   1.00
C550   C     0.15596   0.72267   0.26038   0.00000  Uiso   1.00
C551   C     0.17642   0.94451   0.24001   0.00000  Uiso   1.00
C552   C     0.11454   0.90044   0.48957   0.00000  Uiso   1.00
C553   C     0.18495   0.81458   0.12908   0.00000  Uiso   1.00
C554   C     0.14773   0.85041   0.37121   0.00000  Uiso   1.00
C555   C     0.18735   0.74640   0.02316   0.00000  Uiso   1.00
C556   C     0.19132   0.80382   0.08039   0.00000  Uiso   1.00
C557   C     0.12379   0.89339   0.44246   0.00000  Uiso   1.00
C558   C     0.31683   0.78704   0.28775   0.00000  Uiso   1.00
C559   C     0.20888   0.67276   0.19584   0.00000  Uiso   1.00
C560   C     0.08299   0.99402   0.30275   0.00000  Uiso   1.00
C561   C     0.05517   0.97236   0.34369   0.00000  Uiso   1.00
C562   C     0.00808   0.96706   0.34333   0.00000  Uiso   1.00
C563   C     0.12463   0.87219   0.01500   0.00000  Uiso   1.00
C564   C     0.16493   0.71450   0.43531   0.00000  Uiso   1.00
C565   C     0.19326   0.70314   0.01107   0.00000  Uiso   1.00
C566   C     0.19352   0.87500   0.06220   0.00000  Uiso   1.00
C567   C     0.07844   0.84610   0.07873   0.00000  Uiso   1.00
C568   C     0.03474   0.85737   0.07832   0.00000  Uiso   1.00
C569   C     0.33204   0.82484   0.09975   0.00000  Uiso   1.00
C570   C     0.05970   0.94110   0.00308   0.00000  Uiso   1.00
C571   C     0.06347   0.98150   0.48073   0.00000  Uiso   1.00
C572   C     0.02021   0.98990   0.47606   0.00000  Uiso   1.00
C573   C     0.12243   0.76437   0.39823   0.00000  Uiso   1.00
C574   C     0.14622   0.83789   0.49262   0.00000  Uiso   1.00
C575   C     0.02056   0.87771   0.21298   0.00000  Uiso   1.00
C576   C     0.14360   0.82543   0.44779   0.00000  Uiso   1.00
C577   C     0.16667   0.81378   0.01446   0.00000  Uiso   1.00
C578   C     0.17213   0.77165   0.49711   0.00000  Uiso   1.00
C579   C     0.16038   0.75650   0.45585   0.00000  Uiso   1.00
C580   C     0.14481   0.78294   0.43250   0.00000  Uiso   1.00
H581   H     0.20153   0.74178   0.08686   0.00000  Uiso   1.00
H582   H     0.07910   0.84328   0.11425   0.00000  Uiso   1.00
H583   H     0.08292   0.81486   0.06062   0.00000  Uiso   1.00
H584   H     0.03025   0.88819   0.09720   0.00000  Uiso   1.00
H585   H     0.03314   0.85931   0.04293   0.00000  Uiso   1.00
H586   H     0.00183   0.79405   0.08039   0.00000  Uiso   1.00
H587   H     0.30086   0.83419   0.09948   0.00000  Uiso   1.00
H588   H     0.33268   0.82210   0.13527   0.00000  Uiso   1.00
H589   H     0.03624   0.94303   0.03630   0.00000  Uiso   1.00
H590   H     0.04645   0.91442   0.48227   0.00000  Uiso   1.00
H591   H     0.07692   0.67468   0.00127   0.00000  Uiso   1.00
H592   H     0.11952   0.91707   0.42265   0.00000  Uiso   1.00
H593   H     0.08536   0.97930   0.44663   0.00000  Uiso   1.00
H594   H     0.00641   0.96402   0.45512   0.00000  Uiso   1.00
H595   H     0.02416   0.68588   0.45943   0.00000  Uiso   1.00
H596   H     0.33124   0.99327   0.00986   0.00000  Uiso   1.00
H597   H     0.07732   0.97537   0.27148   0.00000  Uiso   1.00
H598   H     0.07364   0.69230   0.30390   0.00000  Uiso   1.00
H599   H     0.06501   0.94120   0.34361   0.00000  Uiso   1.00
H600   H     0.05979   0.99112   0.37508   0.00000  Uiso   1.00
H601   H     0.33069   0.99789   0.34407   0.00000  Uiso   1.00
H602   H     0.32214   0.95142   0.37356   0.00000  Uiso   1.00
H603   H     0.00264   0.94760   0.31262   0.00000  Uiso   1.00
N604   N     0.29729   0.75935   0.30738   0.00000  Uiso   1.00
N605   N     0.23302   0.68664   0.16490   0.00000  Uiso   1.00
N606   N     0.16855   0.68124   0.41826   0.00000  Uiso   1.00
N607   N     0.19813   0.66848   0.00199   0.00000  Uiso   1.00
N608   N     0.20261   0.91039   0.06966   0.00000  Uiso   1.00
N609   N     0.10434   0.74952   0.37124   0.00000  Uiso   1.00
N610   N     0.04274   0.90334   0.19204   0.00000  Uiso   1.00
O611   O     0.16667   0.83333   0.25000   0.00000  Uiso   1.00
O612   O     0.15451   0.79304   0.15459   0.00000  Uiso   1.00
O613   O     0.12940   0.87058   0.34968   0.00000  Uiso   1.00
O614   O     0.20824   0.84425   0.14606   0.00000  Uiso   1.00
O615   O     0.17451   0.82546   0.34968   0.00000  Uiso   1.00
O616   O     0.12614   0.99684   0.30424   0.00000  Uiso   1.00
O617   O     0.11137   0.87802   0.06171   0.00000  Uiso   1.00
O618   O     0.09951   0.93681   0.01132   0.00000  Uiso   1.00
O619   O     0.17930   0.74686   0.28214   0.00000  Uiso   1.00
O620   O     0.14632   0.92751   0.27014   0.00000  Uiso   1.00
O621   O     0.07412   0.79958   0.23413   0.00000  Uiso   1.00
O622   O     0.26693   0.85939   0.21361   0.00000  Uiso   1.00
O623   O     0.07071   0.85544   0.28213   0.00000  Uiso   1.00
O624   O     0.25491   0.81892   0.27014   0.00000  Uiso   1.00
O625   O     0.13760   0.73610   0.23413   0.00000  Uiso   1.00
O626   O     0.20345   0.92286   0.21361   0.00000  Uiso   1.00
Zn627  Zn    0.19338   0.80661   0.28734   0.00000  Uiso   1.00
Zn628  Zn    0.13379   0.79124   0.21876   0.00000  Uiso   1.00
Zn629  Zn    0.21056   0.86442   0.20657   0.00000  Uiso   1.00
Zn630  Zn    0.12893   0.87106   0.28734   0.00000  Uiso   1.00
C631   C     0.38634   0.82585   0.25995   0.00000  Uiso   1.00
C632   C     0.51570   0.83062   0.05287   0.00000  Uiso   1.00
C633   C     0.52776   0.76230   0.06508   0.00000  Uiso   1.00
C634   C     0.61402   0.84068   0.24049   0.00000  Uiso   1.00
C635   C     0.47068   0.85572   0.42114   0.00000  Uiso   1.00
C636   C     0.65939   0.84558   0.23940   0.00000  Uiso   1.00
C637   C     0.34153   0.82168   0.26315   0.00000  Uiso   1.00
C638   C     0.51186   0.98867   0.23470   0.00000  Uiso   1.00
C639   C     0.48507   0.67869   0.26457   0.00000  Uiso   1.00
C640   C     0.48929   0.72267   0.26038   0.00000  Uiso   1.00
C641   C     0.50975   0.94451   0.24001   0.00000  Uiso   1.00
C642   C     0.44788   0.90044   0.48957   0.00000  Uiso   1.00
C643   C     0.51829   0.81458   0.12908   0.00000  Uiso   1.00
C644   C     0.48106   0.85041   0.37121   0.00000  Uiso   1.00
C645   C     0.52069   0.74640   0.02316   0.00000  Uiso   1.00
C646   C     0.52466   0.80382   0.08039   0.00000  Uiso   1.00
C647   C     0.45712   0.89339   0.44246   0.00000  Uiso   1.00
C648   C     0.65016   0.78704   0.28775   0.00000  Uiso   1.00
C649   C     0.54221   0.67276   0.19584   0.00000  Uiso   1.00
C650   C     0.41632   0.99402   0.30275   0.00000  Uiso   1.00
C651   C     0.38850   0.97236   0.34369   0.00000  Uiso   1.00
C652   C     0.34141   0.96706   0.34333   0.00000  Uiso   1.00
C653   C     0.45797   0.87219   0.01500   0.00000  Uiso   1.00
C654   C     0.49827   0.71450   0.43531   0.00000  Uiso   1.00
C655   C     0.52659   0.70314   0.01107   0.00000  Uiso   1.00
C656   C     0.52685   0.87500   0.06220   0.00000  Uiso   1.00
C657   C     0.41177   0.84610   0.07873   0.00000  Uiso   1.00
C658   C     0.36807   0.85737   0.07832   0.00000  Uiso   1.00
C659   C     0.66537   0.82484   0.09975   0.00000  Uiso   1.00
C660   C     0.39304   0.94110   0.00308   0.00000  Uiso   1.00
C661   C     0.39680   0.98150   0.48073   0.00000  Uiso   1.00
C662   C     0.35354   0.98990   0.47606   0.00000  Uiso   1.00
C663   C     0.45577   0.76437   0.39823   0.00000  Uiso   1.00
C664   C     0.47955   0.83789   0.49262   0.00000  Uiso   1.00
C665   C     0.35389   0.87771   0.21298   0.00000  Uiso   1.00
C666   C     0.47694   0.82543   0.44779   0.00000  Uiso   1.00
C667   C     0.50001   0.81378   0.01446   0.00000  Uiso   1.00
C668   C     0.50546   0.77165   0.49711   0.00000  Uiso   1.00
C669   C     0.49371   0.75650   0.45585   0.00000  Uiso   1.00
C670   C     0.47815   0.78294   0.43250   0.00000  Uiso   1.00
H671   H     0.53486   0.74178   0.08686   0.00000  Uiso   1.00
H672   H     0.41243   0.84328   0.11425   0.00000  Uiso   1.00
H673   H     0.41625   0.81486   0.06062   0.00000  Uiso   1.00
H674   H     0.36358   0.88819   0.09720   0.00000  Uiso   1.00
H675   H     0.36648   0.85931   0.04293   0.00000  Uiso   1.00
H676   H     0.33517   0.79405   0.08039   0.00000  Uiso   1.00
H677   H     0.63420   0.83419   0.09948   0.00000  Uiso   1.00
H678   H     0.66601   0.82210   0.13527   0.00000  Uiso   1.00
H679   H     0.36957   0.94303   0.03630   0.00000  Uiso   1.00
H680   H     0.37978   0.91442   0.48227   0.00000  Uiso   1.00
H681   H     0.41026   0.67468   0.00127   0.00000  Uiso   1.00
H682   H     0.45285   0.91707   0.42265   0.00000  Uiso   1.00
H683   H     0.41869   0.97930   0.44663   0.00000  Uiso   1.00
H684   H     0.33975   0.96402   0.45512   0.00000  Uiso   1.00
H685   H     0.35750   0.68588   0.45943   0.00000  Uiso   1.00
H686   H     0.66458   0.99327   0.00986   0.00000  Uiso   1.00
H687   H     0.41065   0.97537   0.27148   0.00000  Uiso   1.00
H688   H     0.40697   0.69230   0.30390   0.00000  Uiso   1.00
H689   H     0.39834   0.94120   0.34361   0.00000  Uiso   1.00
H690   H     0.39312   0.99112   0.37508   0.00000  Uiso   1.00
H691   H     0.66403   0.99789   0.34407   0.00000  Uiso   1.00
H692   H     0.65547   0.95142   0.37356   0.00000  Uiso   1.00
H693   H     0.33598   0.94760   0.31262   0.00000  Uiso   1.00
N694   N     0.63063   0.75935   0.30738   0.00000  Uiso   1.00
N695   N     0.56635   0.68664   0.16490   0.00000  Uiso   1.00
N696   N     0.50189   0.68124   0.41826   0.00000  Uiso   1.00
N697   N     0.53146   0.66848   0.00199   0.00000  Uiso   1.00
N698   N     0.53595   0.91039   0.06966   0.00000  Uiso   1.00
N699   N     0.43768   0.74952   0.37124   0.00000  Uiso   1.00
N700   N     0.37608   0.90334   0.19204   0.00000  Uiso   1.00
O701   O     0.50000   0.83333   0.25000   0.00000  Uiso   1.00
O702   O     0.48784   0.79304   0.15459   0.00000  Uiso   1.00
O703   O     0.46274   0.87058   0.34968   0.00000  Uiso   1.00
O704   O     0.54157   0.84425   0.14606   0.00000  Uiso   1.00
O705   O     0.50785   0.82546   0.34968   0.00000  Uiso   1.00
O706   O     0.45947   0.99684   0.30424   0.00000  Uiso   1.00
O707   O     0.44471   0.87802   0.06171   0.00000  Uiso   1.00
O708   O     0.43285   0.93681   0.01132   0.00000  Uiso   1.00
O709   O     0.51264   0.74686   0.28214   0.00000  Uiso   1.00
O710   O     0.47965   0.92751   0.27014   0.00000  Uiso   1.00
O711   O     0.40745   0.79958   0.23413   0.00000  Uiso   1.00
O712   O     0.60026   0.85939   0.21361   0.00000  Uiso   1.00
O713   O     0.40405   0.85544   0.28213   0.00000  Uiso   1.00
O714   O     0.58824   0.81892   0.27014   0.00000  Uiso   1.00
O715   O     0.47093   0.73610   0.23413   0.00000  Uiso   1.00
O716   O     0.53678   0.92286   0.21361   0.00000  Uiso   1.00
Zn717  Zn    0.52672   0.80661   0.28734   0.00000  Uiso   1.00
Zn718  Zn    0.46713   0.79124   0.21876   0.00000  Uiso   1.00
Zn719  Zn    0.54389   0.86442   0.20657   0.00000  Uiso   1.00
Zn720  Zn    0.46226   0.87106   0.28734   0.00000  Uiso   1.00
C721   C     0.71967   0.82585   0.25995   0.00000  Uiso   1.00
C722   C     0.84904   0.83062   0.05287   0.00000  Uiso   1.00
C723   C     0.86109   0.76230   0.06508   0.00000  Uiso   1.00
C724   C     0.94735   0.84068   0.24049   0.00000  Uiso   1.00
C725   C     0.80401   0.85572   0.42114   0.00000  Uiso   1.00
C726   C     0.99272   0.84558   0.23940   0.00000  Uiso   1.00
C727   C     0.67487   0.82168   0.26315   0.00000  Uiso   1.00
C728   C     0.84519   0.98867   0.23470   0.00000  Uiso   1.00
C729   C     0.81841   0.67869   0.26457   0.00000  Uiso   1.00
C730   C     0.82263   0.72267   0.26038   0.00000  Uiso   1.00
C731   C     0.84309   0.94451   0.24001   0.00000  Uiso   1.00
C732   C     0.78121   0.90044   0.48957   0.00000  Uiso   1.00
C733   C     0.85162   0.81458   0.12908   0.00000  Uiso   1.00
C734   C     0.81440   0.85041   0.37121   0.00000  Uiso   1.00
C735   C     0.85402   0.74640   0.02316   0.00000  Uiso   1.00
C736   C     0.85799   0.80382   0.08039   0.00000  Uiso   1.00
C737   C     0.79046   0.89339   0.44246   0.00000  Uiso   1.00
C738   C     0.98349   0.78704   0.28775   0.00000  Uiso   1.00
C739   C     0.87554   0.67276   0.19584   0.00000  Uiso   1.00
C740   C     0.74966   0.99402   0.30275   0.00000  Uiso   1.00
C741   C     0.72184   0.97236   0.34369   0.00000  Uiso   1.00
C742   C     0.67474   0.96706   0.34333   0.00000  Uiso   1.00
C743   C     0.79130   0.87219   0.01500   0.00000  Uiso   1.00
C744   C     0.83160   0.71450   0.43531   0.00000  Uiso   1.00
C745   C     0.85993   0.70314   0.01107   0.00000  Uiso   1.00
C746   C     0.86019   0.87500   0.06220   0.00000  Uiso   1.00
C747   C     0.74511   0.84610   0.07873   0.00000  Uiso   1.00
C748   C     0.70141   0.85737   0.07832   0.00000  Uiso   1.00
C749   C     0.99871   0.82484   0.09975   0.00000  Uiso   1.00
C750   C     0.72637   0.94110   0.00308   0.00000  Uiso   1.00
C751   C     0.73014   0.98150   0.48073   0.00000  Uiso   1.00
C752   C     0.68688   0.98990   0.47606   0.00000  Uiso   1.00
C753   C     0.78910   0.76437   0.39823   0.00000  Uiso   1.00
C754   C     0.81289   0.83789   0.49262   0.00000  Uiso   1.00
C755   C     0.68723   0.87771   0.21298   0.00000  Uiso   1.00
C756   C     0.81027   0.82543   0.44779   0.00000  Uiso   1.00
C757   C     0.83334   0.81378   0.01446   0.00000  Uiso   1.00
C758   C     0.83879   0.77165   0.49711   0.00000  Uiso   1.00
C759   C     0.82705   0.75650   0.45585   0.00000  Uiso   1.00
C760   C     0.81148   0.78294   0.43250   0.00000  Uiso   1.00
H761   H     0.86819   0.74178   0.08686   0.00000  Uiso   1.00
H762   H     0.74577   0.84328   0.11425   0.00000  Uiso   1.00
H763   H     0.74958   0.81486   0.06062   0.00000  Uiso   1.00
H764   H     0.69692   0.88819   0.09720   0.00000  Uiso   1.00
H765   H     0.69981   0.85931   0.04293   0.00000  Uiso   1.00
H766   H     0.66850   0.79405   0.08039   0.00000  Uiso   1.00
H767   H     0.96753   0.83419   0.09948   0.00000  Uiso   1.00
H768   H     0.99934   0.82210   0.13527   0.00000  Uiso   1.00
H769   H     0.70291   0.94303   0.03630   0.00000  Uiso   1.00
H770   H     0.71311   0.91442   0.48227   0.00000  Uiso   1.00
H771   H     0.74359   0.67468   0.00127   0.00000  Uiso   1.00
H772   H     0.78619   0.91707   0.42265   0.00000  Uiso   1.00
H773   H     0.75202   0.97930   0.44663   0.00000  Uiso   1.00
H774   H     0.67308   0.96402   0.45512   0.00000  Uiso   1.00
H775   H     0.69083   0.68588   0.45943   0.00000  Uiso   1.00
H776   H     0.99791   0.99327   0.00986   0.00000  Uiso   1.00
H777   H     0.74398   0.97537   0.27148   0.00000  Uiso   1.00
H778   H     0.74030   0.69230   0.30390   0.00000  Uiso   1.00
H779   H     0.73168   0.94120   0.34361   0.00000  Uiso   1.00
H780   H     0.72645   0.99112   0.37508   0.00000  Uiso   1.00
H781   H     0.99736   0.99789   0.34407   0.00000  Uiso   1.00
H782   H     0.98881   0.95142   0.37356   0.00000  Uiso   1.00
H783   H     0.66931   0.94760   0.31262   0.00000  Uiso   1.00
N784   N     0.96396   0.75935   0.30738   0.00000  Uiso   1.00
N785   N     0.89969   0.68664   0.16490   0.00000  Uiso   1.00
N786   N     0.83522   0.68124   0.41826   0.00000  Uiso   1.00
N787   N     0.86480   0.66848   0.00199   0.00000  Uiso   1.00
N788   N     0.86928   0.91039   0.06966   0.00000  Uiso   1.00
N789   N     0.77101   0.74952   0.37124   0.00000  Uiso   1.00
N790   N     0.70941   0.90334   0.19204   0.00000  Uiso   1.00
O791   O     0.83333   0.83333   0.25000   0.00000  Uiso   1.00
O792   O     0.82118   0.79304   0.15459   0.00000  Uiso   1.00
O793   O     0.79607   0.87058   0.34968   0.00000  Uiso   1.00
O794   O     0.87491   0.84425   0.14606   0.00000  Uiso   1.00
O795   O     0.84118   0.82546   0.34968   0.00000  Uiso   1.00
O796   O     0.79280   0.99684   0.30424   0.00000  Uiso   1.00
O797   O     0.77804   0.87802   0.06171   0.00000  Uiso   1.00
O798   O     0.76618   0.93681   0.01132   0.00000  Uiso   1.00
O799   O     0.84597   0.74686   0.28214   0.00000  Uiso   1.00
O800   O     0.81298   0.92751   0.27014   0.00000  Uiso   1.00
O801   O     0.74078   0.79958   0.23413   0.00000  Uiso   1.00
O802   O     0.93360   0.85939   0.21361   0.00000  Uiso   1.00
O803   O     0.73738   0.85544   0.28213   0.00000  Uiso   1.00
O804   O     0.92158   0.81892   0.27014   0.00000  Uiso   1.00
O805   O     0.80426   0.73610   0.23413   0.00000  Uiso   1.00
O806   O     0.87012   0.92286   0.21361   0.00000  Uiso   1.00
Zn807  Zn    0.86005   0.80661   0.28734   0.00000  Uiso   1.00
Zn808  Zn    0.80046   0.79124   0.21876   0.00000  Uiso   1.00
Zn809  Zn    0.87723   0.86442   0.20657   0.00000  Uiso   1.00
Zn810  Zn    0.79560   0.87106   0.28734   0.00000  Uiso   1.00
C811   C     0.05301   0.15919   0.75995   0.00000  Uiso   1.00
C812   C     0.18237   0.16395   0.55287   0.00000  Uiso   1.00
C813   C     0.19442   0.09563   0.56508   0.00000  Uiso   1.00
C814   C     0.28069   0.17401   0.74049   0.00000  Uiso   1.00
C815   C     0.13735   0.18905   0.92114   0.00000  Uiso   1.00
C816   C     0.32606   0.17892   0.73940   0.00000  Uiso   1.00
C817   C     0.00820   0.15502   0.76315   0.00000  Uiso   1.00
C818   C     0.17853   0.32201   0.73470   0.00000  Uiso   1.00
C819   C     0.15174   0.01202   0.76457   0.00000  Uiso   1.00
C820   C     0.15596   0.05600   0.76038   0.00000  Uiso   1.00
C821   C     0.17642   0.27784   0.74001   0.00000  Uiso   1.00
C822   C     0.11454   0.23378   0.98957   0.00000  Uiso   1.00
C823   C     0.18495   0.14792   0.62908   0.00000  Uiso   1.00
C824   C     0.14773   0.18374   0.87121   0.00000  Uiso   1.00
C825   C     0.18735   0.07974   0.52316   0.00000  Uiso   1.00
C826   C     0.19132   0.13715   0.58039   0.00000  Uiso   1.00
C827   C     0.12379   0.22672   0.94246   0.00000  Uiso   1.00
C828   C     0.31683   0.12037   0.78775   0.00000  Uiso   1.00
C829   C     0.20888   0.00609   0.69584   0.00000  Uiso   1.00
C830   C     0.08299   0.32735   0.80275   0.00000  Uiso   1.00
C831   C     0.05517   0.30569   0.84369   0.00000  Uiso   1.00
C832   C     0.00808   0.30039   0.84333   0.00000  Uiso   1.00
C833   C     0.12463   0.20553   0.51500   0.00000  Uiso   1.00
C834   C     0.16493   0.04783   0.93531   0.00000  Uiso   1.00
C835   C     0.19326   0.03648   0.51107   0.00000  Uiso   1.00
C836   C     0.19352   0.20834   0.56220   0.00000  Uiso   1.00
C837   C     0.07844   0.17944   0.57873   0.00000  Uiso   1.00
C838   C     0.03474   0.19070   0.57832   0.00000  Uiso   1.00
C839   C     0.33204   0.15817   0.59975   0.00000  Uiso   1.00
C840   C     0.05970   0.27444   0.50308   0.00000  Uiso   1.00
C841   C     0.06347   0.31484   0.98073   0.00000  Uiso   1.00
C842   C     0.02021   0.32324   0.97606   0.00000  Uiso   1.00
C843   C     0.12243   0.09770   0.89823   0.00000  Uiso   1.00
C844   C     0.14622   0.17122   0.99262   0.00000  Uiso   1.00
C845   C     0.02056   0.21104   0.71298   0.00000  Uiso   1.00
C846   C     0.14360   0.15877   0.94779   0.00000  Uiso   1.00
C847   C     0.16667   0.14711   0.51446   0.00000  Uiso   1.00
C848   C     0.17213   0.10499   0.99711   0.00000  Uiso   1.00
C849   C     0.16038   0.08983   0.95585   0.00000  Uiso   1.00
C850   C     0.14481   0.11628   0.93250   0.00000  Uiso   1.00
H851   H     0.20153   0.07511   0.58686   0.00000  Uiso   1.00
H852   H     0.07910   0.17661   0.61425   0.00000  Uiso   1.00
H853   H     0.08292   0.14820   0.56062   0.00000  Uiso   1.00
H854   H     0.03025   0.22152   0.59720   0.00000  Uiso   1.00
H855   H     0.03314   0.19264   0.54293   0.00000  Uiso   1.00
H856   H     0.00183   0.12738   0.58039   0.00000  Uiso   1.00
H857   H     0.30086   0.16752   0.59948   0.00000  Uiso   1.00
H858   H     0.33268   0.15543   0.63527   0.00000  Uiso   1.00
H859   H     0.03624   0.27636   0.53630   0.00000  Uiso   1.00
H860   H     0.04645   0.24776   0.98227   0.00000  Uiso   1.00
H861   H     0.07692   0.00802   0.50127   0.00000  Uiso   1.00
H862   H     0.11952   0.25040   0.92265   0.00000  Uiso   1.00
H863   H     0.08536   0.31263   0.94663   0.00000  Uiso   1.00
H864   H     0.00641   0.29735   0.95512   0.00000  Uiso   1.00
H865   H     0.02416   0.01921   0.95943   0.00000  Uiso   1.00
H866   H     0.33124   0.32660   0.50986   0.00000  Uiso   1.00
H867   H     0.07732   0.30870   0.77148   0.00000  Uiso   1.00
H868   H     0.07364   0.02563   0.80390   0.00000  Uiso   1.00
H869   H     0.06501   0.27453   0.84361   0.00000  Uiso   1.00
H870   H     0.05979   0.32445   0.87508   0.00000  Uiso   1.00
H871   H     0.33069   0.33123   0.84407   0.00000  Uiso   1.00
H872   H     0.32214   0.28475   0.87356   0.00000  Uiso   1.00
H873   H     0.00264   0.28093   0.81262   0.00000  Uiso   1.00
N874   N     0.29729   0.09268   0.80738   0.00000  Uiso   1.00
N875   N     0.23302   0.01998   0.66490   0.00000  Uiso   1.00
N876   N     0.16855   0.01458   0.91826   0.00000  Uiso   1.00
N877   N     0.19813   0.00182   0.50199   0.00000  Uiso   1.00
N878   N     0.20261   0.24372   0.56966   0.00000  Uiso   1.00
N879   N     0.10434   0.08285   0.87124   0.00000  Uiso   1.00
N880   N     0.04274   0.23667   0.69204   0.00000  Uiso   1.00
O881   O     0.16667   0.16667   0.75000   0.00000  Uiso   1.00
O882   O     0.15451   0.12637   0.65459   0.00000  Uiso   1.00
O883   O     0.12940   0.20391   0.84968   0.00000  Uiso   1.00
O884   O     0.20824   0.17759   0.64606   0.00000  Uiso   1.00
O885   O     0.17451   0.15880   0.84968   0.00000  Uiso   1.00
O886   O     0.12614   0.33017   0.80424   0.00000  Uiso   1.00
O887   O     0.11137   0.21135   0.56171   0.00000  Uiso   1.00
O888   O     0.09951   0.27014   0.51132   0.00000  Uiso   1.00
O889   O     0.17930   0.08019   0.78214   0.00000  Uiso   1.00
O890   O     0.14632   0.26085   0.77014   0.00000  Uiso   1.00
O891   O     0.07412   0.13291   0.73413   0.00000  Uiso   1.00
O892   O     0.26693   0.19272   0.71361   0.00000  Uiso   1.00
O893   O     0.07071   0.18878   0.78213   0.00000  Uiso   1.00
O894   O     0.25491   0.15226   0.77014   0.00000  Uiso   1.00
O895   O     0.13760   0.06944   0.73413   0.00000  Uiso   1.00
O896   O     0.20345   0.25620   0.71361   0.00000  Uiso   1.00
Zn897  Zn    0.19338   0.13994   0.78734   0.00000  Uiso   1.00
Zn898  Zn    0.13379   0.12458   0.71876   0.00000  Uiso   1.00
Zn899  Zn    0.21056   0.19775   0.70657   0.00000  Uiso   1.00
Zn900  Zn    0.12893   0.20439   0.78734   0.00000  Uiso   1.00
C901   C     0.38634   0.15919   0.75995   0.00000  Uiso   1.00
C902   C     0.51570   0.16395   0.55287   0.00000  Uiso   1.00
C903   C     0.52776   0.09563   0.56508   0.00000  Uiso   1.00
C904   C     0.61402   0.17401   0.74049   0.00000  Uiso   1.00
C905   C     0.47068   0.18905   0.92114   0.00000  Uiso   1.00
C906   C     0.65939   0.17892   0.73940   0.00000  Uiso   1.00
C907   C     0.34153   0.15502   0.76315   0.00000  Uiso   1.00
C908   C     0.51186   0.32201   0.73470   0.00000  Uiso   1.00
C909   C     0.48507   0.01202   0.76457   0.00000  Uiso   1.00
C910   C     0.48929   0.05600   0.76038   0.00000  Uiso   1.00
C911   C     0.50975   0.27784   0.74001   0.00000  Uiso   1.00
C912   C     0.44788   0.23378   0.98957   0.00000  Uiso   1.00
C913   C     0.51829   0.14792   0.62908   0.00000  Uiso   1.00
C914   C     0.48106   0.18374   0.87121   0.00000  Uiso   1.00
C915   C     0.52069   0.07974   0.52316   0.00000  Uiso   1.00
C916   C     0.52466   0.13715   0.58039   0.00000  Uiso   1.00
C917   C     0.45712   0.22672   0.94246   0.00000  Uiso   1.00
C918   C     0.65016   0.12037   0.78775   0.00000  Uiso   1.00
C919   C     0.54221   0.00609   0.69584   0.00000  Uiso   1.00
C920   C     0.41632   0.32735   0.80275   0.00000  Uiso   1.00
C921   C     0.38850   0.30569   0.84369   0.00000  Uiso   1.00
C922   C     0.34141   0.30039   0.84333   0.00000  Uiso   1.00
C923   C     0.45797   0.20553   0.51500   0.00000  Uiso   1.00
C924   C     0.49827   0.04783   0.93531   0.00000  Uiso   1.00
C925   C     0.52659   0.03648   0.51107   0.00000  Uiso   1.00
C926   C     0.52685   0.20834   0.56220   0.00000  Uiso   1.00
C927   C     0.41177   0.17944   0.57873   0.00000  Uiso   1.00
C928   C     0.36807   0.19070   0.57832   0.00000  Uiso   1.00
C929   C     0.66537   0.15817   0.59975   0.00000  Uiso   1.00
C930   C     0.39304   0.27444   0.50308   0.00000  Uiso   1.00
C931   C     0.39680   0.31484   0.98073   0.00000  Uiso   1.00
C932   C     0.35354   0.32324   0.97606   0.00000  Uiso   1.00
C933   C     0.45577   0.09770   0.89823   0.00000  Uiso   1.00
C934   C     0.47955   0.17122   0.99262   0.00000  Uiso   1.00
C935   C     0.35389   0.21104   0.71298   0.00000  Uiso   1.00
C936   C     0.47694   0.15877   0.94779   0.00000  Uiso   1.00
C937   C     0.50001   0.14711   0.51446   0.00000  Uiso   1.00
C938   C     0.50546   0.10499   0.99711   0.00000  Uiso   1.00
C939   C     0.49371   0.08983   0.95585   0.00000  Uiso   1.00
C940   C     0.47815   0.11628   0.93250   0.00000  Uiso   1.00
H941   H     0.53486   0.07511   0.58686   0.00000  Uiso   1.00
H942   H     0.41243   0.17661   0.61425   0.00000  Uiso   1.00
H943   H     0.41625   0.14820   0.56062   0.00000  Uiso   1.00
H944   H     0.36358   0.22152   0.59720   0.00000  Uiso   1.00
H945   H     0.36648   0.19264   0.54293   0.00000  Uiso   1.00
H946   H     0.33517   0.12738   0.58039   0.00000  Uiso   1.00
H947   H     0.63420   0.16752   0.59948   0.00000  Uiso   1.00
H948   H     0.66601   0.15543   0.63527   0.00000  Uiso   1.00
H949   H     0.36957   0.27636   0.53630   0.00000  Uiso   1.00
H950   H     0.37978   0.24776   0.98227   0.00000  Uiso   1.00
H951   H     0.41026   0.00802   0.50127   0.00000  Uiso   1.00
H952   H     0.45285   0.25040   0.92265   0.00000  Uiso   1.00
H953   H     0.41869   0.31263   0.94663   0.00000  Uiso   1.00
H954   H     0.33975   0.29735   0.95512   0.00000  Uiso   1.00
H955   H     0.35750   0.01921   0.95943   0.00000  Uiso   1.00
H956   H     0.66458   0.32660   0.50986   0.00000  Uiso   1.00
H957   H     0.41065   0.30870   0.77148   0.00000  Uiso   1.00
H958   H     0.40697   0.02563   0.80390   0.00000  Uiso   1.00
H959   H     0.39834   0.27453   0.84361   0.00000  Uiso   1.00
H960   H     0.39312   0.32445   0.87508   0.00000  Uiso   1.00
H961   H     0.66403   0.33123   0.84407   0.00000  Uiso   1.00
H962   H     0.65547   0.28475   0.87356   0.00000  Uiso   1.00
H963   H     0.33598   0.28093   0.81262   0.00000  Uiso   1.00
N964   N     0.63063   0.09268   0.80738   0.00000  Uiso   1.00
N965   N     0.56635   0.01998   0.66490   0.00000  Uiso   1.00
N966   N     0.50189   0.01458   0.91826   0.00000  Uiso   1.00
N967   N     0.53146   0.00182   0.50199   0.00000  Uiso   1.00
N968   N     0.53595   0.24372   0.56966   0.00000  Uiso   1.00
N969   N     0.43768   0.08285   0.87124   0.00000  Uiso   1.00
N970   N     0.37608   0.23667   0.69204   0.00000  Uiso   1.00
O971   O     0.50000   0.16667   0.75000   0.00000  Uiso   1.00
O972   O     0.48784   0.12637   0.65459   0.00000  Uiso   1.00
O973   O     0.46274   0.20391   0.84968   0.00000  Uiso   1.00
O974   O     0.54157   0.17759   0.64606   0.00000  Uiso   1.00
O975   O     0.50785   0.15880   0.84968   0.00000  Uiso   1.00
O976   O     0.45947   0.33017   0.80424   0.00000  Uiso   1.00
O977   O     0.44471   0.21135   0.56171   0.00000  Uiso   1.00
O978   O     0.43285   0.27014   0.51132   0.00000  Uiso   1.00
O979   O     0.51264   0.08019   0.78214   0.00000  Uiso   1.00
O980   O     0.47965   0.26085   0.77014   0.00000  Uiso   1.00
O981   O     0.40745   0.13291   0.73413   0.00000  Uiso   1.00
O982   O     0.60026   0.19272   0.71361   0.00000  Uiso   1.00
O983   O     0.40405   0.18878   0.78213   0.00000  Uiso   1.00
O984   O     0.58824   0.15226   0.77014   0.00000  Uiso   1.00
O985   O     0.47093   0.06944   0.73413   0.00000  Uiso   1.00
O986   O     0.53678   0.25620   0.71361   0.00000  Uiso   1.00
Zn987  Zn    0.52672   0.13994   0.78734   0.00000  Uiso   1.00
Zn988  Zn    0.46713   0.12458   0.71876   0.00000  Uiso   1.00
Zn989  Zn    0.54389   0.19775   0.70657   0.00000  Uiso   1.00
Zn990  Zn    0.46226   0.20439   0.78734   0.00000  Uiso   1.00
C991   C     0.71967   0.15919   0.75995   0.00000  Uiso   1.00
C992   C     0.84904   0.16395   0.55287   0.00000  Uiso   1.00
C993   C     0.86109   0.09563   0.56508   0.00000  Uiso   1.00
C994   C     0.94735   0.17401   0.74049   0.00000  Uiso   1.00
C995   C     0.80401   0.18905   0.92114   0.00000  Uiso   1.00
C996   C     0.99272   0.17892   0.73940   0.00000  Uiso   1.00
C997   C     0.67487   0.15502   0.76315   0.00000  Uiso   1.00
C998   C     0.84519   0.32201   0.73470   0.00000  Uiso   1.00
C999   C     0.81841   0.01202   0.76457   0.00000  Uiso   1.00
C1000  C     0.82263   0.05600   0.76038   0.00000  Uiso   1.00
C1001  C     0.84309   0.27784   0.74001   0.00000  Uiso   1.00
C1002  C     0.78121   0.23378   0.98957   0.00000  Uiso   1.00
C1003  C     0.85162   0.14792   0.62908   0.00000  Uiso   1.00
C1004  C     0.81440   0.18374   0.87121   0.00000  Uiso   1.00
C1005  C     0.85402   0.07974   0.52316   0.00000  Uiso   1.00
C1006  C     0.85799   0.13715   0.58039   0.00000  Uiso   1.00
C1007  C     0.79046   0.22672   0.94246   0.00000  Uiso   1.00
C1008  C     0.98349   0.12037   0.78775   0.00000  Uiso   1.00
C1009  C     0.87554   0.00609   0.69584   0.00000  Uiso   1.00
C1010  C     0.74966   0.32735   0.80275   0.00000  Uiso   1.00
C1011  C     0.72184   0.30569   0.84369   0.00000  Uiso   1.00
C1012  C     0.67474   0.30039   0.84333   0.00000  Uiso   1.00
C1013  C     0.79130   0.20553   0.51500   0.00000  Uiso   1.00
C1014  C     0.83160   0.04783   0.93531   0.00000  Uiso   1.00
C1015  C     0.85993   0.03648   0.51107   0.00000  Uiso   1.00
C1016  C     0.86019   0.20834   0.56220   0.00000  Uiso   1.00
C1017  C     0.74511   0.17944   0.57873   0.00000  Uiso   1.00
C1018  C     0.70141   0.19070   0.57832   0.00000  Uiso   1.00
C1019  C     0.99871   0.15817   0.59975   0.00000  Uiso   1.00
C1020  C     0.72637   0.27444   0.50308   0.00000  Uiso   1.00
C1021  C     0.73014   0.31484   0.98073   0.00000  Uiso   1.00
C1022  C     0.68688   0.32324   0.97606   0.00000  Uiso   1.00
C1023  C     0.78910   0.09770   0.89823   0.00000  Uiso   1.00
C1024  C     0.81289   0.17122   0.99262   0.00000  Uiso   1.00
C1025  C     0.68723   0.21104   0.71298   0.00000  Uiso   1.00
C1026  C     0.81027   0.15877   0.94779   0.00000  Uiso   1.00
C1027  C     0.83334   0.14711   0.51446   0.00000  Uiso   1.00
C1028  C     0.83879   0.10499   0.99711   0.00000  Uiso   1.00
C1029  C     0.82705   0.08983   0.95585   0.00000  Uiso   1.00
C1030  C     0.81148   0.11628   0.93250   0.00000  Uiso   1.00
H1031  H     0.86819   0.07511   0.58686   0.00000  Uiso   1.00
H1032  H     0.74577   0.17661   0.61425   0.00000  Uiso   1.00
H1033  H     0.74958   0.14820   0.56062   0.00000  Uiso   1.00
H1034  H     0.69692   0.22152   0.59720   0.00000  Uiso   1.00
H1035  H     0.69981   0.19264   0.54293   0.00000  Uiso   1.00
H1036  H     0.66850   0.12738   0.58039   0.00000  Uiso   1.00
H1037  H     0.96753   0.16752   0.59948   0.00000  Uiso   1.00
H1038  H     0.99934   0.15543   0.63527   0.00000  Uiso   1.00
H1039  H     0.70291   0.27636   0.53630   0.00000  Uiso   1.00
H1040  H     0.71311   0.24776   0.98227   0.00000  Uiso   1.00
H1041  H     0.74359   0.00802   0.50127   0.00000  Uiso   1.00
H1042  H     0.78619   0.25040   0.92265   0.00000  Uiso   1.00
H1043  H     0.75202   0.31263   0.94663   0.00000  Uiso   1.00
H1044  H     0.67308   0.29735   0.95512   0.00000  Uiso   1.00
H1045  H     0.69083   0.01921   0.95943   0.00000  Uiso   1.00
H1046  H     0.99791   0.32660   0.50986   0.00000  Uiso   1.00
H1047  H     0.74398   0.30870   0.77148   0.00000  Uiso   1.00
H1048  H     0.74030   0.02563   0.80390   0.00000  Uiso   1.00
H1049  H     0.73168   0.27453   0.84361   0.00000  Uiso   1.00
H1050  H     0.72645   0.32445   0.87508   0.00000  Uiso   1.00
H1051  H     0.99736   0.33123   0.84407   0.00000  Uiso   1.00
H1052  H     0.98881   0.28475   0.87356   0.00000  Uiso   1.00
H1053  H     0.66931   0.28093   0.81262   0.00000  Uiso   1.00
N1054  N     0.96396   0.09268   0.80738   0.00000  Uiso   1.00
N1055  N     0.89969   0.01998   0.66490   0.00000  Uiso   1.00
N1056  N     0.83522   0.01458   0.91826   0.00000  Uiso   1.00
N1057  N     0.86480   0.00182   0.50199   0.00000  Uiso   1.00
N1058  N     0.86928   0.24372   0.56966   0.00000  Uiso   1.00
N1059  N     0.77101   0.08285   0.87124   0.00000  Uiso   1.00
N1060  N     0.70941   0.23667   0.69204   0.00000  Uiso   1.00
O1061  O     0.83333   0.16667   0.75000   0.00000  Uiso   1.00
O1062  O     0.82118   0.12637   0.65459   0.00000  Uiso   1.00
O1063  O     0.79607   0.20391   0.84968   0.00000  Uiso   1.00
O1064  O     0.87491   0.17759   0.64606   0.00000  Uiso   1.00
O1065  O     0.84118   0.15880   0.84968   0.00000  Uiso   1.00
O1066  O     0.79280   0.33017   0.80424   0.00000  Uiso   1.00
O1067  O     0.77804   0.21135   0.56171   0.00000  Uiso   1.00
O1068  O     0.76618   0.27014   0.51132   0.00000  Uiso   1.00
O1069  O     0.84597   0.08019   0.78214   0.00000  Uiso   1.00
O1070  O     0.81298   0.26085   0.77014   0.00000  Uiso   1.00
O1071  O     0.74078   0.13291   0.73413   0.00000  Uiso   1.00
O1072  O     0.93360   0.19272   0.71361   0.00000  Uiso   1.00
O1073  O     0.73738   0.18878   0.78213   0.00000  Uiso   1.00
O1074  O     0.92158   0.15226   0.77014   0.00000  Uiso   1.00
O1075  O     0.80426   0.06944   0.73413   0.00000  Uiso   1.00
O1076  O     0.87012   0.25620   0.71361   0.00000  Uiso   1.00
Zn1077 Zn    0.86005   0.13994   0.78734   0.00000  Uiso   1.00
Zn1078 Zn    0.80046   0.12458   0.71876   0.00000  Uiso   1.00
Zn1079 Zn    0.87723   0.19775   0.70657   0.00000  Uiso   1.00
Zn1080 Zn    0.79560   0.20439   0.78734   0.00000  Uiso   1.00
C1081  C     0.05301   0.49252   0.75995   0.00000  Uiso   1.00
C1082  C     0.18237   0.49729   0.55287   0.00000  Uiso   1.00
C1083  C     0.19442   0.42897   0.56508   0.00000  Uiso   1.00
C1084  C     0.28069   0.50735   0.74049   0.00000  Uiso   1.00
C1085  C     0.13735   0.52239   0.92114   0.00000  Uiso   1.00
C1086  C     0.32606   0.51225   0.73940   0.00000  Uiso   1.00
C1087  C     0.00820   0.48835   0.76315   0.00000  Uiso   1.00
C1088  C     0.17853   0.65534   0.73470   0.00000  Uiso   1.00
C1089  C     0.15174   0.34536   0.76457   0.00000  Uiso   1.00
C1090  C     0.15596   0.38934   0.76038   0.00000  Uiso   1.00
C1091  C     0.17642   0.61118   0.74001   0.00000  Uiso   1.00
C1092  C     0.11454   0.56711   0.98957   0.00000  Uiso   1.00
C1093  C     0.18495   0.48125   0.62908   0.00000  Uiso   1.00
C1094  C     0.14773   0.51708   0.87121   0.00000  Uiso   1.00
C1095  C     0.18735   0.41307   0.52316   0.00000  Uiso   1.00
C1096  C     0.19132   0.47048   0.58039   0.00000  Uiso   1.00
C1097  C     0.12379   0.56006   0.94246   0.00000  Uiso   1.00
C1098  C     0.31683   0.45371   0.78775   0.00000  Uiso   1.00
C1099  C     0.20888   0.33942   0.69584   0.00000  Uiso   1.00
C1100  C     0.08299   0.66069   0.80275   0.00000  Uiso   1.00
C1101  C     0.05517   0.63903   0.84369   0.00000  Uiso   1.00
C1102  C     0.00808   0.63373   0.84333   0.00000  Uiso   1.00
C1103  C     0.12463   0.53886   0.51500   0.00000  Uiso   1.00
C1104  C     0.16493   0.38117   0.93531   0.00000  Uiso   1.00
C1105  C     0.19326   0.36981   0.51107   0.00000  Uiso   1.00
C1106  C     0.19352   0.54167   0.56220   0.00000  Uiso   1.00
C1107  C     0.07844   0.51277   0.57873   0.00000  Uiso   1.00
C1108  C     0.03474   0.52403   0.57832   0.00000  Uiso   1.00
C1109  C     0.33204   0.49150   0.59975   0.00000  Uiso   1.00
C1110  C     0.05970   0.60777   0.50308   0.00000  Uiso   1.00
C1111  C     0.06347   0.64817   0.98073   0.00000  Uiso   1.00
C1112  C     0.02021   0.65657   0.97606   0.00000  Uiso   1.00
C1113  C     0.12243   0.43103   0.89823   0.00000  Uiso   1.00
C1114  C     0.14622   0.50456   0.99262   0.00000  Uiso   1.00
C1115  C     0.02056   0.54438   0.71298   0.00000  Uiso   1.00
C1116  C     0.14360   0.49210   0.94779   0.00000  Uiso   1.00
C1117  C     0.16667   0.48045   0.51446   0.00000  Uiso   1.00
C1118  C     0.17213   0.43832   0.99711   0.00000  Uiso   1.00
C1119  C     0.16038   0.42317   0.95585   0.00000  Uiso   1.00
C1120  C     0.14481   0.44961   0.93250   0.00000  Uiso   1.00
H1121  H     0.20153   0.40845   0.58686   0.00000  Uiso   1.00
H1122  H     0.07910   0.50995   0.61425   0.00000  Uiso   1.00
H1123  H     0.08292   0.48153   0.56062   0.00000  Uiso   1.00
H1124  H     0.03025   0.55486   0.59720   0.00000  Uiso   1.00
H1125  H     0.03314   0.52597   0.54293   0.00000  Uiso   1.00
H1126  H     0.00183   0.46071   0.58039   0.00000  Uiso   1.00
H1127  H     0.30086   0.50086   0.59948   0.00000  Uiso   1.00
H1128  H     0.33268   0.48876   0.63527   0.00000  Uiso   1.00
H1129  H     0.03624   0.60969   0.53630   0.00000  Uiso   1.00
H1130  H     0.04645   0.58109   0.98227   0.00000  Uiso   1.00
H1131  H     0.07692   0.34135   0.50127   0.00000  Uiso   1.00
H1132  H     0.11952   0.58374   0.92265   0.00000  Uiso   1.00
H1133  H     0.08536   0.64596   0.94663   0.00000  Uiso   1.00
H1134  H     0.00641   0.63069   0.95512   0.00000  Uiso   1.00
H1135  H     0.02416   0.35255   0.95943   0.00000  Uiso   1.00
H1136  H     0.33124   0.65993   0.50986   0.00000  Uiso   1.00
H1137  H     0.07732   0.64203   0.77148   0.00000  Uiso   1.00
H1138  H     0.07364   0.35896   0.80390   0.00000  Uiso   1.00
H1139  H     0.06501   0.60786   0.84361   0.00000  Uiso   1.00
H1140  H     0.05979   0.65778   0.87508   0.00000  Uiso   1.00
H1141  H     0.33069   0.66456   0.84407   0.00000  Uiso   1.00
H1142  H     0.32214   0.61808   0.87356   0.00000  Uiso   1.00
H1143  H     0.00264   0.61427   0.81262   0.00000  Uiso   1.00
N1144  N     0.29729   0.42602   0.80738   0.00000  Uiso   1.00
N1145  N     0.23302   0.35331   0.66490   0.00000  Uiso   1.00
N1146  N     0.16855   0.34791   0.91826   0.00000  Uiso   1.00
N1147  N     0.19813   0.33515   0.50199   0.00000  Uiso   1.00
N1148  N     0.20261   0.57705   0.56966   0.00000  Uiso   1.00
N1149  N     0.10434   0.41619   0.87124   0.00000  Uiso   1.00
N1150  N     0.04274   0.57000   0.69204   0.00000  Uiso   1.00
O1151  O     0.16667   0.50000   0.75000   0.00000  Uiso   1.00
O1152  O     0.15451   0.45970   0.65459   0.00000  Uiso   1.00
O1153  O     0.12940   0.53724   0.84968   0.00000  Uiso   1.00
O1154  O     0.20824   0.51092   0.64606   0.00000  Uiso   1.00
O1155  O     0.17451   0.49213   0.84968   0.00000  Uiso   1.00
O1156  O     0.12614   0.66351   0.80424   0.00000  Uiso   1.00
O1157  O     0.11137   0.54469   0.56171   0.00000  Uiso   1.00
O1158  O     0.09951   0.60348   0.51132   0.00000  Uiso   1.00
O1159  O     0.17930   0.41352   0.78214   0.00000  Uiso   1.00
O1160  O     0.14632   0.59418   0.77014   0.00000  Uiso   1.00
O1161  O     0.07412   0.46625   0.73413   0.00000  Uiso   1.00
O1162  O     0.26693   0.52605   0.71361   0.00000  Uiso   1.00
O1163  O     0.07071   0.52211   0.78213   0.00000  Uiso   1.00
O1164  O     0.25491   0.48559   0.77014   0.00000  Uiso   1.00
O1165  O     0.13760   0.40277   0.73413   0.00000  Uiso   1.00
O1166  O     0.20345   0.58953   0.71361   0.00000  Uiso   1.00
Zn1167 Zn    0.19338   0.47327   0.78734   0.00000  Uiso   1.00
Zn1168 Zn    0.13379   0.45791   0.71876   0.00000  Uiso   1.00
Zn1169 Zn    0.21056   0.53109   0.70657   0.00000  Uiso   1.00
Zn1170 Zn    0.12893   0.53773   0.78734   0.00000  Uiso   1.00
C1171  C     0.38634   0.49252   0.75995   0.00000  Uiso   1.00
C1172  C     0.51570   0.49729   0.55287   0.00000  Uiso   1.00
C1173  C     0.52776   0.42897   0.56508   0.00000  Uiso   1.00
C1174  C     0.61402   0.50735   0.74049   0.00000  Uiso   1.00
C1175  C     0.47068   0.52239   0.92114   0.00000  Uiso   1.00
C1176  C     0.65939   0.51225   0.73940   0.00000  Uiso   1.00
C1177  C     0.34153   0.48835   0.76315   0.00000  Uiso   1.00
C1178  C     0.51186   0.65534   0.73470   0.00000  Uiso   1.00
C1179  C     0.48507   0.34536   0.76457   0.00000  Uiso   1.00
C1180  C     0.48929   0.38934   0.76038   0.00000  Uiso   1.00
C1181  C     0.50975   0.61118   0.74001   0.00000  Uiso   1.00
C1182  C     0.44788   0.56711   0.98957   0.00000  Uiso   1.00
C1183  C     0.51829   0.48125   0.62908   0.00000  Uiso   1.00
C1184  C     0.48106   0.51708   0.87121   0.00000  Uiso   1.00
C1185  C     0.52069   0.41307   0.52316   0.00000  Uiso   1.00
C1186  C     0.52466   0.47048   0.58039   0.00000  Uiso   1.00
C1187  C     0.45712   0.56006   0.94246   0.00000  Uiso   1.00
C1188  C     0.65016   0.45371   0.78775   0.00000  Uiso   1.00
C1189  C     0.54221   0.33942   0.69584   0.00000  Uiso   1.00
C1190  C     0.41632   0.66069   0.80275   0.00000  Uiso   1.00
C1191  C     0.38850   0.63903   0.84369   0.00000  Uiso   1.00
C1192  C     0.34141   0.63373   0.84333   0.00000  Uiso   1.00
C1193  C     0.45797   0.53886   0.51500   0.00000  Uiso   1.00
C1194  C     0.49827   0.38117   0.93531   0.00000  Uiso   1.00
C1195  C     0.52659   0.36981   0.51107   0.00000  Uiso   1.00
C1196  C     0.52685   0.54167   0.56220   0.00000  Uiso   1.00
C1197  C     0.41177   0.51277   0.57873   0.00000  Uiso   1.00
C1198  C     0.36807   0.52403   0.57832   0.00000  Uiso   1.00
C1199  C     0.66537   0.49150   0.59975   0.00000  Uiso   1.00
C1200  C     0.39304   0.60777   0.50308   0.00000  Uiso   1.00
C1201  C     0.39680   0.64817   0.98073   0.00000  Uiso   1.00
C1202  C     0.35354   0.65657   0.97606   0.00000  Uiso   1.00
C1203  C     0.45577   0.43103   0.89823   0.00000  Uiso   1.00
C1204  C     0.47955   0.50456   0.99262   0.00000  Uiso   1.00
C1205  C     0.35389   0.54438   0.71298   0.00000  Uiso   1.00
C1206  C     0.47694   0.49210   0.94779   0.00000  Uiso   1.00
C1207  C     0.50001   0.48045   0.51446   0.00000  Uiso   1.00
C1208  C     0.50546   0.43832   0.99711   0.00000  Uiso   1.00
C1209  C     0.49371   0.42317   0.95585   0.00000  Uiso   1.00
C1210  C     0.47815   0.44961   0.93250   0.00000  Uiso   1.00
H1211  H     0.53486   0.40845   0.58686   0.00000  Uiso   1.00
H1212  H     0.41243   0.50995   0.61425   0.00000  Uiso   1.00
H1213  H     0.41625   0.48153   0.56062   0.00000  Uiso   1.00
H1214  H     0.36358   0.55486   0.59720   0.00000  Uiso   1.00
H1215  H     0.36648   0.52597   0.54293   0.00000  Uiso   1.00
H1216  H     0.33517   0.46071   0.58039   0.00000  Uiso   1.00
H1217  H     0.63420   0.50086   0.59948   0.00000  Uiso   1.00
H1218  H     0.66601   0.48876   0.63527   0.00000  Uiso   1.00
H1219  H     0.36957   0.60969   0.53630   0.00000  Uiso   1.00
H1220  H     0.37978   0.58109   0.98227   0.00000  Uiso   1.00
H1221  H     0.41026   0.34135   0.50127   0.00000  Uiso   1.00
H1222  H     0.45285   0.58374   0.92265   0.00000  Uiso   1.00
H1223  H     0.41869   0.64596   0.94663   0.00000  Uiso   1.00
H1224  H     0.33975   0.63069   0.95512   0.00000  Uiso   1.00
H1225  H     0.35750   0.35255   0.95943   0.00000  Uiso   1.00
H1226  H     0.66458   0.65993   0.50986   0.00000  Uiso   1.00
H1227  H     0.41065   0.64203   0.77148   0.00000  Uiso   1.00
H1228  H     0.40697   0.35896   0.80390   0.00000  Uiso   1.00
H1229  H     0.39834   0.60786   0.84361   0.00000  Uiso   1.00
H1230  H     0.39312   0.65778   0.87508   0.00000  Uiso   1.00
H1231  H     0.66403   0.66456   0.84407   0.00000  Uiso   1.00
H1232  H     0.65547   0.61808   0.87356   0.00000  Uiso   1.00
H1233  H     0.33598   0.61427   0.81262   0.00000  Uiso   1.00
N1234  N     0.63063   0.42602   0.80738   0.00000  Uiso   1.00
N1235  N     0.56635   0.35331   0.66490   0.00000  Uiso   1.00
N1236  N     0.50189   0.34791   0.91826   0.00000  Uiso   1.00
N1237  N     0.53146   0.33515   0.50199   0.00000  Uiso   1.00
N1238  N     0.53595   0.57705   0.56966   0.00000  Uiso   1.00
N1239  N     0.43768   0.41619   0.87124   0.00000  Uiso   1.00
N1240  N     0.37608   0.57000   0.69204   0.00000  Uiso   1.00
O1241  O     0.50000   0.50000   0.75000   0.00000  Uiso   1.00
O1242  O     0.48784   0.45970   0.65459   0.00000  Uiso   1.00
O1243  O     0.46274   0.53724   0.84968   0.00000  Uiso   1.00
O1244  O     0.54157   0.51092   0.64606   0.00000  Uiso   1.00
O1245  O     0.50785   0.49213   0.84968   0.00000  Uiso   1.00
O1246  O     0.45947   0.66351   0.80424   0.00000  Uiso   1.00
O1247  O     0.44471   0.54469   0.56171   0.00000  Uiso   1.00
O1248  O     0.43285   0.60348   0.51132   0.00000  Uiso   1.00
O1249  O     0.51264   0.41352   0.78214   0.00000  Uiso   1.00
O1250  O     0.47965   0.59418   0.77014   0.00000  Uiso   1.00
O1251  O     0.40745   0.46625   0.73413   0.00000  Uiso   1.00
O1252  O     0.60026   0.52605   0.71361   0.00000  Uiso   1.00
O1253  O     0.40405   0.52211   0.78213   0.00000  Uiso   1.00
O1254  O     0.58824   0.48559   0.77014   0.00000  Uiso   1.00
O1255  O     0.47093   0.40277   0.73413   0.00000  Uiso   1.00
O1256  O     0.53678   0.58953   0.71361   0.00000  Uiso   1.00
Zn1257 Zn    0.52672   0.47327   0.78734   0.00000  Uiso   1.00
Zn1258 Zn    0.46713   0.45791   0.71876   0.00000  Uiso   1.00
Zn1259 Zn    0.54389   0.53109   0.70657   0.00000  Uiso   1.00
Zn1260 Zn    0.46226   0.53773   0.78734   0.00000  Uiso   1.00
C1261  C     0.71967   0.49252   0.75995   0.00000  Uiso   1.00
C1262  C     0.84904   0.49729   0.55287   0.00000  Uiso   1.00
C1263  C     0.86109   0.42897   0.56508   0.00000  Uiso   1.00
C1264  C     0.94735   0.50735   0.74049   0.00000  Uiso   1.00
C1265  C     0.80401   0.52239   0.92114   0.00000  Uiso   1.00
C1266  C     0.99272   0.51225   0.73940   0.00000  Uiso   1.00
C1267  C     0.67487   0.48835   0.76315   0.00000  Uiso   1.00
C1268  C     0.84519   0.65534   0.73470   0.00000  Uiso   1.00
C1269  C     0.81841   0.34536   0.76457   0.00000  Uiso   1.00
C1270  C     0.82263   0.38934   0.76038   0.00000  Uiso   1.00
C1271  C     0.84309   0.61118   0.74001   0.00000  Uiso   1.00
C1272  C     0.78121   0.56711   0.98957   0.00000  Uiso   1.00
C1273  C     0.85162   0.48125   0.62908   0.00000  Uiso   1.00
C1274  C     0.81440   0.51708   0.87121   0.00000  Uiso   1.00
C1275  C     0.85402   0.41307   0.52316   0.00000  Uiso   1.00
C1276  C     0.85799   0.47048   0.58039   0.00000  Uiso   1.00
C1277  C     0.79046   0.56006   0.94246   0.00000  Uiso   1.00
C1278  C     0.98349   0.45371   0.78775   0.00000  Uiso   1.00
C1279  C     0.87554   0.33942   0.69584   0.00000  Uiso   1.00
C1280  C     0.74966   0.66069   0.80275   0.00000  Uiso   1.00
C1281  C     0.72184   0.63903   0.84369   0.00000  Uiso   1.00
C1282  C     0.67474   0.63373   0.84333   0.00000  Uiso   1.00
C1283  C     0.79130   0.53886   0.51500   0.00000  Uiso   1.00
C1284  C     0.83160   0.38117   0.93531   0.00000  Uiso   1.00
C1285  C     0.85993   0.36981   0.51107   0.00000  Uiso   1.00
C1286  C     0.86019   0.54167   0.56220   0.00000  Uiso   1.00
C1287  C     0.74511   0.51277   0.57873   0.00000  Uiso   1.00
C1288  C     0.70141   0.52403   0.57832   0.00000  Uiso   1.00
C1289  C     0.99871   0.49150   0.59975   0.00000  Uiso   1.00
C1290  C     0.72637   0.60777   0.50308   0.00000  Uiso   1.00
C1291  C     0.73014   0.64817   0.98073   0.00000  Uiso   1.00
C1292  C     0.68688   0.65657   0.97606   0.00000  Uiso   1.00
C1293  C     0.78910   0.43103   0.89823   0.00000  Uiso   1.00
C1294  C     0.81289   0.50456   0.99262   0.00000  Uiso   1.00
C1295  C     0.68723   0.54438   0.71298   0.00000  Uiso   1.00
C1296  C     0.81027   0.49210   0.94779   0.00000  Uiso   1.00
C1297  C     0.83334   0.48045   0.51446   0.00000  Uiso   1.00
C1298  C     0.83879   0.43832   0.99711   0.00000  Uiso   1.00
C1299  C     0.82705   0.42317   0.95585   0.00000  Uiso   1.00
C1300  C     0.81148   0.44961   0.93250   0.00000  Uiso   1.00
H1301  H     0.86819   0.40845   0.58686   0.00000  Uiso   1.00
H1302  H     0.74577   0.50995   0.61425   0.00000  Uiso   1.00
H1303  H     0.74958   0.48153   0.56062   0.00000  Uiso   1.00
H1304  H     0.69692   0.55486   0.59720   0.00000  Uiso   1.00
H1305  H     0.69981   0.52597   0.54293   0.00000  Uiso   1.00
H1306  H     0.66850   0.46071   0.58039   0.00000  Uiso   1.00
H1307  H     0.96753   0.50086   0.59948   0.00000  Uiso   1.00
H1308  H     0.99934   0.48876   0.63527   0.00000  Uiso   1.00
H1309  H     0.70291   0.60969   0.53630   0.00000  Uiso   1.00
H1310  H     0.71311   0.58109   0.98227   0.00000  Uiso   1.00
H1311  H     0.74359   0.34135   0.50127   0.00000  Uiso   1.00
H1312  H     0.78619   0.58374   0.92265   0.00000  Uiso   1.00
H1313  H     0.75202   0.64596   0.94663   0.00000  Uiso   1.00
H1314  H     0.67308   0.63069   0.95512   0.00000  Uiso   1.00
H1315  H     0.69083   0.35255   0.95943   0.00000  Uiso   1.00
H1316  H     0.99791   0.65993   0.50986   0.00000  Uiso   1.00
H1317  H     0.74398   0.64203   0.77148   0.00000  Uiso   1.00
H1318  H     0.74030   0.35896   0.80390   0.00000  Uiso   1.00
H1319  H     0.73168   0.60786   0.84361   0.00000  Uiso   1.00
H1320  H     0.72645   0.65778   0.87508   0.00000  Uiso   1.00
H1321  H     0.99736   0.66456   0.84407   0.00000  Uiso   1.00
H1322  H     0.98881   0.61808   0.87356   0.00000  Uiso   1.00
H1323  H     0.66931   0.61427   0.81262   0.00000  Uiso   1.00
N1324  N     0.96396   0.42602   0.80738   0.00000  Uiso   1.00
N1325  N     0.89969   0.35331   0.66490   0.00000  Uiso   1.00
N1326  N     0.83522   0.34791   0.91826   0.00000  Uiso   1.00
N1327  N     0.86480   0.33515   0.50199   0.00000  Uiso   1.00
N1328  N     0.86928   0.57705   0.56966   0.00000  Uiso   1.00
N1329  N     0.77101   0.41619   0.87124   0.00000  Uiso   1.00
N1330  N     0.70941   0.57000   0.69204   0.00000  Uiso   1.00
O1331  O     0.83333   0.50000   0.75000   0.00000  Uiso   1.00
O1332  O     0.82118   0.45970   0.65459   0.00000  Uiso   1.00
O1333  O     0.79607   0.53724   0.84968   0.00000  Uiso   1.00
O1334  O     0.87491   0.51092   0.64606   0.00000  Uiso   1.00
O1335  O     0.84118   0.49213   0.84968   0.00000  Uiso   1.00
O1336  O     0.79280   0.66351   0.80424   0.00000  Uiso   1.00
O1337  O     0.77804   0.54469   0.56171   0.00000  Uiso   1.00
O1338  O     0.76618   0.60348   0.51132   0.00000  Uiso   1.00
O1339  O     0.84597   0.41352   0.78214   0.00000  Uiso   1.00
O1340  O     0.81298   0.59418   0.77014   0.00000  Uiso   1.00
O1341  O     0.74078   0.46625   0.73413   0.00000  Uiso   1.00
O1342  O     0.93360   0.52605   0.71361   0.00000  Uiso   1.00
O1343  O     0.73738   0.52211   0.78213   0.00000  Uiso   1.00
O1344  O     0.92158   0.48559   0.77014   0.00000  Uiso   1.00
O1345  O     0.80426   0.40277   0.73413   0.00000  Uiso   1.00
O1346  O     0.87012   0.58953   0.71361   0.00000  Uiso   1.00
Zn1347 Zn    0.86005   0.47327   0.78734   0.00000  Uiso   1.00
Zn1348 Zn    0.80046   0.45791   0.71876   0.00000  Uiso   1.00
Zn1349 Zn    0.87723   0.53109   0.70657   0.00000  Uiso   1.00
Zn1350 Zn    0.79560   0.53773   0.78734   0.00000  Uiso   1.00
C1351  C     0.05301   0.82585   0.75995   0.00000  Uiso   1.00
C1352  C     0.18237   0.83062   0.55287   0.00000  Uiso   1.00
C1353  C     0.19442   0.76230   0.56508   0.00000  Uiso   1.00
C1354  C     0.28069   0.84068   0.74049   0.00000  Uiso   1.00
C1355  C     0.13735   0.85572   0.92114   0.00000  Uiso   1.00
C1356  C     0.32606   0.84558   0.73940   0.00000  Uiso   1.00
C1357  C     0.00820   0.82168   0.76315   0.00000  Uiso   1.00
C1358  C     0.17853   0.98867   0.73470   0.00000  Uiso   1.00
C1359  C     0.15174   0.67869   0.76457   0.00000  Uiso   1.00
C1360  C     0.15596   0.72267   0.76038   0.00000  Uiso   1.00
C1361  C     0.17642   0.94451   0.74001   0.00000  Uiso   1.00
C1362  C     0.11454   0.90044   0.98957   0.00000  Uiso   1.00
C1363  C     0.18495   0.81458   0.62908   0.00000  Uiso   1.00
C1364  C     0.14773   0.85041   0.87121   0.00000  Uiso   1.00
C1365  C     0.18735   0.74640   0.52316   0.00000  Uiso   1.00
C1366  C     0.19132   0.80382   0.58039   0.00000  Uiso   1.00
C1367  C     0.12379   0.89339   0.94246   0.00000  Uiso   1.00
C1368  C     0.31683   0.78704   0.78775   0.00000  Uiso   1.00
C1369  C     0.20888   0.67276   0.69584   0.00000  Uiso   1.00
C1370  C     0.08299   0.99402   0.80275   0.00000  Uiso   1.00
C1371  C     0.05517   0.97236   0.84369   0.00000  Uiso   1.00
C1372  C     0.00808   0.96706   0.84333   0.00000  Uiso   1.00
C1373  C     0.12463   0.87219   0.51500   0.00000  Uiso   1.00
C1374  C     0.16493   0.71450   0.93531   0.00000  Uiso   1.00
C1375  C     0.19326   0.70314   0.51107   0.00000  Uiso   1.00
C1376  C     0.19352   0.87500   0.56220   0.00000  Uiso   1.00
C1377  C     0.07844   0.84610   0.57873   0.00000  Uiso   1.00
C1378  C     0.03474   0.85737   0.57832   0.00000  Uiso   1.00
C1379  C     0.33204   0.82484   0.59975   0.00000  Uiso   1.00
C1380  C     0.05970   0.94110   0.50308   0.00000  Uiso   1.00
C1381  C     0.06347   0.98150   0.98073   0.00000  Uiso   1.00
C1382  C     0.02021   0.98990   0.97606   0.00000  Uiso   1.00
C1383  C     0.12243   0.76437   0.89823   0.00000  Uiso   1.00
C1384  C     0.14622   0.83789   0.99262   0.00000  Uiso   1.00
C1385  C     0.02056   0.87771   0.71298   0.00000  Uiso   1.00
C1386  C     0.14360   0.82543   0.94779   0.00000  Uiso   1.00
C1387  C     0.16667   0.81378   0.51446   0.00000  Uiso   1.00
C1388  C     0.17213   0.77165   0.99711   0.00000  Uiso   1.00
C1389  C     0.16038   0.75650   0.95585   0.00000  Uiso   1.00
C1390  C     0.14481   0.78294   0.93250   0.00000  Uiso   1.00
H1391  H     0.20153   0.74178   0.58686   0.00000  Uiso   1.00
H1392  H     0.07910   0.84328   0.61425   0.00000  Uiso   1.00
H1393  H     0.08292   0.81486   0.56062   0.00000  Uiso   1.00
H1394  H     0.03025   0.88819   0.59720   0.00000  Uiso   1.00
H1395  H     0.03314   0.85931   0.54293   0.00000  Uiso   1.00
H1396  H     0.00183   0.79405   0.58039   0.00000  Uiso   1.00
H1397  H     0.30086   0.83419   0.59948   0.00000  Uiso   1.00
H1398  H     0.33268   0.82210   0.63527   0.00000  Uiso   1.00
H1399  H     0.03624   0.94303   0.53630   0.00000  Uiso   1.00
H1400  H     0.04645   0.91442   0.98227   0.00000  Uiso   1.00
H1401  H     0.07692   0.67468   0.50127   0.00000  Uiso   1.00
H1402  H     0.11952   0.91707   0.92265   0.00000  Uiso   1.00
H1403  H     0.08536   0.97930   0.94663   0.00000  Uiso   1.00
H1404  H     0.00641   0.96402   0.95512   0.00000  Uiso   1.00
H1405  H     0.02416   0.68588   0.95943   0.00000  Uiso   1.00
H1406  H     0.33124   0.99327   0.50986   0.00000  Uiso   1.00
H1407  H     0.07732   0.97537   0.77148   0.00000  Uiso   1.00
H1408  H     0.07364   0.69230   0.80390   0.00000  Uiso   1.00
H1409  H     0.06501   0.94120   0.84361   0.00000  Uiso   1.00
H1410  H     0.05979   0.99112   0.87508   0.00000  Uiso   1.00
H1411  H     0.33069   0.99789   0.84407   0.00000  Uiso   1.00
H1412  H     0.32214   0.95142   0.87356   0.00000  Uiso   1.00
H1413  H     0.00264   0.94760   0.81262   0.00000  Uiso   1.00
N1414  N     0.29729   0.75935   0.80738   0.00000  Uiso   1.00
N1415  N     0.23302   0.68664   0.66490   0.00000  Uiso   1.00
N1416  N     0.16855   0.68124   0.91826   0.00000  Uiso   1.00
N1417  N     0.19813   0.66848   0.50199   0.00000  Uiso   1.00
N1418  N     0.20261   0.91039   0.56966   0.00000  Uiso   1.00
N1419  N     0.10434   0.74952   0.87124   0.00000  Uiso   1.00
N1420  N     0.04274   0.90334   0.69204   0.00000  Uiso   1.00
O1421  O     0.16667   0.83333   0.75000   0.00000  Uiso   1.00
O1422  O     0.15451   0.79304   0.65459   0.00000  Uiso   1.00
O1423  O     0.12940   0.87058   0.84968   0.00000  Uiso   1.00
O1424  O     0.20824   0.84425   0.64606   0.00000  Uiso   1.00
O1425  O     0.17451   0.82546   0.84968   0.00000  Uiso   1.00
O1426  O     0.12614   0.99684   0.80424   0.00000  Uiso   1.00
O1427  O     0.11137   0.87802   0.56171   0.00000  Uiso   1.00
O1428  O     0.09951   0.93681   0.51132   0.00000  Uiso   1.00
O1429  O     0.17930   0.74686   0.78214   0.00000  Uiso   1.00
O1430  O     0.14632   0.92751   0.77014   0.00000  Uiso   1.00
O1431  O     0.07412   0.79958   0.73413   0.00000  Uiso   1.00
O1432  O     0.26693   0.85939   0.71361   0.00000  Uiso   1.00
O1433  O     0.07071   0.85544   0.78213   0.00000  Uiso   1.00
O1434  O     0.25491   0.81892   0.77014   0.00000  Uiso   1.00
O1435  O     0.13760   0.73610   0.73413   0.00000  Uiso   1.00
O1436  O     0.20345   0.92286   0.71361   0.00000  Uiso   1.00
Zn1437 Zn    0.19338   0.80661   0.78734   0.00000  Uiso   1.00
Zn1438 Zn    0.13379   0.79124   0.71876   0.00000  Uiso   1.00
Zn1439 Zn    0.21056   0.86442   0.70657   0.00000  Uiso   1.00
Zn1440 Zn    0.12893   0.87106   0.78734   0.00000  Uiso   1.00
C1441  C     0.38634   0.82585   0.75995   0.00000  Uiso   1.00
C1442  C     0.51570   0.83062   0.55287   0.00000  Uiso   1.00
C1443  C     0.52776   0.76230   0.56508   0.00000  Uiso   1.00
C1444  C     0.61402   0.84068   0.74049   0.00000  Uiso   1.00
C1445  C     0.47068   0.85572   0.92114   0.00000  Uiso   1.00
C1446  C     0.65939   0.84558   0.73940   0.00000  Uiso   1.00
C1447  C     0.34153   0.82168   0.76315   0.00000  Uiso   1.00
C1448  C     0.51186   0.98867   0.73470   0.00000  Uiso   1.00
C1449  C     0.48507   0.67869   0.76457   0.00000  Uiso   1.00
C1450  C     0.48929   0.72267   0.76038   0.00000  Uiso   1.00
C1451  C     0.50975   0.94451   0.74001   0.00000  Uiso   1.00
C1452  C     0.44788   0.90044   0.98957   0.00000  Uiso   1.00
C1453  C     0.51829   0.81458   0.62908   0.00000  Uiso   1.00
C1454  C     0.48106   0.85041   0.87121   0.00000  Uiso   1.00
C1455  C     0.52069   0.74640   0.52316   0.00000  Uiso   1.00
C1456  C     0.52466   0.80382   0.58039   0.00000  Uiso   1.00
C1457  C     0.45712   0.89339   0.94246   0.00000  Uiso   1.00
C1458  C     0.65016   0.78704   0.78775   0.00000  Uiso   1.00
C1459  C     0.54221   0.67276   0.69584   0.00000  Uiso   1.00
C1460  C     0.41632   0.99402   0.80275   0.00000  Uiso   1.00
C1461  C     0.38850   0.97236   0.84369   0.00000  Uiso   1.00
C1462  C     0.34141   0.96706   0.84333   0.00000  Uiso   1.00
C1463  C     0.45797   0.87219   0.51500   0.00000  Uiso   1.00
C1464  C     0.49827   0.71450   0.93531   0.00000  Uiso   1.00
C1465  C     0.52659   0.70314   0.51107   0.00000  Uiso   1.00
C1466  C     0.52685   0.87500   0.56220   0.00000  Uiso   1.00
C1467  C     0.41177   0.84610   0.57873   0.00000  Uiso   1.00
C1468  C     0.36807   0.85737   0.57832   0.00000  Uiso   1.00
C1469  C     0.66537   0.82484   0.59975   0.00000  Uiso   1.00
C1470  C     0.39304   0.94110   0.50308   0.00000  Uiso   1.00
C1471  C     0.39680   0.98150   0.98073   0.00000  Uiso   1.00
C1472  C     0.35354   0.98990   0.97606   0.00000  Uiso   1.00
C1473  C     0.45577   0.76437   0.89823   0.00000  Uiso   1.00
C1474  C     0.47955   0.83789   0.99262   0.00000  Uiso   1.00
C1475  C     0.35389   0.87771   0.71298   0.00000  Uiso   1.00
C1476  C     0.47694   0.82543   0.94779   0.00000  Uiso   1.00
C1477  C     0.50001   0.81378   0.51446   0.00000  Uiso   1.00
C1478  C     0.50546   0.77165   0.99711   0.00000  Uiso   1.00
C1479  C     0.49371   0.75650   0.95585   0.00000  Uiso   1.00
C1480  C     0.47815   0.78294   0.93250   0.00000  Uiso   1.00
H1481  H     0.53486   0.74178   0.58686   0.00000  Uiso   1.00
H1482  H     0.41243   0.84328   0.61425   0.00000  Uiso   1.00
H1483  H     0.41625   0.81486   0.56062   0.00000  Uiso   1.00
H1484  H     0.36358   0.88819   0.59720   0.00000  Uiso   1.00
H1485  H     0.36648   0.85931   0.54293   0.00000  Uiso   1.00
H1486  H     0.33517   0.79405   0.58039   0.00000  Uiso   1.00
H1487  H     0.63420   0.83419   0.59948   0.00000  Uiso   1.00
H1488  H     0.66601   0.82210   0.63527   0.00000  Uiso   1.00
H1489  H     0.36957   0.94303   0.53630   0.00000  Uiso   1.00
H1490  H     0.37978   0.91442   0.98227   0.00000  Uiso   1.00
H1491  H     0.41026   0.67468   0.50127   0.00000  Uiso   1.00
H1492  H     0.45285   0.91707   0.92265   0.00000  Uiso   1.00
H1493  H     0.41869   0.97930   0.94663   0.00000  Uiso   1.00
H1494  H     0.33975   0.96402   0.95512   0.00000  Uiso   1.00
H1495  H     0.35750   0.68588   0.95943   0.00000  Uiso   1.00
H1496  H     0.66458   0.99327   0.50986   0.00000  Uiso   1.00
H1497  H     0.41065   0.97537   0.77148   0.00000  Uiso   1.00
H1498  H     0.40697   0.69230   0.80390   0.00000  Uiso   1.00
H1499  H     0.39834   0.94120   0.84361   0.00000  Uiso   1.00
H1500  H     0.39312   0.99112   0.87508   0.00000  Uiso   1.00
H1501  H     0.66403   0.99789   0.84407   0.00000  Uiso   1.00
H1502  H     0.65547   0.95142   0.87356   0.00000  Uiso   1.00
H1503  H     0.33598   0.94760   0.81262   0.00000  Uiso   1.00
N1504  N     0.63063   0.75935   0.80738   0.00000  Uiso   1.00
N1505  N     0.56635   0.68664   0.66490   0.00000  Uiso   1.00
N1506  N     0.50189   0.68124   0.91826   0.00000  Uiso   1.00
N1507  N     0.53146   0.66848   0.50199   0.00000  Uiso   1.00
N1508  N     0.53595   0.91039   0.56966   0.00000  Uiso   1.00
N1509  N     0.43768   0.74952   0.87124   0.00000  Uiso   1.00
N1510  N     0.37608   0.90334   0.69204   0.00000  Uiso   1.00
O1511  O     0.50000   0.83333   0.75000   0.00000  Uiso   1.00
O1512  O     0.48784   0.79304   0.65459   0.00000  Uiso   1.00
O1513  O     0.46274   0.87058   0.84968   0.00000  Uiso   1.00
O1514  O     0.54157   0.84425   0.64606   0.00000  Uiso   1.00
O1515  O     0.50785   0.82546   0.84968   0.00000  Uiso   1.00
O1516  O     0.45947   0.99684   0.80424   0.00000  Uiso   1.00
O1517  O     0.44471   0.87802   0.56171   0.00000  Uiso   1.00
O1518  O     0.43285   0.93681   0.51132   0.00000  Uiso   1.00
O1519  O     0.51264   0.74686   0.78214   0.00000  Uiso   1.00
O1520  O     0.47965   0.92751   0.77014   0.00000  Uiso   1.00
O1521  O     0.40745   0.79958   0.73413   0.00000  Uiso   1.00
O1522  O     0.60026   0.85939   0.71361   0.00000  Uiso   1.00
O1523  O     0.40405   0.85544   0.78213   0.00000  Uiso   1.00
O1524  O     0.58824   0.81892   0.77014   0.00000  Uiso   1.00
O1525  O     0.47093   0.73610   0.73413   0.00000  Uiso   1.00
O1526  O     0.53678   0.92286   0.71361   0.00000  Uiso   1.00
Zn1527 Zn    0.52672   0.80661   0.78734   0.00000  Uiso   1.00
Zn1528 Zn    0.46713   0.79124   0.71876   0.00000  Uiso   1.00
Zn1529 Zn    0.54389   0.86442   0.70657   0.00000  Uiso   1.00
Zn1530 Zn    0.46226   0.87106   0.78734   0.00000  Uiso   1.00
C1531  C     0.71967   0.82585   0.75995   0.00000  Uiso   1.00
C1532  C     0.84904   0.83062   0.55287   0.00000  Uiso   1.00
C1533  C     0.86109   0.76230   0.56508   0.00000  Uiso   1.00
C1534  C     0.94735   0.84068   0.74049   0.00000  Uiso   1.00
C1535  C     0.80401   0.85572   0.92114   0.00000  Uiso   1.00
C1536  C     0.99272   0.84558   0.73940   0.00000  Uiso   1.00
C1537  C     0.67487   0.82168   0.76315   0.00000  Uiso   1.00
C1538  C     0.84519   0.98867   0.73470   0.00000  Uiso   1.00
C1539  C     0.81841   0.67869   0.76457   0.00000  Uiso   1.00
C1540  C     0.82263   0.72267   0.76038   0.00000  Uiso   1.00
C1541  C     0.84309   0.94451   0.74001   0.00000  Uiso   1.00
C1542  C     0.78121   0.90044   0.98957   0.00000  Uiso   1.00
C1543  C     0.85162   0.81458   0.62908   0.00000  Uiso   1.00
C1544  C     0.81440   0.85041   0.87121   0.00000  Uiso   1.00
C1545  C     0.85402   0.74640   0.52316   0.00000  Uiso   1.00
C1546  C     0.85799   0.80382   0.58039   0.00000  Uiso   1.00
C1547  C     0.79046   0.89339   0.94246   0.00000  Uiso   1.00
C1548  C     0.98349   0.78704   0.78775   0.00000  Uiso   1.00
C1549  C     0.87554   0.67276   0.69584   0.00000  Uiso   1.00
C1550  C     0.74966   0.99402   0.80275   0.00000  Uiso   1.00
C1551  C     0.72184   0.97236   0.84369   0.00000  Uiso   1.00
C1552  C     0.67474   0.96706   0.84333   0.00000  Uiso   1.00
C1553  C     0.79130   0.87219   0.51500   0.00000  Uiso   1.00
C1554  C     0.83160   0.71450   0.93531   0.00000  Uiso   1.00
C1555  C     0.85993   0.70314   0.51107   0.00000  Uiso   1.00
C1556  C     0.86019   0.87500   0.56220   0.00000  Uiso   1.00
C1557  C     0.74511   0.84610   0.57873   0.00000  Uiso   1.00
C1558  C     0.70141   0.85737   0.57832   0.00000  Uiso   1.00
C1559  C     0.99871   0.82484   0.59975   0.00000  Uiso   1.00
C1560  C     0.72637   0.94110   0.50308   0.00000  Uiso   1.00
C1561  C     0.73014   0.98150   0.98073   0.00000  Uiso   1.00
C1562  C     0.68688   0.98990   0.97606   0.00000  Uiso   1.00
C1563  C     0.78910   0.76437   0.89823   0.00000  Uiso   1.00
C1564  C     0.81289   0.83789   0.99262   0.00000  Uiso   1.00
C1565  C     0.68723   0.87771   0.71298   0.00000  Uiso   1.00
C1566  C     0.81027   0.82543   0.94779   0.00000  Uiso   1.00
C1567  C     0.83334   0.81378   0.51446   0.00000  Uiso   1.00
C1568  C     0.83879   0.77165   0.99711   0.00000  Uiso   1.00
C1569  C     0.82705   0.75650   0.95585   0.00000  Uiso   1.00
C1570  C     0.81148   0.78294   0.93250   0.00000  Uiso   1.00
H1571  H     0.86819   0.74178   0.58686   0.00000  Uiso   1.00
H1572  H     0.74577   0.84328   0.61425   0.00000  Uiso   1.00
H1573  H     0.74958   0.81486   0.56062   0.00000  Uiso   1.00
H1574  H     0.69692   0.88819   0.59720   0.00000  Uiso   1.00
H1575  H     0.69981   0.85931   0.54293   0.00000  Uiso   1.00
H1576  H     0.66850   0.79405   0.58039   0.00000  Uiso   1.00
H1577  H     0.96753   0.83419   0.59948   0.00000  Uiso   1.00
H1578  H     0.99934   0.82210   0.63527   0.00000  Uiso   1.00
H1579  H     0.70291   0.94303   0.53630   0.00000  Uiso   1.00
H1580  H     0.71311   0.91442   0.98227   0.00000  Uiso   1.00
H1581  H     0.74359   0.67468   0.50127   0.00000  Uiso   1.00
H1582  H     0.78619   0.91707   0.92265   0.00000  Uiso   1.00
H1583  H     0.75202   0.97930   0.94663   0.00000  Uiso   1.00
H1584  H     0.67308   0.96402   0.95512   0.00000  Uiso   1.00
H1585  H     0.69083   0.68588   0.95943   0.00000  Uiso   1.00
H1586  H     0.99791   0.99327   0.50986   0.00000  Uiso   1.00
H1587  H     0.74398   0.97537   0.77148   0.00000  Uiso   1.00
H1588  H     0.74030   0.69230   0.80390   0.00000  Uiso   1.00
H1589  H     0.73168   0.94120   0.84361   0.00000  Uiso   1.00
H1590  H     0.72645   0.99112   0.87508   0.00000  Uiso   1.00
H1591  H     0.99736   0.99789   0.84407   0.00000  Uiso   1.00
H1592  H     0.98881   0.95142   0.87356   0.00000  Uiso   1.00
H1593  H     0.66931   0.94760   0.81262   0.00000  Uiso   1.00
N1594  N     0.96396   0.75935   0.80738   0.00000  Uiso   1.00
N1595  N     0.89969   0.68664   0.66490   0.00000  Uiso   1.00
N1596  N     0.83522   0.68124   0.91826   0.00000  Uiso   1.00
N1597  N     0.86480   0.66848   0.50199   0.00000  Uiso   1.00
N1598  N     0.86928   0.91039   0.56966   0.00000  Uiso   1.00
N1599  N     0.77101   0.74952   0.87124   0.00000  Uiso   1.00
N1600  N     0.70941   0.90334   0.69204   0.00000  Uiso   1.00
O1601  O     0.83333   0.83333   0.75000   0.00000  Uiso   1.00
O1602  O     0.82118   0.79304   0.65459   0.00000  Uiso   1.00
O1603  O     0.79607   0.87058   0.84968   0.00000  Uiso   1.00
O1604  O     0.87491   0.84425   0.64606   0.00000  Uiso   1.00
O1605  O     0.84118   0.82546   0.84968   0.00000  Uiso   1.00
O1606  O     0.79280   0.99684   0.80424   0.00000  Uiso   1.00
O1607  O     0.77804   0.87802   0.56171   0.00000  Uiso   1.00
O1608  O     0.76618   0.93681   0.51132   0.00000  Uiso   1.00
O1609  O     0.84597   0.74686   0.78214   0.00000  Uiso   1.00
O1610  O     0.81298   0.92751   0.77014   0.00000  Uiso   1.00
O1611  O     0.74078   0.79958   0.73413   0.00000  Uiso   1.00
O1612  O     0.93360   0.85939   0.71361   0.00000  Uiso   1.00
O1613  O     0.73738   0.85544   0.78213   0.00000  Uiso   1.00
O1614  O     0.92158   0.81892   0.77014   0.00000  Uiso   1.00
O1615  O     0.80426   0.73610   0.73413   0.00000  Uiso   1.00
O1616  O     0.87012   0.92286   0.71361   0.00000  Uiso   1.00
Zn1617 Zn    0.86005   0.80661   0.78734   0.00000  Uiso   1.00
Zn1618 Zn    0.80046   0.79124   0.71876   0.00000  Uiso   1.00
Zn1619 Zn    0.87723   0.86442   0.70657   0.00000  Uiso   1.00
Zn1620 Zn    0.79560   0.87106   0.78734   0.00000  Uiso   1.00
loop_
_geom_bond_atom_site_label_1
_geom_bond_atom_site_label_2
_geom_bond_distance
_geom_bond_site_symmetry_2
_ccdc_geom_bond_type
C1     O81     1.259   .     A
C1     C7      1.430   .     S
C1     O83     1.267   .     A
C2     C37     1.423   .     A
C2     C16     1.393   .     A
C2     C26     1.451   .     S
C3     C15     1.392   .     A
C3     H41     1.086   .     S
C3     C16     1.391   .     A
C4     C6      1.460   .     S
C4     O84     1.272   .     A
C4     O82     1.283   .     A
C5     C17     1.403   .     A
C5     C36     1.422   .     A
C5     C14     1.479   .     S
C6     C97     1.356   .     S
C6     C125    1.454   .     S
C7     C186    1.356   1_455 S
C7     C198    1.452   1_455 S
C8     C11     1.458   .     S
C8     C279    1.350   .     S
C8     C289    1.454   .     S
C9     C10     1.437   .     S
C9     C548    1.350   1_545 S
C9     O616    1.387   1_545 S
C10    O85     1.270   .     A
C10    O79     1.266   .     A
C11    O86     1.277   .     A
C11    O80     1.273   .     A
C12    C17     1.399   .     A
C12    C833    1.400   .     S
C12    O888    1.387   .     S
C13    O72     1.271   .     A
C13    C16     1.464   .     S
C13    O74     1.283   .     A
C14    O73     1.286   .     A
C14    O75     1.291   .     A
C15    C25     1.446   .     S
C15    C848    1.431   1_554 S
C17    H52     1.083   .     S
C18    N64     1.158   .     T
C18    C97     1.452   .     S
C19    N65     1.157   .     T
C19    C548    1.454   1_545 S
C20    O76     1.412   .     S
C20    C21     1.528   .     S
C20    H57     1.116   .     S
C20    H328    1.114   .     S
C21    H59     1.112   .     S
C21    C22     1.526   .     S
C21    H60     1.111   .     S
C22    H63     1.111   .     S
C22    H241    1.111   1_455 S
C22    H242    1.110   1_455 S
C23    O77     1.388   .     S
C23    C822    1.400   1_554 S
C23    C844    1.428   1_554 S
C24    C39     1.453   .     S
C24    N66     1.158   .     T
C25    N67     1.158   .     T
C26    N68     1.158   .     T
C27    O77     1.418   .     S
C27    H42     1.111   .     S
C27    H43     1.114   .     S
C27    C28     1.533   .     S
C28    H45     1.111   .     S
C28    H44     1.111   .     S
C28    C209    1.526   1_455 S
C29    H47     1.111   .     S
C29    H48     1.110   .     S
C29    C118    1.526   .     S
C29    H136    1.111   .     S
C30    H49     1.111   .     S
C30    O78     1.418   .     S
C30    C841    1.530   1_554 S
C30    H860    1.117   1_554 S
C31    C32     1.526   .     S
C31    H53     1.109   .     S
C31    C840    1.530   .     S
C31    H1131   1.112   .     S
C32    H54     1.111   .     S
C32    H325    1.111   .     S
C32    H1046   1.111   1_455 S
C33    C40     1.455   .     S
C33    N69     1.157   .     T
C34    C36     1.409   .     A
C34    C833    1.428   .     S
C34    C847    1.424   .     S
C35    N70     1.157   .     T
C35    C186    1.454   1_455 S
C36    C40     1.414   .     A
C37    C844    1.424   1_554 S
C37    C848    1.435   1_554 S
C38    C39     1.428   .     A
C38    C847    1.435   .     S
C38    C825    1.431   .     S
C39    C40     1.408   .     A
H46    C209    1.111   1_455 S
H50    C840    1.117   .     S
H51    C1381   1.112   1_544 S
H55    C572    1.111   1_545 S
H56    C932    1.111   1_554 S
H58    C560    1.114   1_545 S
H61    C112    1.111   .     S
H62    C112    1.110   .     S
O71    Zn89    1.939   .     S
O71    Zn87    1.953   .     S
O71    Zn90    1.942   .     S
O71    Zn88    1.930   .     S
O72    Zn88    1.918   .     S
O73    Zn90    1.920   .     S
O74    Zn89    1.914   .     S
O75    Zn87    1.914   .     S
O76    C279    1.387   .     S
O78    C822    1.387   1_554 S
O79    Zn87    1.930   .     S
O80    Zn90    1.935   .     S
O81    Zn88    1.942   .     S
O82    Zn89    1.943   .     S
O83    Zn90    1.936   .     S
O84    Zn87    1.936   .     S
O85    Zn88    1.942   .     S
O86    Zn89    1.936   .     S
C91    O171    1.259   .     A
C91    C97     1.430   .     S
C91    O173    1.267   .     A
C92    C127    1.423   .     A
C92    C106    1.393   .     A
C92    C116    1.451   .     S
C93    C105    1.392   .     A
C93    H131    1.086   .     S
C93    C106    1.391   .     A
C94    C96     1.460   .     S
C94    O174    1.272   .     A
C94    O172    1.283   .     A
C95    C107    1.403   .     A
C95    C126    1.422   .     A
C95    C104    1.479   .     S
C96    C187    1.356   .     S
C96    C215    1.454   .     S
C98    C101    1.458   .     S
C98    C369    1.350   .     S
C98    C379    1.454   .     S
C99    C100    1.437   .     S
C99    C638    1.350   1_545 S
C99    O706    1.387   1_545 S
C100   O175    1.270   .     A
C100   O169    1.266   .     A
C101   O176    1.277   .     A
C101   O170    1.273   .     A
C102   C107    1.399   .     A
C102   C923    1.400   .     S
C102   O978    1.387   .     S
C103   O162    1.271   .     A
C103   C106    1.464   .     S
C103   O164    1.283   .     A
C104   O163    1.286   .     A
C104   O165    1.291   .     A
C105   C115    1.446   .     S
C105   C938    1.431   1_554 S
C107   H142    1.083   .     S
C108   N154    1.158   .     T
C108   C187    1.452   .     S
C109   N155    1.157   .     T
C109   C638    1.454   1_545 S
C110   O166    1.412   .     S
C110   C111    1.528   .     S
C110   H147    1.116   .     S
C110   H418    1.114   .     S
C111   H149    1.112   .     S
C111   C112    1.526   .     S
C111   H150    1.111   .     S
C112   H153    1.111   .     S
C113   O167    1.388   .     S
C113   C912    1.400   1_554 S
C113   C934    1.428   1_554 S
C114   C129    1.453   .     S
C114   N156    1.158   .     T
C115   N157    1.158   .     T
C116   N158    1.158   .     T
C117   O167    1.418   .     S
C117   H132    1.111   .     S
C117   H133    1.114   .     S
C117   C118    1.533   .     S
C118   H135    1.111   .     S
C118   H134    1.111   .     S
C119   H137    1.111   .     S
C119   H138    1.110   .     S
C119   C208    1.526   .     S
C119   H226    1.111   .     S
C120   H139    1.111   .     S
C120   O168    1.418   .     S
C120   C931    1.530   1_554 S
C120   H950    1.117   1_554 S
C121   C122    1.526   .     S
C121   H143    1.109   .     S
C121   C930    1.530   .     S
C121   H1221   1.112   .     S
C122   H144    1.111   .     S
C122   H415    1.111   .     S
C122   H866    1.111   .     S
C123   C130    1.455   .     S
C123   N159    1.157   .     T
C124   C126    1.409   .     A
C124   C923    1.428   .     S
C124   C937    1.424   .     S
C125   N160    1.157   .     T
C126   C130    1.414   .     A
C127   C934    1.424   1_554 S
C127   C938    1.435   1_554 S
C128   C129    1.428   .     A
C128   C937    1.435   .     S
C128   C915    1.431   .     S
C129   C130    1.408   .     A
H140   C930    1.117   .     S
H141   C1471   1.112   1_544 S
H145   C662    1.111   1_545 S
H146   C1022   1.111   1_554 S
H148   C650    1.114   1_545 S
H151   C202    1.111   .     S
H152   C202    1.110   .     S
O161   Zn179   1.939   .     S
O161   Zn177   1.953   .     S
O161   Zn180   1.942   .     S
O161   Zn178   1.930   .     S
O162   Zn178   1.918   .     S
O163   Zn180   1.920   .     S
O164   Zn179   1.914   .     S
O165   Zn177   1.914   .     S
O166   C369    1.387   .     S
O168   C912    1.387   1_554 S
O169   Zn177   1.930   .     S
O170   Zn180   1.935   .     S
O171   Zn178   1.942   .     S
O172   Zn179   1.943   .     S
O173   Zn180   1.936   .     S
O174   Zn177   1.936   .     S
O175   Zn178   1.942   .     S
O176   Zn179   1.936   .     S
C181   O261    1.259   .     A
C181   C187    1.430   .     S
C181   O263    1.267   .     A
C182   C217    1.423   .     A
C182   C196    1.393   .     A
C182   C206    1.451   .     S
C183   C195    1.392   .     A
C183   H221    1.086   .     S
C183   C196    1.391   .     A
C184   C186    1.460   .     S
C184   O264    1.272   .     A
C184   O262    1.283   .     A
C185   C197    1.403   .     A
C185   C216    1.422   .     A
C185   C194    1.479   .     S
C186   C7      1.356   1_655 S
C186   C35     1.454   1_655 S
C188   C191    1.458   .     S
C188   C459    1.350   .     S
C188   C469    1.454   .     S
C189   C190    1.437   .     S
C189   C728    1.350   1_545 S
C189   O796    1.387   1_545 S
C190   O265    1.270   .     A
C190   O259    1.266   .     A
C191   O266    1.277   .     A
C191   O260    1.273   .     A
C192   C197    1.399   .     A
C192   C1013   1.400   .     S
C192   O1068   1.387   .     S
C193   O252    1.271   .     A
C193   C196    1.464   .     S
C193   O254    1.283   .     A
C194   O253    1.286   .     A
C194   O255    1.291   .     A
C195   C205    1.446   .     S
C195   C1028   1.431   1_554 S
C197   H232    1.083   .     S
C198   N244    1.158   .     T
C198   C7      1.452   1_655 S
C199   N245    1.157   .     T
C199   C728    1.454   1_545 S
C200   O256    1.412   .     S
C200   C201    1.528   .     S
C200   H237    1.116   .     S
C200   H508    1.114   .     S
C201   H239    1.112   .     S
C201   C202    1.526   .     S
C201   H240    1.111   .     S
C202   H243    1.111   .     S
C203   O257    1.388   .     S
C203   C1002   1.400   1_554 S
C203   C1024   1.428   1_554 S
C204   C219    1.453   .     S
C204   N246    1.158   .     T
C205   N247    1.158   .     T
C206   N248    1.158   .     T
C207   O257    1.418   .     S
C207   H222    1.111   .     S
C207   H223    1.114   .     S
C207   C208    1.533   .     S
C208   H225    1.111   .     S
C208   H224    1.111   .     S
C209   H227    1.111   .     S
C209   H228    1.110   .     S
C209   C28     1.526   1_655 S
C209   H46     1.111   1_655 S
C210   H229    1.111   .     S
C210   O258    1.418   .     S
C210   C1021   1.530   1_554 S
C210   H1040   1.117   1_554 S
C211   C212    1.526   .     S
C211   H233    1.109   .     S
C211   C1020   1.530   .     S
C211   H1311   1.112   .     S
C212   H234    1.111   .     S
C212   H505    1.111   .     S
C212   H956    1.111   .     S
C213   C220    1.455   .     S
C213   N249    1.157   .     T
C214   C216    1.409   .     A
C214   C1013   1.428   .     S
C214   C1027   1.424   .     S
C215   N250    1.157   .     T
C216   C220    1.414   .     A
C217   C1024   1.424   1_554 S
C217   C1028   1.435   1_554 S
C218   C219    1.428   .     A
C218   C1027   1.435   .     S
C218   C1005   1.431   .     S
C219   C220    1.408   .     A
H230   C1020   1.117   .     S
H231   C1561   1.112   1_544 S
H235   C752    1.111   1_545 S
H236   C842    1.111   1_654 S
H238   C740    1.114   1_545 S
H241   C22     1.111   1_655 S
H242   C22     1.110   1_655 S
O251   Zn269   1.939   .     S
O251   Zn267   1.953   .     S
O251   Zn270   1.942   .     S
O251   Zn268   1.930   .     S
O252   Zn268   1.918   .     S
O253   Zn270   1.920   .     S
O254   Zn269   1.914   .     S
O255   Zn267   1.914   .     S
O256   C459    1.387   .     S
O258   C1002   1.387   1_554 S
O259   Zn267   1.930   .     S
O260   Zn270   1.935   .     S
O261   Zn268   1.942   .     S
O262   Zn269   1.943   .     S
O263   Zn270   1.936   .     S
O264   Zn267   1.936   .     S
O265   Zn268   1.942   .     S
O266   Zn269   1.936   .     S
C271   O351    1.259   .     A
C271   C277    1.430   .     S
C271   O353    1.267   .     A
C272   C307    1.423   .     A
C272   C286    1.393   .     A
C272   C296    1.451   .     S
C273   C285    1.392   .     A
C273   H311    1.086   .     S
C273   C286    1.391   .     A
C274   C276    1.460   .     S
C274   O354    1.272   .     A
C274   O352    1.283   .     A
C275   C287    1.403   .     A
C275   C306    1.422   .     A
C275   C284    1.479   .     S
C276   C367    1.356   .     S
C276   C395    1.454   .     S
C277   C456    1.356   1_455 S
C277   C468    1.452   1_455 S
C278   C281    1.458   .     S
C278   C549    1.350   .     S
C278   C559    1.454   .     S
C279   C280    1.437   .     S
C280   O355    1.270   .     A
C280   O349    1.266   .     A
C281   O356    1.277   .     A
C281   O350    1.273   .     A
C282   C287    1.399   .     A
C282   C1103   1.400   .     S
C282   O1158   1.387   .     S
C283   O342    1.271   .     A
C283   C286    1.464   .     S
C283   O344    1.283   .     A
C284   O343    1.286   .     A
C284   O345    1.291   .     A
C285   C295    1.446   .     S
C285   C1118   1.431   1_554 S
C287   H322    1.083   .     S
C288   N334    1.158   .     T
C288   C367    1.452   .     S
C289   N335    1.157   .     T
C290   O346    1.412   .     S
C290   C291    1.528   .     S
C290   H327    1.116   .     S
C290   H598    1.114   .     S
C291   H329    1.112   .     S
C291   C292    1.526   .     S
C291   H330    1.111   .     S
C292   H333    1.111   .     S
C292   H511    1.111   1_455 S
C292   H512    1.110   1_455 S
C293   O347    1.388   .     S
C293   C1092   1.400   1_554 S
C293   C1114   1.428   1_554 S
C294   C309    1.453   .     S
C294   N336    1.158   .     T
C295   N337    1.158   .     T
C296   N338    1.158   .     T
C297   O347    1.418   .     S
C297   H312    1.111   .     S
C297   H313    1.114   .     S
C297   C298    1.533   .     S
C298   H315    1.111   .     S
C298   H314    1.111   .     S
C298   C479    1.526   1_455 S
C299   H317    1.111   .     S
C299   H318    1.110   .     S
C299   C388    1.526   .     S
C299   H406    1.111   .     S
C300   H319    1.111   .     S
C300   O348    1.418   .     S
C300   C1111   1.530   1_554 S
C300   H1130   1.117   1_554 S
C301   C302    1.526   .     S
C301   H323    1.109   .     S
C301   C1110   1.530   .     S
C301   H1401   1.112   .     S
C302   H324    1.111   .     S
C302   H595    1.111   .     S
C302   H1316   1.111   1_455 S
C303   C310    1.455   .     S
C303   N339    1.157   .     T
C304   C306    1.409   .     A
C304   C1103   1.428   .     S
C304   C1117   1.424   .     S
C305   N340    1.157   .     T
C305   C456    1.454   1_455 S
C306   C310    1.414   .     A
C307   C1114   1.424   1_554 S
C307   C1118   1.435   1_554 S
C308   C309    1.428   .     A
C308   C1117   1.435   .     S
C308   C1095   1.431   .     S
C309   C310    1.408   .     A
H316   C479    1.111   1_455 S
H320   C1110   1.117   .     S
H321   C841    1.112   1_554 S
H326   C1202   1.111   1_554 S
H331   C382    1.111   .     S
H332   C382    1.110   .     S
O341   Zn359   1.939   .     S
O341   Zn357   1.953   .     S
O341   Zn360   1.942   .     S
O341   Zn358   1.930   .     S
O342   Zn358   1.918   .     S
O343   Zn360   1.920   .     S
O344   Zn359   1.914   .     S
O345   Zn357   1.914   .     S
O346   C549    1.387   .     S
O348   C1092   1.387   1_554 S
O349   Zn357   1.930   .     S
O350   Zn360   1.935   .     S
O351   Zn358   1.942   .     S
O352   Zn359   1.943   .     S
O353   Zn360   1.936   .     S
O354   Zn357   1.936   .     S
O355   Zn358   1.942   .     S
O356   Zn359   1.936   .     S
C361   O441    1.259   .     A
C361   C367    1.430   .     S
C361   O443    1.267   .     A
C362   C397    1.423   .     A
C362   C376    1.393   .     A
C362   C386    1.451   .     S
C363   C375    1.392   .     A
C363   H401    1.086   .     S
C363   C376    1.391   .     A
C364   C366    1.460   .     S
C364   O444    1.272   .     A
C364   O442    1.283   .     A
C365   C377    1.403   .     A
C365   C396    1.422   .     A
C365   C374    1.479   .     S
C366   C457    1.356   .     S
C366   C485    1.454   .     S
C368   C371    1.458   .     S
C368   C639    1.350   .     S
C368   C649    1.454   .     S
C369   C370    1.437   .     S
C370   O445    1.270   .     A
C370   O439    1.266   .     A
C371   O446    1.277   .     A
C371   O440    1.273   .     A
C372   C377    1.399   .     A
C372   C1193   1.400   .     S
C372   O1248   1.387   .     S
C373   O432    1.271   .     A
C373   C376    1.464   .     S
C373   O434    1.283   .     A
C374   O433    1.286   .     A
C374   O435    1.291   .     A
C375   C385    1.446   .     S
C375   C1208   1.431   1_554 S
C377   H412    1.083   .     S
C378   N424    1.158   .     T
C378   C457    1.452   .     S
C379   N425    1.157   .     T
C380   O436    1.412   .     S
C380   C381    1.528   .     S
C380   H417    1.116   .     S
C380   H688    1.114   .     S
C381   H419    1.112   .     S
C381   C382    1.526   .     S
C381   H420    1.111   .     S
C382   H423    1.111   .     S
C383   O437    1.388   .     S
C383   C1182   1.400   1_554 S
C383   C1204   1.428   1_554 S
C384   C399    1.453   .     S
C384   N426    1.158   .     T
C385   N427    1.158   .     T
C386   N428    1.158   .     T
C387   O437    1.418   .     S
C387   H402    1.111   .     S
C387   H403    1.114   .     S
C387   C388    1.533   .     S
C388   H405    1.111   .     S
C388   H404    1.111   .     S
C389   H407    1.111   .     S
C389   H408    1.110   .     S
C389   C478    1.526   .     S
C389   H496    1.111   .     S
C390   H409    1.111   .     S
C390   O438    1.418   .     S
C390   C1201   1.530   1_554 S
C390   H1220   1.117   1_554 S
C391   C392    1.526   .     S
C391   H413    1.109   .     S
C391   C1200   1.530   .     S
C391   H1491   1.112   .     S
C392   H414    1.111   .     S
C392   H685    1.111   .     S
C392   H1136   1.111   .     S
C393   C400    1.455   .     S
C393   N429    1.157   .     T
C394   C396    1.409   .     A
C394   C1193   1.428   .     S
C394   C1207   1.424   .     S
C395   N430    1.157   .     T
C396   C400    1.414   .     A
C397   C1204   1.424   1_554 S
C397   C1208   1.435   1_554 S
C398   C399    1.428   .     A
C398   C1207   1.435   .     S
C398   C1185   1.431   .     S
C399   C400    1.408   .     A
H410   C1200   1.117   .     S
H411   C931    1.112   1_554 S
H416   C1292   1.111   1_554 S
H421   C472    1.111   .     S
H422   C472    1.110   .     S
O431   Zn449   1.939   .     S
O431   Zn447   1.953   .     S
O431   Zn450   1.942   .     S
O431   Zn448   1.930   .     S
O432   Zn448   1.918   .     S
O433   Zn450   1.920   .     S
O434   Zn449   1.914   .     S
O435   Zn447   1.914   .     S
O436   C639    1.387   .     S
O438   C1182   1.387   1_554 S
O439   Zn447   1.930   .     S
O440   Zn450   1.935   .     S
O441   Zn448   1.942   .     S
O442   Zn449   1.943   .     S
O443   Zn450   1.936   .     S
O444   Zn447   1.936   .     S
O445   Zn448   1.942   .     S
O446   Zn449   1.936   .     S
C451   O531    1.259   .     A
C451   C457    1.430   .     S
C451   O533    1.267   .     A
C452   C487    1.423   .     A
C452   C466    1.393   .     A
C452   C476    1.451   .     S
C453   C465    1.392   .     A
C453   H491    1.086   .     S
C453   C466    1.391   .     A
C454   C456    1.460   .     S
C454   O534    1.272   .     A
C454   O532    1.283   .     A
C455   C467    1.403   .     A
C455   C486    1.422   .     A
C455   C464    1.479   .     S
C456   C277    1.356   1_655 S
C456   C305    1.454   1_655 S
C458   C461    1.458   .     S
C458   C729    1.350   .     S
C458   C739    1.454   .     S
C459   C460    1.437   .     S
C460   O535    1.270   .     A
C460   O529    1.266   .     A
C461   O536    1.277   .     A
C461   O530    1.273   .     A
C462   C467    1.399   .     A
C462   C1283   1.400   .     S
C462   O1338   1.387   .     S
C463   O522    1.271   .     A
C463   C466    1.464   .     S
C463   O524    1.283   .     A
C464   O523    1.286   .     A
C464   O525    1.291   .     A
C465   C475    1.446   .     S
C465   C1298   1.431   1_554 S
C467   H502    1.083   .     S
C468   N514    1.158   .     T
C468   C277    1.452   1_655 S
C469   N515    1.157   .     T
C470   O526    1.412   .     S
C470   C471    1.528   .     S
C470   H507    1.116   .     S
C470   H778    1.114   .     S
C471   H509    1.112   .     S
C471   C472    1.526   .     S
C471   H510    1.111   .     S
C472   H513    1.111   .     S
C473   O527    1.388   .     S
C473   C1272   1.400   1_554 S
C473   C1294   1.428   1_554 S
C474   C489    1.453   .     S
C474   N516    1.158   .     T
C475   N517    1.158   .     T
C476   N518    1.158   .     T
C477   O527    1.418   .     S
C477   H492    1.111   .     S
C477   H493    1.114   .     S
C477   C478    1.533   .     S
C478   H495    1.111   .     S
C478   H494    1.111   .     S
C479   H497    1.111   .     S
C479   H498    1.110   .     S
C479   C298    1.526   1_655 S
C479   H316    1.111   1_655 S
C480   H499    1.111   .     S
C480   O528    1.418   .     S
C480   C1291   1.530   1_554 S
C480   H1310   1.117   1_554 S
C481   C482    1.526   .     S
C481   H503    1.109   .     S
C481   C1290   1.530   .     S
C481   H1581   1.112   .     S
C482   H504    1.111   .     S
C482   H775    1.111   .     S
C482   H1226   1.111   .     S
C483   C490    1.455   .     S
C483   N519    1.157   .     T
C484   C486    1.409   .     A
C484   C1283   1.428   .     S
C484   C1297   1.424   .     S
C485   N520    1.157   .     T
C486   C490    1.414   .     A
C487   C1294   1.424   1_554 S
C487   C1298   1.435   1_554 S
C488   C489    1.428   .     A
C488   C1297   1.435   .     S
C488   C1275   1.431   .     S
C489   C490    1.408   .     A
H500   C1290   1.117   .     S
H501   C1021   1.112   1_554 S
H506   C1112   1.111   1_654 S
H511   C292    1.111   1_655 S
H512   C292    1.110   1_655 S
O521   Zn539   1.939   .     S
O521   Zn537   1.953   .     S
O521   Zn540   1.942   .     S
O521   Zn538   1.930   .     S
O522   Zn538   1.918   .     S
O523   Zn540   1.920   .     S
O524   Zn539   1.914   .     S
O525   Zn537   1.914   .     S
O526   C729    1.387   .     S
O528   C1272   1.387   1_554 S
O529   Zn537   1.930   .     S
O530   Zn540   1.935   .     S
O531   Zn538   1.942   .     S
O532   Zn539   1.943   .     S
O533   Zn540   1.936   .     S
O534   Zn537   1.936   .     S
O535   Zn538   1.942   .     S
O536   Zn539   1.936   .     S
C541   O621    1.259   .     A
C541   C547    1.430   .     S
C541   O623    1.267   .     A
C542   C577    1.423   .     A
C542   C556    1.393   .     A
C542   C566    1.451   .     S
C543   C555    1.392   .     A
C543   H581    1.086   .     S
C543   C556    1.391   .     A
C544   C546    1.460   .     S
C544   O624    1.272   .     A
C544   O622    1.283   .     A
C545   C557    1.403   .     A
C545   C576    1.422   .     A
C545   C554    1.479   .     S
C546   C637    1.356   .     S
C546   C665    1.454   .     S
C547   C726    1.356   1_455 S
C547   C738    1.452   1_455 S
C548   C551    1.458   .     S
C548   C9      1.350   1_565 S
C548   C19     1.454   1_565 S
C549   C550    1.437   .     S
C550   O625    1.270   .     A
C550   O619    1.266   .     A
C551   O626    1.277   .     A
C551   O620    1.273   .     A
C552   C557    1.399   .     A
C552   C1373   1.400   .     S
C552   O1428   1.387   .     S
C553   O612    1.271   .     A
C553   C556    1.464   .     S
C553   O614    1.283   .     A
C554   O613    1.286   .     A
C554   O615    1.291   .     A
C555   C565    1.446   .     S
C555   C1388   1.431   1_554 S
C557   H592    1.083   .     S
C558   N604    1.158   .     T
C558   C637    1.452   .     S
C559   N605    1.157   .     T
C560   O616    1.412   .     S
C560   C561    1.528   .     S
C560   H597    1.116   .     S
C560   H58     1.114   1_565 S
C561   H599    1.112   .     S
C561   C562    1.526   .     S
C561   H600    1.111   .     S
C562   H603    1.111   .     S
C562   H781    1.111   1_455 S
C562   H782    1.110   1_455 S
C563   O617    1.388   .     S
C563   C1362   1.400   1_554 S
C563   C1384   1.428   1_554 S
C564   C579    1.453   .     S
C564   N606    1.158   .     T
C565   N607    1.158   .     T
C566   N608    1.158   .     T
C567   O617    1.418   .     S
C567   H582    1.111   .     S
C567   H583    1.114   .     S
C567   C568    1.533   .     S
C568   H585    1.111   .     S
C568   H584    1.111   .     S
C568   C749    1.526   1_455 S
C569   H587    1.111   .     S
C569   H588    1.110   .     S
C569   C658    1.526   .     S
C569   H676    1.111   .     S
C570   H589    1.111   .     S
C570   O618    1.418   .     S
C570   C1381   1.530   1_554 S
C570   H1400   1.117   1_554 S
C571   C572    1.526   .     S
C571   H593    1.109   .     S
C571   C1380   1.530   .     S
C571   H861    1.112   1_565 S
C572   H594    1.111   .     S
C572   H55     1.111   1_565 S
C572   H1586   1.111   1_455 S
C573   C580    1.455   .     S
C573   N609    1.157   .     T
C574   C576    1.409   .     A
C574   C1373   1.428   .     S
C574   C1387   1.424   .     S
C575   N610    1.157   .     T
C575   C726    1.454   1_455 S
C576   C580    1.414   .     A
C577   C1384   1.424   1_554 S
C577   C1388   1.435   1_554 S
C578   C579    1.428   .     A
C578   C1387   1.435   .     S
C578   C1365   1.431   .     S
C579   C580    1.408   .     A
H586   C749    1.111   1_455 S
H590   C1380   1.117   .     S
H591   C1111   1.112   1_554 S
H596   C1472   1.111   1_554 S
H601   C652    1.111   .     S
H602   C652    1.110   .     S
O611   Zn629   1.939   .     S
O611   Zn627   1.953   .     S
O611   Zn630   1.942   .     S
O611   Zn628   1.930   .     S
O612   Zn628   1.918   .     S
O613   Zn630   1.920   .     S
O614   Zn629   1.914   .     S
O615   Zn627   1.914   .     S
O616   C9      1.387   1_565 S
O618   C1362   1.387   1_554 S
O619   Zn627   1.930   .     S
O620   Zn630   1.935   .     S
O621   Zn628   1.942   .     S
O622   Zn629   1.943   .     S
O623   Zn630   1.936   .     S
O624   Zn627   1.936   .     S
O625   Zn628   1.942   .     S
O626   Zn629   1.936   .     S
C631   O711    1.259   .     A
C631   C637    1.430   .     S
C631   O713    1.267   .     A
C632   C667    1.423   .     A
C632   C646    1.393   .     A
C632   C656    1.451   .     S
C633   C645    1.392   .     A
C633   H671    1.086   .     S
C633   C646    1.391   .     A
C634   C636    1.460   .     S
C634   O714    1.272   .     A
C634   O712    1.283   .     A
C635   C647    1.403   .     A
C635   C666    1.422   .     A
C635   C644    1.479   .     S
C636   C727    1.356   .     S
C636   C755    1.454   .     S
C638   C641    1.458   .     S
C638   C99     1.350   1_565 S
C638   C109    1.454   1_565 S
C639   C640    1.437   .     S
C640   O715    1.270   .     A
C640   O709    1.266   .     A
C641   O716    1.277   .     A
C641   O710    1.273   .     A
C642   C647    1.399   .     A
C642   C1463   1.400   .     S
C642   O1518   1.387   .     S
C643   O702    1.271   .     A
C643   C646    1.464   .     S
C643   O704    1.283   .     A
C644   O703    1.286   .     A
C644   O705    1.291   .     A
C645   C655    1.446   .     S
C645   C1478   1.431   1_554 S
C647   H682    1.083   .     S
C648   N694    1.158   .     T
C648   C727    1.452   .     S
C649   N695    1.157   .     T
C650   O706    1.412   .     S
C650   C651    1.528   .     S
C650   H687    1.116   .     S
C650   H148    1.114   1_565 S
C651   H689    1.112   .     S
C651   C652    1.526   .     S
C651   H690    1.111   .     S
C652   H693    1.111   .     S
C653   O707    1.388   .     S
C653   C1452   1.400   1_554 S
C653   C1474   1.428   1_554 S
C654   C669    1.453   .     S
C654   N696    1.158   .     T
C655   N697    1.158   .     T
C656   N698    1.158   .     T
C657   O707    1.418   .     S
C657   H672    1.111   .     S
C657   H673    1.114   .     S
C657   C658    1.533   .     S
C658   H675    1.111   .     S
C658   H674    1.111   .     S
C659   H677    1.111   .     S
C659   H678    1.110   .     S
C659   C748    1.526   .     S
C659   H766    1.111   .     S
C660   H679    1.111   .     S
C660   O708    1.418   .     S
C660   C1471   1.530   1_554 S
C660   H1490   1.117   1_554 S
C661   C662    1.526   .     S
C661   H683    1.109   .     S
C661   C1470   1.530   .     S
C661   H951    1.112   1_565 S
C662   H684    1.111   .     S
C662   H145    1.111   1_565 S
C662   H1406   1.111   .     S
C663   C670    1.455   .     S
C663   N699    1.157   .     T
C664   C666    1.409   .     A
C664   C1463   1.428   .     S
C664   C1477   1.424   .     S
C665   N700    1.157   .     T
C666   C670    1.414   .     A
C667   C1474   1.424   1_554 S
C667   C1478   1.435   1_554 S
C668   C669    1.428   .     A
C668   C1477   1.435   .     S
C668   C1455   1.431   .     S
C669   C670    1.408   .     A
H680   C1470   1.117   .     S
H681   C1201   1.112   1_554 S
H686   C1562   1.111   1_554 S
H691   C742    1.111   .     S
H692   C742    1.110   .     S
O701   Zn719   1.939   .     S
O701   Zn717   1.953   .     S
O701   Zn720   1.942   .     S
O701   Zn718   1.930   .     S
O702   Zn718   1.918   .     S
O703   Zn720   1.920   .     S
O704   Zn719   1.914   .     S
O705   Zn717   1.914   .     S
O706   C99     1.387   1_565 S
O708   C1452   1.387   1_554 S
O709   Zn717   1.930   .     S
O710   Zn720   1.935   .     S
O711   Zn718   1.942   .     S
O712   Zn719   1.943   .     S
O713   Zn720   1.936   .     S
O714   Zn717   1.936   .     S
O715   Zn718   1.942   .     S
O716   Zn719   1.936   .     S
C721   O801    1.259   .     A
C721   C727    1.430   .     S
C721   O803    1.267   .     A
C722   C757    1.423   .     A
C722   C736    1.393   .     A
C722   C746    1.451   .     S
C723   C735    1.392   .     A
C723   H761    1.086   .     S
C723   C736    1.391   .     A
C724   C726    1.460   .     S
C724   O804    1.272   .     A
C724   O802    1.283   .     A
C725   C737    1.403   .     A
C725   C756    1.422   .     A
C725   C734    1.479   .     S
C726   C547    1.356   1_655 S
C726   C575    1.454   1_655 S
C728   C731    1.458   .     S
C728   C189    1.350   1_565 S
C728   C199    1.454   1_565 S
C729   C730    1.437   .     S
C730   O805    1.270   .     A
C730   O799    1.266   .     A
C731   O806    1.277   .     A
C731   O800    1.273   .     A
C732   C737    1.399   .     A
C732   C1553   1.400   .     S
C732   O1608   1.387   .     S
C733   O792    1.271   .     A
C733   C736    1.464   .     S
C733   O794    1.283   .     A
C734   O793    1.286   .     A
C734   O795    1.291   .     A
C735   C745    1.446   .     S
C735   C1568   1.431   1_554 S
C737   H772    1.083   .     S
C738   N784    1.158   .     T
C738   C547    1.452   1_655 S
C739   N785    1.157   .     T
C740   O796    1.412   .     S
C740   C741    1.528   .     S
C740   H777    1.116   .     S
C740   H238    1.114   1_565 S
C741   H779    1.112   .     S
C741   C742    1.526   .     S
C741   H780    1.111   .     S
C742   H783    1.111   .     S
C743   O797    1.388   .     S
C743   C1542   1.400   1_554 S
C743   C1564   1.428   1_554 S
C744   C759    1.453   .     S
C744   N786    1.158   .     T
C745   N787    1.158   .     T
C746   N788    1.158   .     T
C747   O797    1.418   .     S
C747   H762    1.111   .     S
C747   H763    1.114   .     S
C747   C748    1.533   .     S
C748   H765    1.111   .     S
C748   H764    1.111   .     S
C749   H767    1.111   .     S
C749   H768    1.110   .     S
C749   C568    1.526   1_655 S
C749   H586    1.111   1_655 S
C750   H769    1.111   .     S
C750   O798    1.418   .     S
C750   C1561   1.530   1_554 S
C750   H1580   1.117   1_554 S
C751   C752    1.526   .     S
C751   H773    1.109   .     S
C751   C1560   1.530   .     S
C751   H1041   1.112   1_565 S
C752   H774    1.111   .     S
C752   H235    1.111   1_565 S
C752   H1496   1.111   .     S
C753   C760    1.455   .     S
C753   N789    1.157   .     T
C754   C756    1.409   .     A
C754   C1553   1.428   .     S
C754   C1567   1.424   .     S
C755   N790    1.157   .     T
C756   C760    1.414   .     A
C757   C1564   1.424   1_554 S
C757   C1568   1.435   1_554 S
C758   C759    1.428   .     A
C758   C1567   1.435   .     S
C758   C1545   1.431   .     S
C759   C760    1.408   .     A
H770   C1560   1.117   .     S
H771   C1291   1.112   1_554 S
H776   C1382   1.111   1_654 S
H781   C562    1.111   1_655 S
H782   C562    1.110   1_655 S
O791   Zn809   1.939   .     S
O791   Zn807   1.953   .     S
O791   Zn810   1.942   .     S
O791   Zn808   1.930   .     S
O792   Zn808   1.918   .     S
O793   Zn810   1.920   .     S
O794   Zn809   1.914   .     S
O795   Zn807   1.914   .     S
O796   C189    1.387   1_565 S
O798   C1542   1.387   1_554 S
O799   Zn807   1.930   .     S
O800   Zn810   1.935   .     S
O801   Zn808   1.942   .     S
O802   Zn809   1.943   .     S
O803   Zn810   1.936   .     S
O804   Zn807   1.936   .     S
O805   Zn808   1.942   .     S
O806   Zn809   1.936   .     S
C811   O891    1.259   .     A
C811   C817    1.430   .     S
C811   O893    1.267   .     A
C812   C847    1.423   .     A
C812   C826    1.393   .     A
C812   C836    1.451   .     S
C813   C825    1.392   .     A
C813   H851    1.086   .     S
C813   C826    1.391   .     A
C814   C816    1.460   .     S
C814   O894    1.272   .     A
C814   O892    1.283   .     A
C815   C827    1.403   .     A
C815   C846    1.422   .     A
C815   C824    1.479   .     S
C816   C907    1.356   .     S
C816   C935    1.454   .     S
C817   C996    1.356   1_455 S
C817   C1008   1.452   1_455 S
C818   C821    1.458   .     S
C818   C1089   1.350   .     S
C818   C1099   1.454   .     S
C819   C820    1.437   .     S
C819   C1358   1.350   1_545 S
C819   O1426   1.387   1_545 S
C820   O895    1.270   .     A
C820   O889    1.266   .     A
C821   O896    1.277   .     A
C821   O890    1.273   .     A
C822   C827    1.399   .     A
C822   C23     1.400   1_556 S
C822   O78     1.387   1_556 S
C823   O882    1.271   .     A
C823   C826    1.464   .     S
C823   O884    1.283   .     A
C824   O883    1.286   .     A
C824   O885    1.291   .     A
C825   C835    1.446   .     S
C827   H862    1.083   .     S
C828   N874    1.158   .     T
C828   C907    1.452   .     S
C829   N875    1.157   .     T
C829   C1358   1.454   1_545 S
C830   O886    1.412   .     S
C830   C831    1.528   .     S
C830   H867    1.116   .     S
C830   H1138   1.114   .     S
C831   H869    1.112   .     S
C831   C832    1.526   .     S
C831   H870    1.111   .     S
C832   H873    1.111   .     S
C832   H1051   1.111   1_455 S
C832   H1052   1.110   1_455 S
C833   O887    1.388   .     S
C834   C849    1.453   .     S
C834   N876    1.158   .     T
C835   N877    1.158   .     T
C836   N878    1.158   .     T
C837   O887    1.418   .     S
C837   H852    1.111   .     S
C837   H853    1.114   .     S
C837   C838    1.533   .     S
C838   H855    1.111   .     S
C838   H854    1.111   .     S
C838   C1019   1.526   1_455 S
C839   H857    1.111   .     S
C839   H858    1.110   .     S
C839   C928    1.526   .     S
C839   H946    1.111   .     S
C840   H859    1.111   .     S
C840   O888    1.418   .     S
C841   C842    1.526   .     S
C841   H863    1.109   .     S
C841   C30     1.530   1_556 S
C841   H321    1.112   1_556 S
C842   H864    1.111   .     S
C842   H1135   1.111   .     S
C842   H236    1.111   1_456 S
C843   C850    1.455   .     S
C843   N879    1.157   .     T
C844   C846    1.409   .     A
C844   C23     1.428   1_556 S
C844   C37     1.424   1_556 S
C845   N880    1.157   .     T
C845   C996    1.454   1_455 S
C846   C850    1.414   .     A
C848   C849    1.428   .     A
C848   C37     1.435   1_556 S
C848   C15     1.431   1_556 S
C849   C850    1.408   .     A
H856   C1019   1.111   1_455 S
H860   C30     1.117   1_556 S
H861   C571    1.112   1_545 S
H865   C1382   1.111   1_545 S
H868   C1370   1.114   1_545 S
H871   C922    1.111   .     S
H872   C922    1.110   .     S
O881   Zn899   1.939   .     S
O881   Zn897   1.953   .     S
O881   Zn900   1.942   .     S
O881   Zn898   1.930   .     S
O882   Zn898   1.918   .     S
O883   Zn900   1.920   .     S
O884   Zn899   1.914   .     S
O885   Zn897   1.914   .     S
O886   C1089   1.387   .     S
O889   Zn897   1.930   .     S
O890   Zn900   1.935   .     S
O891   Zn898   1.942   .     S
O892   Zn899   1.943   .     S
O893   Zn900   1.936   .     S
O894   Zn897   1.936   .     S
O895   Zn898   1.942   .     S
O896   Zn899   1.936   .     S
C901   O981    1.259   .     A
C901   C907    1.430   .     S
C901   O983    1.267   .     A
C902   C937    1.423   .     A
C902   C916    1.393   .     A
C902   C926    1.451   .     S
C903   C915    1.392   .     A
C903   H941    1.086   .     S
C903   C916    1.391   .     A
C904   C906    1.460   .     S
C904   O984    1.272   .     A
C904   O982    1.283   .     A
C905   C917    1.403   .     A
C905   C936    1.422   .     A
C905   C914    1.479   .     S
C906   C997    1.356   .     S
C906   C1025   1.454   .     S
C908   C911    1.458   .     S
C908   C1179   1.350   .     S
C908   C1189   1.454   .     S
C909   C910    1.437   .     S
C909   C1448   1.350   1_545 S
C909   O1516   1.387   1_545 S
C910   O985    1.270   .     A
C910   O979    1.266   .     A
C911   O986    1.277   .     A
C911   O980    1.273   .     A
C912   C917    1.399   .     A
C912   C113    1.400   1_556 S
C912   O168    1.387   1_556 S
C913   O972    1.271   .     A
C913   C916    1.464   .     S
C913   O974    1.283   .     A
C914   O973    1.286   .     A
C914   O975    1.291   .     A
C915   C925    1.446   .     S
C917   H952    1.083   .     S
C918   N964    1.158   .     T
C918   C997    1.452   .     S
C919   N965    1.157   .     T
C919   C1448   1.454   1_545 S
C920   O976    1.412   .     S
C920   C921    1.528   .     S
C920   H957    1.116   .     S
C920   H1228   1.114   .     S
C921   H959    1.112   .     S
C921   C922    1.526   .     S
C921   H960    1.111   .     S
C922   H963    1.111   .     S
C923   O977    1.388   .     S
C924   C939    1.453   .     S
C924   N966    1.158   .     T
C925   N967    1.158   .     T
C926   N968    1.158   .     T
C927   O977    1.418   .     S
C927   H942    1.111   .     S
C927   H943    1.114   .     S
C927   C928    1.533   .     S
C928   H945    1.111   .     S
C928   H944    1.111   .     S
C929   H947    1.111   .     S
C929   H948    1.110   .     S
C929   C1018   1.526   .     S
C929   H1036   1.111   .     S
C930   H949    1.111   .     S
C930   O978    1.418   .     S
C931   C932    1.526   .     S
C931   H953    1.109   .     S
C931   C120    1.530   1_556 S
C931   H411    1.112   1_556 S
C932   H954    1.111   .     S
C932   H1225   1.111   .     S
C932   H56     1.111   1_556 S
C933   C940    1.455   .     S
C933   N969    1.157   .     T
C934   C936    1.409   .     A
C934   C113    1.428   1_556 S
C934   C127    1.424   1_556 S
C935   N970    1.157   .     T
C936   C940    1.414   .     A
C938   C939    1.428   .     A
C938   C127    1.435   1_556 S
C938   C105    1.431   1_556 S
C939   C940    1.408   .     A
H950   C120    1.117   1_556 S
H951   C661    1.112   1_545 S
H955   C1472   1.111   1_545 S
H958   C1460   1.114   1_545 S
H961   C1012   1.111   .     S
H962   C1012   1.110   .     S
O971   Zn989   1.939   .     S
O971   Zn987   1.953   .     S
O971   Zn990   1.942   .     S
O971   Zn988   1.930   .     S
O972   Zn988   1.918   .     S
O973   Zn990   1.920   .     S
O974   Zn989   1.914   .     S
O975   Zn987   1.914   .     S
O976   C1179   1.387   .     S
O979   Zn987   1.930   .     S
O980   Zn990   1.935   .     S
O981   Zn988   1.942   .     S
O982   Zn989   1.943   .     S
O983   Zn990   1.936   .     S
O984   Zn987   1.936   .     S
O985   Zn988   1.942   .     S
O986   Zn989   1.936   .     S
C991   O1071   1.259   .     A
C991   C997    1.430   .     S
C991   O1073   1.267   .     A
C992   C1027   1.423   .     A
C992   C1006   1.393   .     A
C992   C1016   1.451   .     S
C993   C1005   1.392   .     A
C993   H1031   1.086   .     S
C993   C1006   1.391   .     A
C994   C996    1.460   .     S
C994   O1074   1.272   .     A
C994   O1072   1.283   .     A
C995   C1007   1.403   .     A
C995   C1026   1.422   .     A
C995   C1004   1.479   .     S
C996   C817    1.356   1_655 S
C996   C845    1.454   1_655 S
C998   C1001   1.458   .     S
C998   C1269   1.350   .     S
C998   C1279   1.454   .     S
C999   C1000   1.437   .     S
C999   C1538   1.350   1_545 S
C999   O1606   1.387   1_545 S
C1000  O1075   1.270   .     A
C1000  O1069   1.266   .     A
C1001  O1076   1.277   .     A
C1001  O1070   1.273   .     A
C1002  C1007   1.399   .     A
C1002  C203    1.400   1_556 S
C1002  O258    1.387   1_556 S
C1003  O1062   1.271   .     A
C1003  C1006   1.464   .     S
C1003  O1064   1.283   .     A
C1004  O1063   1.286   .     A
C1004  O1065   1.291   .     A
C1005  C1015   1.446   .     S
C1007  H1042   1.083   .     S
C1008  N1054   1.158   .     T
C1008  C817    1.452   1_655 S
C1009  N1055   1.157   .     T
C1009  C1538   1.454   1_545 S
C1010  O1066   1.412   .     S
C1010  C1011   1.528   .     S
C1010  H1047   1.116   .     S
C1010  H1318   1.114   .     S
C1011  H1049   1.112   .     S
C1011  C1012   1.526   .     S
C1011  H1050   1.111   .     S
C1012  H1053   1.111   .     S
C1013  O1067   1.388   .     S
C1014  C1029   1.453   .     S
C1014  N1056   1.158   .     T
C1015  N1057   1.158   .     T
C1016  N1058   1.158   .     T
C1017  O1067   1.418   .     S
C1017  H1032   1.111   .     S
C1017  H1033   1.114   .     S
C1017  C1018   1.533   .     S
C1018  H1035   1.111   .     S
C1018  H1034   1.111   .     S
C1019  H1037   1.111   .     S
C1019  H1038   1.110   .     S
C1019  C838    1.526   1_655 S
C1019  H856    1.111   1_655 S
C1020  H1039   1.111   .     S
C1020  O1068   1.418   .     S
C1021  C1022   1.526   .     S
C1021  H1043   1.109   .     S
C1021  C210    1.530   1_556 S
C1021  H501    1.112   1_556 S
C1022  H1044   1.111   .     S
C1022  H1315   1.111   .     S
C1022  H146    1.111   1_556 S
C1023  C1030   1.455   .     S
C1023  N1059   1.157   .     T
C1024  C1026   1.409   .     A
C1024  C203    1.428   1_556 S
C1024  C217    1.424   1_556 S
C1025  N1060   1.157   .     T
C1026  C1030   1.414   .     A
C1028  C1029   1.428   .     A
C1028  C217    1.435   1_556 S
C1028  C195    1.431   1_556 S
C1029  C1030   1.408   .     A
H1040  C210    1.117   1_556 S
H1041  C751    1.112   1_545 S
H1045  C1562   1.111   1_545 S
H1046  C32     1.111   1_655 S
H1048  C1550   1.114   1_545 S
H1051  C832    1.111   1_655 S
H1052  C832    1.110   1_655 S
O1061  Zn1079  1.939   .     S
O1061  Zn1077  1.953   .     S
O1061  Zn1080  1.942   .     S
O1061  Zn1078  1.930   .     S
O1062  Zn1078  1.918   .     S
O1063  Zn1080  1.920   .     S
O1064  Zn1079  1.914   .     S
O1065  Zn1077  1.914   .     S
O1066  C1269   1.387   .     S
O1069  Zn1077  1.930   .     S
O1070  Zn1080  1.935   .     S
O1071  Zn1078  1.942   .     S
O1072  Zn1079  1.943   .     S
O1073  Zn1080  1.936   .     S
O1074  Zn1077  1.936   .     S
O1075  Zn1078  1.942   .     S
O1076  Zn1079  1.936   .     S
C1081  O1161   1.259   .     A
C1081  C1087   1.430   .     S
C1081  O1163   1.267   .     A
C1082  C1117   1.423   .     A
C1082  C1096   1.393   .     A
C1082  C1106   1.451   .     S
C1083  C1095   1.392   .     A
C1083  H1121   1.086   .     S
C1083  C1096   1.391   .     A
C1084  C1086   1.460   .     S
C1084  O1164   1.272   .     A
C1084  O1162   1.283   .     A
C1085  C1097   1.403   .     A
C1085  C1116   1.422   .     A
C1085  C1094   1.479   .     S
C1086  C1177   1.356   .     S
C1086  C1205   1.454   .     S
C1087  C1266   1.356   1_455 S
C1087  C1278   1.452   1_455 S
C1088  C1091   1.458   .     S
C1088  C1359   1.350   .     S
C1088  C1369   1.454   .     S
C1089  C1090   1.437   .     S
C1090  O1165   1.270   .     A
C1090  O1159   1.266   .     A
C1091  O1166   1.277   .     A
C1091  O1160   1.273   .     A
C1092  C1097   1.399   .     A
C1092  C293    1.400   1_556 S
C1092  O348    1.387   1_556 S
C1093  O1152   1.271   .     A
C1093  C1096   1.464   .     S
C1093  O1154   1.283   .     A
C1094  O1153   1.286   .     A
C1094  O1155   1.291   .     A
C1095  C1105   1.446   .     S
C1097  H1132   1.083   .     S
C1098  N1144   1.158   .     T
C1098  C1177   1.452   .     S
C1099  N1145   1.157   .     T
C1100  O1156   1.412   .     S
C1100  C1101   1.528   .     S
C1100  H1137   1.116   .     S
C1100  H1408   1.114   .     S
C1101  H1139   1.112   .     S
C1101  C1102   1.526   .     S
C1101  H1140   1.111   .     S
C1102  H1143   1.111   .     S
C1102  H1321   1.111   1_455 S
C1102  H1322   1.110   1_455 S
C1103  O1157   1.388   .     S
C1104  C1119   1.453   .     S
C1104  N1146   1.158   .     T
C1105  N1147   1.158   .     T
C1106  N1148   1.158   .     T
C1107  O1157   1.418   .     S
C1107  H1122   1.111   .     S
C1107  H1123   1.114   .     S
C1107  C1108   1.533   .     S
C1108  H1125   1.111   .     S
C1108  H1124   1.111   .     S
C1108  C1289   1.526   1_455 S
C1109  H1127   1.111   .     S
C1109  H1128   1.110   .     S
C1109  C1198   1.526   .     S
C1109  H1216   1.111   .     S
C1110  H1129   1.111   .     S
C1110  O1158   1.418   .     S
C1111  C1112   1.526   .     S
C1111  H1133   1.109   .     S
C1111  C300    1.530   1_556 S
C1111  H591    1.112   1_556 S
C1112  H1134   1.111   .     S
C1112  H1405   1.111   .     S
C1112  H506    1.111   1_456 S
C1113  C1120   1.455   .     S
C1113  N1149   1.157   .     T
C1114  C1116   1.409   .     A
C1114  C293    1.428   1_556 S
C1114  C307    1.424   1_556 S
C1115  N1150   1.157   .     T
C1115  C1266   1.454   1_455 S
C1116  C1120   1.414   .     A
C1118  C1119   1.428   .     A
C1118  C307    1.435   1_556 S
C1118  C285    1.431   1_556 S
C1119  C1120   1.408   .     A
H1126  C1289   1.111   1_455 S
H1130  C300    1.117   1_556 S
H1141  C1192   1.111   .     S
H1142  C1192   1.110   .     S
O1151  Zn1169  1.939   .     S
O1151  Zn1167  1.953   .     S
O1151  Zn1170  1.942   .     S
O1151  Zn1168  1.930   .     S
O1152  Zn1168  1.918   .     S
O1153  Zn1170  1.920   .     S
O1154  Zn1169  1.914   .     S
O1155  Zn1167  1.914   .     S
O1156  C1359   1.387   .     S
O1159  Zn1167  1.930   .     S
O1160  Zn1170  1.935   .     S
O1161  Zn1168  1.942   .     S
O1162  Zn1169  1.943   .     S
O1163  Zn1170  1.936   .     S
O1164  Zn1167  1.936   .     S
O1165  Zn1168  1.942   .     S
O1166  Zn1169  1.936   .     S
C1171  O1251   1.259   .     A
C1171  C1177   1.430   .     S
C1171  O1253   1.267   .     A
C1172  C1207   1.423   .     A
C1172  C1186   1.393   .     A
C1172  C1196   1.451   .     S
C1173  C1185   1.392   .     A
C1173  H1211   1.086   .     S
C1173  C1186   1.391   .     A
C1174  C1176   1.460   .     S
C1174  O1254   1.272   .     A
C1174  O1252   1.283   .     A
C1175  C1187   1.403   .     A
C1175  C1206   1.422   .     A
C1175  C1184   1.479   .     S
C1176  C1267   1.356   .     S
C1176  C1295   1.454   .     S
C1178  C1181   1.458   .     S
C1178  C1449   1.350   .     S
C1178  C1459   1.454   .     S
C1179  C1180   1.437   .     S
C1180  O1255   1.270   .     A
C1180  O1249   1.266   .     A
C1181  O1256   1.277   .     A
C1181  O1250   1.273   .     A
C1182  C1187   1.399   .     A
C1182  C383    1.400   1_556 S
C1182  O438    1.387   1_556 S
C1183  O1242   1.271   .     A
C1183  C1186   1.464   .     S
C1183  O1244   1.283   .     A
C1184  O1243   1.286   .     A
C1184  O1245   1.291   .     A
C1185  C1195   1.446   .     S
C1187  H1222   1.083   .     S
C1188  N1234   1.158   .     T
C1188  C1267   1.452   .     S
C1189  N1235   1.157   .     T
C1190  O1246   1.412   .     S
C1190  C1191   1.528   .     S
C1190  H1227   1.116   .     S
C1190  H1498   1.114   .     S
C1191  H1229   1.112   .     S
C1191  C1192   1.526   .     S
C1191  H1230   1.111   .     S
C1192  H1233   1.111   .     S
C1193  O1247   1.388   .     S
C1194  C1209   1.453   .     S
C1194  N1236   1.158   .     T
C1195  N1237   1.158   .     T
C1196  N1238   1.158   .     T
C1197  O1247   1.418   .     S
C1197  H1212   1.111   .     S
C1197  H1213   1.114   .     S
C1197  C1198   1.533   .     S
C1198  H1215   1.111   .     S
C1198  H1214   1.111   .     S
C1199  H1217   1.111   .     S
C1199  H1218   1.110   .     S
C1199  C1288   1.526   .     S
C1199  H1306   1.111   .     S
C1200  H1219   1.111   .     S
C1200  O1248   1.418   .     S
C1201  C1202   1.526   .     S
C1201  H1223   1.109   .     S
C1201  C390    1.530   1_556 S
C1201  H681    1.112   1_556 S
C1202  H1224   1.111   .     S
C1202  H1495   1.111   .     S
C1202  H326    1.111   1_556 S
C1203  C1210   1.455   .     S
C1203  N1239   1.157   .     T
C1204  C1206   1.409   .     A
C1204  C383    1.428   1_556 S
C1204  C397    1.424   1_556 S
C1205  N1240   1.157   .     T
C1206  C1210   1.414   .     A
C1208  C1209   1.428   .     A
C1208  C397    1.435   1_556 S
C1208  C375    1.431   1_556 S
C1209  C1210   1.408   .     A
H1220  C390    1.117   1_556 S
H1231  C1282   1.111   .     S
H1232  C1282   1.110   .     S
O1241  Zn1259  1.939   .     S
O1241  Zn1257  1.953   .     S
O1241  Zn1260  1.942   .     S
O1241  Zn1258  1.930   .     S
O1242  Zn1258  1.918   .     S
O1243  Zn1260  1.920   .     S
O1244  Zn1259  1.914   .     S
O1245  Zn1257  1.914   .     S
O1246  C1449   1.387   .     S
O1249  Zn1257  1.930   .     S
O1250  Zn1260  1.935   .     S
O1251  Zn1258  1.942   .     S
O1252  Zn1259  1.943   .     S
O1253  Zn1260  1.936   .     S
O1254  Zn1257  1.936   .     S
O1255  Zn1258  1.942   .     S
O1256  Zn1259  1.936   .     S
C1261  O1341   1.259   .     A
C1261  C1267   1.430   .     S
C1261  O1343   1.267   .     A
C1262  C1297   1.423   .     A
C1262  C1276   1.393   .     A
C1262  C1286   1.451   .     S
C1263  C1275   1.392   .     A
C1263  H1301   1.086   .     S
C1263  C1276   1.391   .     A
C1264  C1266   1.460   .     S
C1264  O1344   1.272   .     A
C1264  O1342   1.283   .     A
C1265  C1277   1.403   .     A
C1265  C1296   1.422   .     A
C1265  C1274   1.479   .     S
C1266  C1087   1.356   1_655 S
C1266  C1115   1.454   1_655 S
C1268  C1271   1.458   .     S
C1268  C1539   1.350   .     S
C1268  C1549   1.454   .     S
C1269  C1270   1.437   .     S
C1270  O1345   1.270   .     A
C1270  O1339   1.266   .     A
C1271  O1346   1.277   .     A
C1271  O1340   1.273   .     A
C1272  C1277   1.399   .     A
C1272  C473    1.400   1_556 S
C1272  O528    1.387   1_556 S
C1273  O1332   1.271   .     A
C1273  C1276   1.464   .     S
C1273  O1334   1.283   .     A
C1274  O1333   1.286   .     A
C1274  O1335   1.291   .     A
C1275  C1285   1.446   .     S
C1277  H1312   1.083   .     S
C1278  N1324   1.158   .     T
C1278  C1087   1.452   1_655 S
C1279  N1325   1.157   .     T
C1280  O1336   1.412   .     S
C1280  C1281   1.528   .     S
C1280  H1317   1.116   .     S
C1280  H1588   1.114   .     S
C1281  H1319   1.112   .     S
C1281  C1282   1.526   .     S
C1281  H1320   1.111   .     S
C1282  H1323   1.111   .     S
C1283  O1337   1.388   .     S
C1284  C1299   1.453   .     S
C1284  N1326   1.158   .     T
C1285  N1327   1.158   .     T
C1286  N1328   1.158   .     T
C1287  O1337   1.418   .     S
C1287  H1302   1.111   .     S
C1287  H1303   1.114   .     S
C1287  C1288   1.533   .     S
C1288  H1305   1.111   .     S
C1288  H1304   1.111   .     S
C1289  H1307   1.111   .     S
C1289  H1308   1.110   .     S
C1289  C1108   1.526   1_655 S
C1289  H1126   1.111   1_655 S
C1290  H1309   1.111   .     S
C1290  O1338   1.418   .     S
C1291  C1292   1.526   .     S
C1291  H1313   1.109   .     S
C1291  C480    1.530   1_556 S
C1291  H771    1.112   1_556 S
C1292  H1314   1.111   .     S
C1292  H1585   1.111   .     S
C1292  H416    1.111   1_556 S
C1293  C1300   1.455   .     S
C1293  N1329   1.157   .     T
C1294  C1296   1.409   .     A
C1294  C473    1.428   1_556 S
C1294  C487    1.424   1_556 S
C1295  N1330   1.157   .     T
C1296  C1300   1.414   .     A
C1298  C1299   1.428   .     A
C1298  C487    1.435   1_556 S
C1298  C465    1.431   1_556 S
C1299  C1300   1.408   .     A
H1310  C480    1.117   1_556 S
H1316  C302    1.111   1_655 S
H1321  C1102   1.111   1_655 S
H1322  C1102   1.110   1_655 S
O1331  Zn1349  1.939   .     S
O1331  Zn1347  1.953   .     S
O1331  Zn1350  1.942   .     S
O1331  Zn1348  1.930   .     S
O1332  Zn1348  1.918   .     S
O1333  Zn1350  1.920   .     S
O1334  Zn1349  1.914   .     S
O1335  Zn1347  1.914   .     S
O1336  C1539   1.387   .     S
O1339  Zn1347  1.930   .     S
O1340  Zn1350  1.935   .     S
O1341  Zn1348  1.942   .     S
O1342  Zn1349  1.943   .     S
O1343  Zn1350  1.936   .     S
O1344  Zn1347  1.936   .     S
O1345  Zn1348  1.942   .     S
O1346  Zn1349  1.936   .     S
C1351  O1431   1.259   .     A
C1351  C1357   1.430   .     S
C1351  O1433   1.267   .     A
C1352  C1387   1.423   .     A
C1352  C1366   1.393   .     A
C1352  C1376   1.451   .     S
C1353  C1365   1.392   .     A
C1353  H1391   1.086   .     S
C1353  C1366   1.391   .     A
C1354  C1356   1.460   .     S
C1354  O1434   1.272   .     A
C1354  O1432   1.283   .     A
C1355  C1367   1.403   .     A
C1355  C1386   1.422   .     A
C1355  C1364   1.479   .     S
C1356  C1447   1.356   .     S
C1356  C1475   1.454   .     S
C1357  C1536   1.356   1_455 S
C1357  C1548   1.452   1_455 S
C1358  C1361   1.458   .     S
C1358  C819    1.350   1_565 S
C1358  C829    1.454   1_565 S
C1359  C1360   1.437   .     S
C1360  O1435   1.270   .     A
C1360  O1429   1.266   .     A
C1361  O1436   1.277   .     A
C1361  O1430   1.273   .     A
C1362  C1367   1.399   .     A
C1362  C563    1.400   1_556 S
C1362  O618    1.387   1_556 S
C1363  O1422   1.271   .     A
C1363  C1366   1.464   .     S
C1363  O1424   1.283   .     A
C1364  O1423   1.286   .     A
C1364  O1425   1.291   .     A
C1365  C1375   1.446   .     S
C1367  H1402   1.083   .     S
C1368  N1414   1.158   .     T
C1368  C1447   1.452   .     S
C1369  N1415   1.157   .     T
C1370  O1426   1.412   .     S
C1370  C1371   1.528   .     S
C1370  H1407   1.116   .     S
C1370  H868    1.114   1_565 S
C1371  H1409   1.112   .     S
C1371  C1372   1.526   .     S
C1371  H1410   1.111   .     S
C1372  H1413   1.111   .     S
C1372  H1591   1.111   1_455 S
C1372  H1592   1.110   1_455 S
C1373  O1427   1.388   .     S
C1374  C1389   1.453   .     S
C1374  N1416   1.158   .     T
C1375  N1417   1.158   .     T
C1376  N1418   1.158   .     T
C1377  O1427   1.418   .     S
C1377  H1392   1.111   .     S
C1377  H1393   1.114   .     S
C1377  C1378   1.533   .     S
C1378  H1395   1.111   .     S
C1378  H1394   1.111   .     S
C1378  C1559   1.526   1_455 S
C1379  H1397   1.111   .     S
C1379  H1398   1.110   .     S
C1379  C1468   1.526   .     S
C1379  H1486   1.111   .     S
C1380  H1399   1.111   .     S
C1380  O1428   1.418   .     S
C1381  C1382   1.526   .     S
C1381  H1403   1.109   .     S
C1381  C570    1.530   1_556 S
C1381  H51     1.112   1_566 S
C1382  H1404   1.111   .     S
C1382  H865    1.111   1_565 S
C1382  H776    1.111   1_456 S
C1383  C1390   1.455   .     S
C1383  N1419   1.157   .     T
C1384  C1386   1.409   .     A
C1384  C563    1.428   1_556 S
C1384  C577    1.424   1_556 S
C1385  N1420   1.157   .     T
C1385  C1536   1.454   1_455 S
C1386  C1390   1.414   .     A
C1388  C1389   1.428   .     A
C1388  C577    1.435   1_556 S
C1388  C555    1.431   1_556 S
C1389  C1390   1.408   .     A
H1396  C1559   1.111   1_455 S
H1400  C570    1.117   1_556 S
H1411  C1462   1.111   .     S
H1412  C1462   1.110   .     S
O1421  Zn1439  1.939   .     S
O1421  Zn1437  1.953   .     S
O1421  Zn1440  1.942   .     S
O1421  Zn1438  1.930   .     S
O1422  Zn1438  1.918   .     S
O1423  Zn1440  1.920   .     S
O1424  Zn1439  1.914   .     S
O1425  Zn1437  1.914   .     S
O1426  C819    1.387   1_565 S
O1429  Zn1437  1.930   .     S
O1430  Zn1440  1.935   .     S
O1431  Zn1438  1.942   .     S
O1432  Zn1439  1.943   .     S
O1433  Zn1440  1.936   .     S
O1434  Zn1437  1.936   .     S
O1435  Zn1438  1.942   .     S
O1436  Zn1439  1.936   .     S
C1441  O1521   1.259   .     A
C1441  C1447   1.430   .     S
C1441  O1523   1.267   .     A
C1442  C1477   1.423   .     A
C1442  C1456   1.393   .     A
C1442  C1466   1.451   .     S
C1443  C1455   1.392   .     A
C1443  H1481   1.086   .     S
C1443  C1456   1.391   .     A
C1444  C1446   1.460   .     S
C1444  O1524   1.272   .     A
C1444  O1522   1.283   .     A
C1445  C1457   1.403   .     A
C1445  C1476   1.422   .     A
C1445  C1454   1.479   .     S
C1446  C1537   1.356   .     S
C1446  C1565   1.454   .     S
C1448  C1451   1.458   .     S
C1448  C909    1.350   1_565 S
C1448  C919    1.454   1_565 S
C1449  C1450   1.437   .     S
C1450  O1525   1.270   .     A
C1450  O1519   1.266   .     A
C1451  O1526   1.277   .     A
C1451  O1520   1.273   .     A
C1452  C1457   1.399   .     A
C1452  C653    1.400   1_556 S
C1452  O708    1.387   1_556 S
C1453  O1512   1.271   .     A
C1453  C1456   1.464   .     S
C1453  O1514   1.283   .     A
C1454  O1513   1.286   .     A
C1454  O1515   1.291   .     A
C1455  C1465   1.446   .     S
C1457  H1492   1.083   .     S
C1458  N1504   1.158   .     T
C1458  C1537   1.452   .     S
C1459  N1505   1.157   .     T
C1460  O1516   1.412   .     S
C1460  C1461   1.528   .     S
C1460  H1497   1.116   .     S
C1460  H958    1.114   1_565 S
C1461  H1499   1.112   .     S
C1461  C1462   1.526   .     S
C1461  H1500   1.111   .     S
C1462  H1503   1.111   .     S
C1463  O1517   1.388   .     S
C1464  C1479   1.453   .     S
C1464  N1506   1.158   .     T
C1465  N1507   1.158   .     T
C1466  N1508   1.158   .     T
C1467  O1517   1.418   .     S
C1467  H1482   1.111   .     S
C1467  H1483   1.114   .     S
C1467  C1468   1.533   .     S
C1468  H1485   1.111   .     S
C1468  H1484   1.111   .     S
C1469  H1487   1.111   .     S
C1469  H1488   1.110   .     S
C1469  C1558   1.526   .     S
C1469  H1576   1.111   .     S
C1470  H1489   1.111   .     S
C1470  O1518   1.418   .     S
C1471  C1472   1.526   .     S
C1471  H1493   1.109   .     S
C1471  C660    1.530   1_556 S
C1471  H141    1.112   1_566 S
C1472  H1494   1.111   .     S
C1472  H955    1.111   1_565 S
C1472  H596    1.111   1_556 S
C1473  C1480   1.455   .     S
C1473  N1509   1.157   .     T
C1474  C1476   1.409   .     A
C1474  C653    1.428   1_556 S
C1474  C667    1.424   1_556 S
C1475  N1510   1.157   .     T
C1476  C1480   1.414   .     A
C1478  C1479   1.428   .     A
C1478  C667    1.435   1_556 S
C1478  C645    1.431   1_556 S
C1479  C1480   1.408   .     A
H1490  C660    1.117   1_556 S
H1501  C1552   1.111   .     S
H1502  C1552   1.110   .     S
O1511  Zn1529  1.939   .     S
O1511  Zn1527  1.953   .     S
O1511  Zn1530  1.942   .     S
O1511  Zn1528  1.930   .     S
O1512  Zn1528  1.918   .     S
O1513  Zn1530  1.920   .     S
O1514  Zn1529  1.914   .     S
O1515  Zn1527  1.914   .     S
O1516  C909    1.387   1_565 S
O1519  Zn1527  1.930   .     S
O1520  Zn1530  1.935   .     S
O1521  Zn1528  1.942   .     S
O1522  Zn1529  1.943   .     S
O1523  Zn1530  1.936   .     S
O1524  Zn1527  1.936   .     S
O1525  Zn1528  1.942   .     S
O1526  Zn1529  1.936   .     S
C1531  O1611   1.259   .     A
C1531  C1537   1.430   .     S
C1531  O1613   1.267   .     A
C1532  C1567   1.423   .     A
C1532  C1546   1.393   .     A
C1532  C1556   1.451   .     S
C1533  C1545   1.392   .     A
C1533  H1571   1.086   .     S
C1533  C1546   1.391   .     A
C1534  C1536   1.460   .     S
C1534  O1614   1.272   .     A
C1534  O1612   1.283   .     A
C1535  C1547   1.403   .     A
C1535  C1566   1.422   .     A
C1535  C1544   1.479   .     S
C1536  C1357   1.356   1_655 S
C1536  C1385   1.454   1_655 S
C1538  C1541   1.458   .     S
C1538  C999    1.350   1_565 S
C1538  C1009   1.454   1_565 S
C1539  C1540   1.437   .     S
C1540  O1615   1.270   .     A
C1540  O1609   1.266   .     A
C1541  O1616   1.277   .     A
C1541  O1610   1.273   .     A
C1542  C1547   1.399   .     A
C1542  C743    1.400   1_556 S
C1542  O798    1.387   1_556 S
C1543  O1602   1.271   .     A
C1543  C1546   1.464   .     S
C1543  O1604   1.283   .     A
C1544  O1603   1.286   .     A
C1544  O1605   1.291   .     A
C1545  C1555   1.446   .     S
C1547  H1582   1.083   .     S
C1548  N1594   1.158   .     T
C1548  C1357   1.452   1_655 S
C1549  N1595   1.157   .     T
C1550  O1606   1.412   .     S
C1550  C1551   1.528   .     S
C1550  H1587   1.116   .     S
C1550  H1048   1.114   1_565 S
C1551  H1589   1.112   .     S
C1551  C1552   1.526   .     S
C1551  H1590   1.111   .     S
C1552  H1593   1.111   .     S
C1553  O1607   1.388   .     S
C1554  C1569   1.453   .     S
C1554  N1596   1.158   .     T
C1555  N1597   1.158   .     T
C1556  N1598   1.158   .     T
C1557  O1607   1.418   .     S
C1557  H1572   1.111   .     S
C1557  H1573   1.114   .     S
C1557  C1558   1.533   .     S
C1558  H1575   1.111   .     S
C1558  H1574   1.111   .     S
C1559  H1577   1.111   .     S
C1559  H1578   1.110   .     S
C1559  C1378   1.526   1_655 S
C1559  H1396   1.111   1_655 S
C1560  H1579   1.111   .     S
C1560  O1608   1.418   .     S
C1561  C1562   1.526   .     S
C1561  H1583   1.109   .     S
C1561  C750    1.530   1_556 S
C1561  H231    1.112   1_566 S
C1562  H1584   1.111   .     S
C1562  H1045   1.111   1_565 S
C1562  H686    1.111   1_556 S
C1563  C1570   1.455   .     S
C1563  N1599   1.157   .     T
C1564  C1566   1.409   .     A
C1564  C743    1.428   1_556 S
C1564  C757    1.424   1_556 S
C1565  N1600   1.157   .     T
C1566  C1570   1.414   .     A
C1568  C1569   1.428   .     A
C1568  C757    1.435   1_556 S
C1568  C735    1.431   1_556 S
C1569  C1570   1.408   .     A
H1580  C750    1.117   1_556 S
H1586  C572    1.111   1_655 S
H1591  C1372   1.111   1_655 S
H1592  C1372   1.110   1_655 S
O1601  Zn1619  1.939   .     S
O1601  Zn1617  1.953   .     S
O1601  Zn1620  1.942   .     S
O1601  Zn1618  1.930   .     S
O1602  Zn1618  1.918   .     S
O1603  Zn1620  1.920   .     S
O1604  Zn1619  1.914   .     S
O1605  Zn1617  1.914   .     S
O1606  C999    1.387   1_565 S
O1609  Zn1617  1.930   .     S
O1610  Zn1620  1.935   .     S
O1611  Zn1618  1.942   .     S
O1612  Zn1619  1.943   .     S
O1613  Zn1620  1.936   .     S
O1614  Zn1617  1.936   .     S
O1615  Zn1618  1.942   .     S
O1616  Zn1619  1.936   .     S
