data_str_m1_o10_o18_pcu_sym.215
_audit_creation_date              2020-01-03
_audit_creation_method            'Materials Studio'
_symmetry_space_group_name_H-M    'P1'
_symmetry_Int_Tables_number       1
_symmetry_cell_setting            triclinic
loop_
_symmetry_equiv_pos_as_xyz
  x,y,z
_cell_length_a                    32.5599
_cell_length_b                    32.5332
_cell_length_c                    35.6964
_cell_angle_alpha                 98.1846
_cell_angle_beta                  73.2095
_cell_angle_gamma                 98.5784
loop_
_atom_site_label
_atom_site_type_symbol
_atom_site_fract_x
_atom_site_fract_y
_atom_site_fract_z
_atom_site_U_iso_or_equiv
_atom_site_adp_type
_atom_site_occupancy
C1     C     0.05249   0.15988   0.25874   0.00000  Uiso   1.00
C2     C     0.19292   0.12415   0.46078   0.00000  Uiso   1.00
C3     C     0.21456   0.10556   0.48088   0.00000  Uiso   1.00
C4     C     0.28104   0.17354   0.24123   0.00000  Uiso   1.00
C5     C     0.20666   0.11425   0.02142   0.00000  Uiso   1.00
C6     C     0.17400   0.13978   0.04281   0.00000  Uiso   1.00
C7     C     0.23191   0.09839   0.04070   0.00000  Uiso   1.00
C8     C     0.22618   0.10877   0.08091   0.00000  Uiso   1.00
C9     C     0.17147   0.15244   0.08271   0.00000  Uiso   1.00
C10    C     0.32699   0.17616   0.23766   0.00000  Uiso   1.00
C11    C     0.00712   0.15742   0.26214   0.00000  Uiso   1.00
C12    C     0.09743   0.21337   0.42109   0.00000  Uiso   1.00
C13    C     0.18090   0.32215   0.23816   0.00000  Uiso   1.00
C14    C     0.15157   0.01206   0.26208   0.00000  Uiso   1.00
C15    C     0.15594   0.05609   0.25888   0.00000  Uiso   1.00
C16    C     0.17685   0.27765   0.24136   0.00000  Uiso   1.00
C17    C     0.18806   0.14528   0.14407   0.00000  Uiso   1.00
C18    C     0.14538   0.18760   0.35621   0.00000  Uiso   1.00
C19    C     0.13295   0.19254   0.39953   0.00000  Uiso   1.00
C20    C     0.19628   0.13615   0.10172   0.00000  Uiso   1.00
C21    C     0.08327   0.21368   0.46185   0.00000  Uiso   1.00
C22    C     0.15487   0.17318   0.41934   0.00000  Uiso   1.00
C23    C     0.14019   0.17167   0.46040   0.00000  Uiso   1.00
C24    C     0.10408   0.19273   0.48158   0.00000  Uiso   1.00
C25    C     0.16058   0.15026   0.48093   0.00000  Uiso   1.00
C26    C     0.14734   0.15402   0.02292   0.00000  Uiso   1.00
C27    C     0.10767   0.17102   0.04271   0.00000  Uiso   1.00
C28    C     0.08772   0.19112   0.02198   0.00000  Uiso   1.00
H29    H     0.05801   0.20437   0.03759   0.00000  Uiso   1.00
H30    H     0.05537   0.22955   0.47790   0.00000  Uiso   1.00
H31    H     0.07995   0.22857   0.40641   0.00000  Uiso   1.00
H32    H     0.18348   0.15964   0.40192   0.00000  Uiso   1.00
H33    H     0.20143   0.11628   0.42937   0.00000  Uiso   1.00
H34    H     0.08934   0.13466   0.08905   0.00000  Uiso   1.00
H35    H     0.08697   0.18784   0.10183   0.00000  Uiso   1.00
H36    H     0.25621   0.07815   0.02462   0.00000  Uiso   1.00
H37    H     0.01664   0.19341   0.21501   0.00000  Uiso   1.00
H38    H     0.31814   0.14013   0.28507   0.00000  Uiso   1.00
H39    H     0.20800   0.00277   0.21616   0.00000  Uiso   1.00
H40    H     0.12407   0.33219   0.28413   0.00000  Uiso   1.00
H41    H     0.15149   0.17596   0.09941   0.00000  Uiso   1.00
H42    H     0.24521   0.09577   0.09573   0.00000  Uiso   1.00
H43    H     0.23897   0.08561   0.46431   0.00000  Uiso   1.00
N44    N     0.08245   0.16226   0.08155   0.00000  Uiso   1.00
O45    O     0.16667   0.16667   0.25000   0.00000  Uiso   1.00
O46    O     0.15693   0.12393   0.16625   0.00000  Uiso   1.00
O47    O     0.12687   0.20646   0.33749   0.00000  Uiso   1.00
O48    O     0.21088   0.17493   0.15877   0.00000  Uiso   1.00
O49    O     0.17198   0.16135   0.33749   0.00000  Uiso   1.00
O50    O     0.17849   0.08101   0.27820   0.00000  Uiso   1.00
O51    O     0.14581   0.26136   0.26767   0.00000  Uiso   1.00
O52    O     0.07452   0.13251   0.23607   0.00000  Uiso   1.00
O53    O     0.26785   0.19179   0.21805   0.00000  Uiso   1.00
O54    O     0.06990   0.18960   0.27820   0.00000  Uiso   1.00
O55    O     0.25440   0.15277   0.26767   0.00000  Uiso   1.00
O56    O     0.13800   0.06903   0.23607   0.00000  Uiso   1.00
O57    O     0.20437   0.25527   0.21805   0.00000  Uiso   1.00
Zn58   Zn    0.19244   0.14090   0.28277   0.00000  Uiso   1.00
Zn59   Zn    0.13459   0.12378   0.22257   0.00000  Uiso   1.00
Zn60   Zn    0.21166   0.19664   0.21188   0.00000  Uiso   1.00
Zn61   Zn    0.12798   0.20535   0.28277   0.00000  Uiso   1.00
C62    C     0.38582   0.15988   0.25874   0.00000  Uiso   1.00
C63    C     0.52626   0.12415   0.46078   0.00000  Uiso   1.00
C64    C     0.54790   0.10556   0.48088   0.00000  Uiso   1.00
C65    C     0.61437   0.17354   0.24123   0.00000  Uiso   1.00
C66    C     0.54000   0.11425   0.02142   0.00000  Uiso   1.00
C67    C     0.50734   0.13978   0.04281   0.00000  Uiso   1.00
C68    C     0.56524   0.09839   0.04070   0.00000  Uiso   1.00
C69    C     0.55951   0.10877   0.08091   0.00000  Uiso   1.00
C70    C     0.50480   0.15244   0.08271   0.00000  Uiso   1.00
C71    C     0.66032   0.17616   0.23766   0.00000  Uiso   1.00
C72    C     0.34046   0.15742   0.26214   0.00000  Uiso   1.00
C73    C     0.43076   0.21337   0.42109   0.00000  Uiso   1.00
C74    C     0.51423   0.32215   0.23816   0.00000  Uiso   1.00
C75    C     0.48490   0.01206   0.26208   0.00000  Uiso   1.00
C76    C     0.48927   0.05609   0.25888   0.00000  Uiso   1.00
C77    C     0.51019   0.27765   0.24136   0.00000  Uiso   1.00
C78    C     0.52139   0.14528   0.14407   0.00000  Uiso   1.00
C79    C     0.47871   0.18760   0.35621   0.00000  Uiso   1.00
C80    C     0.46628   0.19254   0.39953   0.00000  Uiso   1.00
C81    C     0.52962   0.13615   0.10172   0.00000  Uiso   1.00
C82    C     0.41660   0.21368   0.46185   0.00000  Uiso   1.00
C83    C     0.48820   0.17318   0.41934   0.00000  Uiso   1.00
C84    C     0.47352   0.17167   0.46040   0.00000  Uiso   1.00
C85    C     0.43741   0.19273   0.48158   0.00000  Uiso   1.00
C86    C     0.49391   0.15026   0.48093   0.00000  Uiso   1.00
C87    C     0.48067   0.15402   0.02292   0.00000  Uiso   1.00
C88    C     0.44100   0.17102   0.04271   0.00000  Uiso   1.00
C89    C     0.42106   0.19112   0.02198   0.00000  Uiso   1.00
H90    H     0.39134   0.20437   0.03759   0.00000  Uiso   1.00
H91    H     0.38871   0.22955   0.47790   0.00000  Uiso   1.00
H92    H     0.41328   0.22857   0.40641   0.00000  Uiso   1.00
H93    H     0.51682   0.15964   0.40192   0.00000  Uiso   1.00
H94    H     0.53476   0.11628   0.42937   0.00000  Uiso   1.00
H95    H     0.42267   0.13466   0.08905   0.00000  Uiso   1.00
H96    H     0.42030   0.18784   0.10183   0.00000  Uiso   1.00
H97    H     0.58955   0.07815   0.02462   0.00000  Uiso   1.00
H98    H     0.34997   0.19341   0.21501   0.00000  Uiso   1.00
H99    H     0.65147   0.14013   0.28507   0.00000  Uiso   1.00
H100   H     0.54134   0.00277   0.21616   0.00000  Uiso   1.00
H101   H     0.45740   0.33219   0.28413   0.00000  Uiso   1.00
H102   H     0.48483   0.17596   0.09941   0.00000  Uiso   1.00
H103   H     0.57854   0.09577   0.09573   0.00000  Uiso   1.00
H104   H     0.57231   0.08561   0.46431   0.00000  Uiso   1.00
N105   N     0.41578   0.16226   0.08155   0.00000  Uiso   1.00
O106   O     0.50000   0.16667   0.25000   0.00000  Uiso   1.00
O107   O     0.49027   0.12393   0.16625   0.00000  Uiso   1.00
O108   O     0.46020   0.20646   0.33749   0.00000  Uiso   1.00
O109   O     0.54421   0.17493   0.15877   0.00000  Uiso   1.00
O110   O     0.50532   0.16135   0.33749   0.00000  Uiso   1.00
O111   O     0.51182   0.08101   0.27820   0.00000  Uiso   1.00
O112   O     0.47914   0.26136   0.26767   0.00000  Uiso   1.00
O113   O     0.40785   0.13251   0.23607   0.00000  Uiso   1.00
O114   O     0.60119   0.19179   0.21805   0.00000  Uiso   1.00
O115   O     0.40323   0.18960   0.27820   0.00000  Uiso   1.00
O116   O     0.58773   0.15277   0.26767   0.00000  Uiso   1.00
O117   O     0.47133   0.06903   0.23607   0.00000  Uiso   1.00
O118   O     0.53771   0.25527   0.21805   0.00000  Uiso   1.00
Zn119  Zn    0.52577   0.14090   0.28277   0.00000  Uiso   1.00
Zn120  Zn    0.46792   0.12378   0.22257   0.00000  Uiso   1.00
Zn121  Zn    0.54500   0.19664   0.21188   0.00000  Uiso   1.00
Zn122  Zn    0.46131   0.20535   0.28277   0.00000  Uiso   1.00
C123   C     0.71916   0.15988   0.25874   0.00000  Uiso   1.00
C124   C     0.85959   0.12415   0.46078   0.00000  Uiso   1.00
C125   C     0.88123   0.10556   0.48088   0.00000  Uiso   1.00
C126   C     0.94770   0.17354   0.24123   0.00000  Uiso   1.00
C127   C     0.87333   0.11425   0.02142   0.00000  Uiso   1.00
C128   C     0.84067   0.13978   0.04281   0.00000  Uiso   1.00
C129   C     0.89857   0.09839   0.04070   0.00000  Uiso   1.00
C130   C     0.89284   0.10877   0.08091   0.00000  Uiso   1.00
C131   C     0.83813   0.15244   0.08271   0.00000  Uiso   1.00
C132   C     0.99365   0.17616   0.23766   0.00000  Uiso   1.00
C133   C     0.67379   0.15742   0.26214   0.00000  Uiso   1.00
C134   C     0.76409   0.21337   0.42109   0.00000  Uiso   1.00
C135   C     0.84757   0.32215   0.23816   0.00000  Uiso   1.00
C136   C     0.81824   0.01206   0.26208   0.00000  Uiso   1.00
C137   C     0.82260   0.05609   0.25888   0.00000  Uiso   1.00
C138   C     0.84352   0.27765   0.24136   0.00000  Uiso   1.00
C139   C     0.85472   0.14528   0.14407   0.00000  Uiso   1.00
C140   C     0.81204   0.18760   0.35621   0.00000  Uiso   1.00
C141   C     0.79962   0.19254   0.39953   0.00000  Uiso   1.00
C142   C     0.86295   0.13615   0.10172   0.00000  Uiso   1.00
C143   C     0.74993   0.21368   0.46185   0.00000  Uiso   1.00
C144   C     0.82153   0.17318   0.41934   0.00000  Uiso   1.00
C145   C     0.80685   0.17167   0.46040   0.00000  Uiso   1.00
C146   C     0.77074   0.19273   0.48158   0.00000  Uiso   1.00
C147   C     0.82724   0.15026   0.48093   0.00000  Uiso   1.00
C148   C     0.81400   0.15402   0.02292   0.00000  Uiso   1.00
C149   C     0.77433   0.17102   0.04271   0.00000  Uiso   1.00
C150   C     0.75439   0.19112   0.02198   0.00000  Uiso   1.00
H151   H     0.72468   0.20437   0.03759   0.00000  Uiso   1.00
H152   H     0.72204   0.22955   0.47790   0.00000  Uiso   1.00
H153   H     0.74662   0.22857   0.40641   0.00000  Uiso   1.00
H154   H     0.85015   0.15964   0.40192   0.00000  Uiso   1.00
H155   H     0.86810   0.11628   0.42937   0.00000  Uiso   1.00
H156   H     0.75601   0.13466   0.08905   0.00000  Uiso   1.00
H157   H     0.75364   0.18784   0.10183   0.00000  Uiso   1.00
H158   H     0.92288   0.07815   0.02462   0.00000  Uiso   1.00
H159   H     0.68331   0.19341   0.21501   0.00000  Uiso   1.00
H160   H     0.98481   0.14013   0.28507   0.00000  Uiso   1.00
H161   H     0.87467   0.00277   0.21616   0.00000  Uiso   1.00
H162   H     0.79073   0.33219   0.28413   0.00000  Uiso   1.00
H163   H     0.81816   0.17596   0.09941   0.00000  Uiso   1.00
H164   H     0.91187   0.09577   0.09573   0.00000  Uiso   1.00
H165   H     0.90564   0.08561   0.46431   0.00000  Uiso   1.00
N166   N     0.74912   0.16226   0.08155   0.00000  Uiso   1.00
O167   O     0.83333   0.16667   0.25000   0.00000  Uiso   1.00
O168   O     0.82360   0.12393   0.16625   0.00000  Uiso   1.00
O169   O     0.79354   0.20646   0.33749   0.00000  Uiso   1.00
O170   O     0.87755   0.17493   0.15877   0.00000  Uiso   1.00
O171   O     0.83865   0.16135   0.33749   0.00000  Uiso   1.00
O172   O     0.84515   0.08101   0.27820   0.00000  Uiso   1.00
O173   O     0.81247   0.26136   0.26767   0.00000  Uiso   1.00
O174   O     0.74119   0.13251   0.23607   0.00000  Uiso   1.00
O175   O     0.93452   0.19179   0.21805   0.00000  Uiso   1.00
O176   O     0.73656   0.18960   0.27820   0.00000  Uiso   1.00
O177   O     0.92106   0.15277   0.26767   0.00000  Uiso   1.00
O178   O     0.80467   0.06903   0.23607   0.00000  Uiso   1.00
O179   O     0.87104   0.25527   0.21805   0.00000  Uiso   1.00
Zn180  Zn    0.85910   0.14090   0.28277   0.00000  Uiso   1.00
Zn181  Zn    0.80125   0.12378   0.22257   0.00000  Uiso   1.00
Zn182  Zn    0.87833   0.19664   0.21188   0.00000  Uiso   1.00
Zn183  Zn    0.79465   0.20535   0.28277   0.00000  Uiso   1.00
C184   C     0.05249   0.49321   0.25874   0.00000  Uiso   1.00
C185   C     0.19292   0.45748   0.46078   0.00000  Uiso   1.00
C186   C     0.21456   0.43890   0.48088   0.00000  Uiso   1.00
C187   C     0.28104   0.50687   0.24123   0.00000  Uiso   1.00
C188   C     0.20666   0.44758   0.02142   0.00000  Uiso   1.00
C189   C     0.17400   0.47311   0.04281   0.00000  Uiso   1.00
C190   C     0.23191   0.43172   0.04070   0.00000  Uiso   1.00
C191   C     0.22618   0.44210   0.08091   0.00000  Uiso   1.00
C192   C     0.17147   0.48578   0.08271   0.00000  Uiso   1.00
C193   C     0.32699   0.50950   0.23766   0.00000  Uiso   1.00
C194   C     0.00712   0.49075   0.26214   0.00000  Uiso   1.00
C195   C     0.09743   0.54671   0.42109   0.00000  Uiso   1.00
C196   C     0.18090   0.65548   0.23816   0.00000  Uiso   1.00
C197   C     0.15157   0.34539   0.26208   0.00000  Uiso   1.00
C198   C     0.15594   0.38942   0.25888   0.00000  Uiso   1.00
C199   C     0.17685   0.61099   0.24136   0.00000  Uiso   1.00
C200   C     0.18806   0.47861   0.14407   0.00000  Uiso   1.00
C201   C     0.14538   0.52093   0.35621   0.00000  Uiso   1.00
C202   C     0.13295   0.52587   0.39953   0.00000  Uiso   1.00
C203   C     0.19628   0.46948   0.10172   0.00000  Uiso   1.00
C204   C     0.08327   0.54701   0.46185   0.00000  Uiso   1.00
C205   C     0.15487   0.50651   0.41934   0.00000  Uiso   1.00
C206   C     0.14019   0.50501   0.46040   0.00000  Uiso   1.00
C207   C     0.10408   0.52606   0.48158   0.00000  Uiso   1.00
C208   C     0.16058   0.48359   0.48093   0.00000  Uiso   1.00
C209   C     0.14734   0.48735   0.02292   0.00000  Uiso   1.00
C210   C     0.10767   0.50435   0.04271   0.00000  Uiso   1.00
C211   C     0.08772   0.52445   0.02198   0.00000  Uiso   1.00
H212   H     0.05801   0.53770   0.03759   0.00000  Uiso   1.00
H213   H     0.05537   0.56288   0.47790   0.00000  Uiso   1.00
H214   H     0.07995   0.56190   0.40641   0.00000  Uiso   1.00
H215   H     0.18348   0.49297   0.40192   0.00000  Uiso   1.00
H216   H     0.20143   0.44961   0.42937   0.00000  Uiso   1.00
H217   H     0.08934   0.46799   0.08905   0.00000  Uiso   1.00
H218   H     0.08697   0.52117   0.10183   0.00000  Uiso   1.00
H219   H     0.25621   0.41148   0.02462   0.00000  Uiso   1.00
H220   H     0.01664   0.52674   0.21501   0.00000  Uiso   1.00
H221   H     0.31814   0.47346   0.28507   0.00000  Uiso   1.00
H222   H     0.20800   0.33611   0.21616   0.00000  Uiso   1.00
H223   H     0.12407   0.66552   0.28413   0.00000  Uiso   1.00
H224   H     0.15149   0.50929   0.09941   0.00000  Uiso   1.00
H225   H     0.24521   0.42910   0.09573   0.00000  Uiso   1.00
H226   H     0.23897   0.41895   0.46431   0.00000  Uiso   1.00
N227   N     0.08245   0.49559   0.08155   0.00000  Uiso   1.00
O228   O     0.16667   0.50000   0.25000   0.00000  Uiso   1.00
O229   O     0.15693   0.45726   0.16625   0.00000  Uiso   1.00
O230   O     0.12687   0.53979   0.33749   0.00000  Uiso   1.00
O231   O     0.21088   0.50826   0.15877   0.00000  Uiso   1.00
O232   O     0.17198   0.49468   0.33749   0.00000  Uiso   1.00
O233   O     0.17849   0.41434   0.27820   0.00000  Uiso   1.00
O234   O     0.14581   0.59469   0.26767   0.00000  Uiso   1.00
O235   O     0.07452   0.46584   0.23607   0.00000  Uiso   1.00
O236   O     0.26785   0.52512   0.21805   0.00000  Uiso   1.00
O237   O     0.06990   0.52293   0.27820   0.00000  Uiso   1.00
O238   O     0.25440   0.48610   0.26767   0.00000  Uiso   1.00
O239   O     0.13800   0.40236   0.23607   0.00000  Uiso   1.00
O240   O     0.20437   0.58860   0.21805   0.00000  Uiso   1.00
Zn241  Zn    0.19244   0.47423   0.28277   0.00000  Uiso   1.00
Zn242  Zn    0.13459   0.45711   0.22257   0.00000  Uiso   1.00
Zn243  Zn    0.21166   0.52997   0.21188   0.00000  Uiso   1.00
Zn244  Zn    0.12798   0.53868   0.28277   0.00000  Uiso   1.00
C245   C     0.38582   0.49321   0.25874   0.00000  Uiso   1.00
C246   C     0.52626   0.45748   0.46078   0.00000  Uiso   1.00
C247   C     0.54790   0.43890   0.48088   0.00000  Uiso   1.00
C248   C     0.61437   0.50687   0.24123   0.00000  Uiso   1.00
C249   C     0.54000   0.44758   0.02142   0.00000  Uiso   1.00
C250   C     0.50734   0.47311   0.04281   0.00000  Uiso   1.00
C251   C     0.56524   0.43172   0.04070   0.00000  Uiso   1.00
C252   C     0.55951   0.44210   0.08091   0.00000  Uiso   1.00
C253   C     0.50480   0.48578   0.08271   0.00000  Uiso   1.00
C254   C     0.66032   0.50950   0.23766   0.00000  Uiso   1.00
C255   C     0.34046   0.49075   0.26214   0.00000  Uiso   1.00
C256   C     0.43076   0.54671   0.42109   0.00000  Uiso   1.00
C257   C     0.51423   0.65548   0.23816   0.00000  Uiso   1.00
C258   C     0.48490   0.34539   0.26208   0.00000  Uiso   1.00
C259   C     0.48927   0.38942   0.25888   0.00000  Uiso   1.00
C260   C     0.51019   0.61099   0.24136   0.00000  Uiso   1.00
C261   C     0.52139   0.47861   0.14407   0.00000  Uiso   1.00
C262   C     0.47871   0.52093   0.35621   0.00000  Uiso   1.00
C263   C     0.46628   0.52587   0.39953   0.00000  Uiso   1.00
C264   C     0.52962   0.46948   0.10172   0.00000  Uiso   1.00
C265   C     0.41660   0.54701   0.46185   0.00000  Uiso   1.00
C266   C     0.48820   0.50651   0.41934   0.00000  Uiso   1.00
C267   C     0.47352   0.50501   0.46040   0.00000  Uiso   1.00
C268   C     0.43741   0.52606   0.48158   0.00000  Uiso   1.00
C269   C     0.49391   0.48359   0.48093   0.00000  Uiso   1.00
C270   C     0.48067   0.48735   0.02292   0.00000  Uiso   1.00
C271   C     0.44100   0.50435   0.04271   0.00000  Uiso   1.00
C272   C     0.42106   0.52445   0.02198   0.00000  Uiso   1.00
H273   H     0.39134   0.53770   0.03759   0.00000  Uiso   1.00
H274   H     0.38871   0.56288   0.47790   0.00000  Uiso   1.00
H275   H     0.41328   0.56190   0.40641   0.00000  Uiso   1.00
H276   H     0.51682   0.49297   0.40192   0.00000  Uiso   1.00
H277   H     0.53476   0.44961   0.42937   0.00000  Uiso   1.00
H278   H     0.42267   0.46799   0.08905   0.00000  Uiso   1.00
H279   H     0.42030   0.52117   0.10183   0.00000  Uiso   1.00
H280   H     0.58955   0.41148   0.02462   0.00000  Uiso   1.00
H281   H     0.34997   0.52674   0.21501   0.00000  Uiso   1.00
H282   H     0.65147   0.47346   0.28507   0.00000  Uiso   1.00
H283   H     0.54134   0.33611   0.21616   0.00000  Uiso   1.00
H284   H     0.45740   0.66552   0.28413   0.00000  Uiso   1.00
H285   H     0.48483   0.50929   0.09941   0.00000  Uiso   1.00
H286   H     0.57854   0.42910   0.09573   0.00000  Uiso   1.00
H287   H     0.57231   0.41895   0.46431   0.00000  Uiso   1.00
N288   N     0.41578   0.49559   0.08155   0.00000  Uiso   1.00
O289   O     0.50000   0.50000   0.25000   0.00000  Uiso   1.00
O290   O     0.49027   0.45726   0.16625   0.00000  Uiso   1.00
O291   O     0.46020   0.53979   0.33749   0.00000  Uiso   1.00
O292   O     0.54421   0.50826   0.15877   0.00000  Uiso   1.00
O293   O     0.50532   0.49468   0.33749   0.00000  Uiso   1.00
O294   O     0.51182   0.41434   0.27820   0.00000  Uiso   1.00
O295   O     0.47914   0.59469   0.26767   0.00000  Uiso   1.00
O296   O     0.40785   0.46584   0.23607   0.00000  Uiso   1.00
O297   O     0.60119   0.52512   0.21805   0.00000  Uiso   1.00
O298   O     0.40323   0.52293   0.27820   0.00000  Uiso   1.00
O299   O     0.58773   0.48610   0.26767   0.00000  Uiso   1.00
O300   O     0.47133   0.40236   0.23607   0.00000  Uiso   1.00
O301   O     0.53771   0.58860   0.21805   0.00000  Uiso   1.00
Zn302  Zn    0.52577   0.47423   0.28277   0.00000  Uiso   1.00
Zn303  Zn    0.46792   0.45711   0.22257   0.00000  Uiso   1.00
Zn304  Zn    0.54500   0.52997   0.21188   0.00000  Uiso   1.00
Zn305  Zn    0.46131   0.53868   0.28277   0.00000  Uiso   1.00
C306   C     0.71916   0.49321   0.25874   0.00000  Uiso   1.00
C307   C     0.85959   0.45748   0.46078   0.00000  Uiso   1.00
C308   C     0.88123   0.43890   0.48088   0.00000  Uiso   1.00
C309   C     0.94770   0.50687   0.24123   0.00000  Uiso   1.00
C310   C     0.87333   0.44758   0.02142   0.00000  Uiso   1.00
C311   C     0.84067   0.47311   0.04281   0.00000  Uiso   1.00
C312   C     0.89857   0.43172   0.04070   0.00000  Uiso   1.00
C313   C     0.89284   0.44210   0.08091   0.00000  Uiso   1.00
C314   C     0.83813   0.48578   0.08271   0.00000  Uiso   1.00
C315   C     0.99365   0.50950   0.23766   0.00000  Uiso   1.00
C316   C     0.67379   0.49075   0.26214   0.00000  Uiso   1.00
C317   C     0.76409   0.54671   0.42109   0.00000  Uiso   1.00
C318   C     0.84757   0.65548   0.23816   0.00000  Uiso   1.00
C319   C     0.81824   0.34539   0.26208   0.00000  Uiso   1.00
C320   C     0.82260   0.38942   0.25888   0.00000  Uiso   1.00
C321   C     0.84352   0.61099   0.24136   0.00000  Uiso   1.00
C322   C     0.85472   0.47861   0.14407   0.00000  Uiso   1.00
C323   C     0.81204   0.52093   0.35621   0.00000  Uiso   1.00
C324   C     0.79962   0.52587   0.39953   0.00000  Uiso   1.00
C325   C     0.86295   0.46948   0.10172   0.00000  Uiso   1.00
C326   C     0.74993   0.54701   0.46185   0.00000  Uiso   1.00
C327   C     0.82153   0.50651   0.41934   0.00000  Uiso   1.00
C328   C     0.80685   0.50501   0.46040   0.00000  Uiso   1.00
C329   C     0.77074   0.52606   0.48158   0.00000  Uiso   1.00
C330   C     0.82724   0.48359   0.48093   0.00000  Uiso   1.00
C331   C     0.81400   0.48735   0.02292   0.00000  Uiso   1.00
C332   C     0.77433   0.50435   0.04271   0.00000  Uiso   1.00
C333   C     0.75439   0.52445   0.02198   0.00000  Uiso   1.00
H334   H     0.72468   0.53770   0.03759   0.00000  Uiso   1.00
H335   H     0.72204   0.56288   0.47790   0.00000  Uiso   1.00
H336   H     0.74662   0.56190   0.40641   0.00000  Uiso   1.00
H337   H     0.85015   0.49297   0.40192   0.00000  Uiso   1.00
H338   H     0.86810   0.44961   0.42937   0.00000  Uiso   1.00
H339   H     0.75601   0.46799   0.08905   0.00000  Uiso   1.00
H340   H     0.75364   0.52117   0.10183   0.00000  Uiso   1.00
H341   H     0.92288   0.41148   0.02462   0.00000  Uiso   1.00
H342   H     0.68331   0.52674   0.21501   0.00000  Uiso   1.00
H343   H     0.98481   0.47346   0.28507   0.00000  Uiso   1.00
H344   H     0.87467   0.33611   0.21616   0.00000  Uiso   1.00
H345   H     0.79073   0.66552   0.28413   0.00000  Uiso   1.00
H346   H     0.81816   0.50929   0.09941   0.00000  Uiso   1.00
H347   H     0.91187   0.42910   0.09573   0.00000  Uiso   1.00
H348   H     0.90564   0.41895   0.46431   0.00000  Uiso   1.00
N349   N     0.74912   0.49559   0.08155   0.00000  Uiso   1.00
O350   O     0.83333   0.50000   0.25000   0.00000  Uiso   1.00
O351   O     0.82360   0.45726   0.16625   0.00000  Uiso   1.00
O352   O     0.79354   0.53979   0.33749   0.00000  Uiso   1.00
O353   O     0.87755   0.50826   0.15877   0.00000  Uiso   1.00
O354   O     0.83865   0.49468   0.33749   0.00000  Uiso   1.00
O355   O     0.84515   0.41434   0.27820   0.00000  Uiso   1.00
O356   O     0.81247   0.59469   0.26767   0.00000  Uiso   1.00
O357   O     0.74119   0.46584   0.23607   0.00000  Uiso   1.00
O358   O     0.93452   0.52512   0.21805   0.00000  Uiso   1.00
O359   O     0.73656   0.52293   0.27820   0.00000  Uiso   1.00
O360   O     0.92106   0.48610   0.26767   0.00000  Uiso   1.00
O361   O     0.80467   0.40236   0.23607   0.00000  Uiso   1.00
O362   O     0.87104   0.58860   0.21805   0.00000  Uiso   1.00
Zn363  Zn    0.85910   0.47423   0.28277   0.00000  Uiso   1.00
Zn364  Zn    0.80125   0.45711   0.22257   0.00000  Uiso   1.00
Zn365  Zn    0.87833   0.52997   0.21188   0.00000  Uiso   1.00
Zn366  Zn    0.79465   0.53868   0.28277   0.00000  Uiso   1.00
C367   C     0.05249   0.82654   0.25874   0.00000  Uiso   1.00
C368   C     0.19292   0.79082   0.46078   0.00000  Uiso   1.00
C369   C     0.21456   0.77223   0.48088   0.00000  Uiso   1.00
C370   C     0.28104   0.84021   0.24123   0.00000  Uiso   1.00
C371   C     0.20666   0.78092   0.02142   0.00000  Uiso   1.00
C372   C     0.17400   0.80645   0.04281   0.00000  Uiso   1.00
C373   C     0.23191   0.76505   0.04070   0.00000  Uiso   1.00
C374   C     0.22618   0.77544   0.08091   0.00000  Uiso   1.00
C375   C     0.17147   0.81911   0.08271   0.00000  Uiso   1.00
C376   C     0.32699   0.84283   0.23766   0.00000  Uiso   1.00
C377   C     0.00712   0.82408   0.26214   0.00000  Uiso   1.00
C378   C     0.09743   0.88004   0.42109   0.00000  Uiso   1.00
C379   C     0.18090   0.98881   0.23816   0.00000  Uiso   1.00
C380   C     0.15157   0.67873   0.26208   0.00000  Uiso   1.00
C381   C     0.15594   0.72276   0.25888   0.00000  Uiso   1.00
C382   C     0.17685   0.94432   0.24136   0.00000  Uiso   1.00
C383   C     0.18806   0.81194   0.14407   0.00000  Uiso   1.00
C384   C     0.14538   0.85426   0.35621   0.00000  Uiso   1.00
C385   C     0.13295   0.85921   0.39953   0.00000  Uiso   1.00
C386   C     0.19628   0.80282   0.10172   0.00000  Uiso   1.00
C387   C     0.08327   0.88034   0.46185   0.00000  Uiso   1.00
C388   C     0.15487   0.83984   0.41934   0.00000  Uiso   1.00
C389   C     0.14019   0.83834   0.46040   0.00000  Uiso   1.00
C390   C     0.10408   0.85939   0.48158   0.00000  Uiso   1.00
C391   C     0.16058   0.81693   0.48093   0.00000  Uiso   1.00
C392   C     0.14734   0.82068   0.02292   0.00000  Uiso   1.00
C393   C     0.10767   0.83768   0.04271   0.00000  Uiso   1.00
C394   C     0.08772   0.85779   0.02198   0.00000  Uiso   1.00
H395   H     0.05801   0.87104   0.03759   0.00000  Uiso   1.00
H396   H     0.05537   0.89622   0.47790   0.00000  Uiso   1.00
H397   H     0.07995   0.89524   0.40641   0.00000  Uiso   1.00
H398   H     0.18348   0.82631   0.40192   0.00000  Uiso   1.00
H399   H     0.20143   0.78294   0.42937   0.00000  Uiso   1.00
H400   H     0.08934   0.80133   0.08905   0.00000  Uiso   1.00
H401   H     0.08697   0.85450   0.10183   0.00000  Uiso   1.00
H402   H     0.25621   0.74481   0.02462   0.00000  Uiso   1.00
H403   H     0.01664   0.86007   0.21501   0.00000  Uiso   1.00
H404   H     0.31814   0.80680   0.28507   0.00000  Uiso   1.00
H405   H     0.20800   0.66944   0.21616   0.00000  Uiso   1.00
H406   H     0.12407   0.99886   0.28413   0.00000  Uiso   1.00
H407   H     0.15149   0.84262   0.09941   0.00000  Uiso   1.00
H408   H     0.24521   0.76244   0.09573   0.00000  Uiso   1.00
H409   H     0.23897   0.75228   0.46431   0.00000  Uiso   1.00
N410   N     0.08245   0.82893   0.08155   0.00000  Uiso   1.00
O411   O     0.16667   0.83333   0.25000   0.00000  Uiso   1.00
O412   O     0.15693   0.79060   0.16625   0.00000  Uiso   1.00
O413   O     0.12687   0.87313   0.33749   0.00000  Uiso   1.00
O414   O     0.21088   0.84159   0.15877   0.00000  Uiso   1.00
O415   O     0.17198   0.82802   0.33749   0.00000  Uiso   1.00
O416   O     0.17849   0.74768   0.27820   0.00000  Uiso   1.00
O417   O     0.14581   0.92803   0.26767   0.00000  Uiso   1.00
O418   O     0.07452   0.79917   0.23607   0.00000  Uiso   1.00
O419   O     0.26785   0.85845   0.21805   0.00000  Uiso   1.00
O420   O     0.06990   0.85627   0.27820   0.00000  Uiso   1.00
O421   O     0.25440   0.81944   0.26767   0.00000  Uiso   1.00
O422   O     0.13800   0.73570   0.23607   0.00000  Uiso   1.00
O423   O     0.20437   0.92193   0.21805   0.00000  Uiso   1.00
Zn424  Zn    0.19244   0.80756   0.28277   0.00000  Uiso   1.00
Zn425  Zn    0.13459   0.79044   0.22257   0.00000  Uiso   1.00
Zn426  Zn    0.21166   0.86331   0.21188   0.00000  Uiso   1.00
Zn427  Zn    0.12798   0.87202   0.28277   0.00000  Uiso   1.00
C428   C     0.38582   0.82654   0.25874   0.00000  Uiso   1.00
C429   C     0.52626   0.79082   0.46078   0.00000  Uiso   1.00
C430   C     0.54790   0.77223   0.48088   0.00000  Uiso   1.00
C431   C     0.61437   0.84021   0.24123   0.00000  Uiso   1.00
C432   C     0.54000   0.78092   0.02142   0.00000  Uiso   1.00
C433   C     0.50734   0.80645   0.04281   0.00000  Uiso   1.00
C434   C     0.56524   0.76505   0.04070   0.00000  Uiso   1.00
C435   C     0.55951   0.77544   0.08091   0.00000  Uiso   1.00
C436   C     0.50480   0.81911   0.08271   0.00000  Uiso   1.00
C437   C     0.66032   0.84283   0.23766   0.00000  Uiso   1.00
C438   C     0.34046   0.82408   0.26214   0.00000  Uiso   1.00
C439   C     0.43076   0.88004   0.42109   0.00000  Uiso   1.00
C440   C     0.51423   0.98881   0.23816   0.00000  Uiso   1.00
C441   C     0.48490   0.67873   0.26208   0.00000  Uiso   1.00
C442   C     0.48927   0.72276   0.25888   0.00000  Uiso   1.00
C443   C     0.51019   0.94432   0.24136   0.00000  Uiso   1.00
C444   C     0.52139   0.81194   0.14407   0.00000  Uiso   1.00
C445   C     0.47871   0.85426   0.35621   0.00000  Uiso   1.00
C446   C     0.46628   0.85921   0.39953   0.00000  Uiso   1.00
C447   C     0.52962   0.80282   0.10172   0.00000  Uiso   1.00
C448   C     0.41660   0.88034   0.46185   0.00000  Uiso   1.00
C449   C     0.48820   0.83984   0.41934   0.00000  Uiso   1.00
C450   C     0.47352   0.83834   0.46040   0.00000  Uiso   1.00
C451   C     0.43741   0.85939   0.48158   0.00000  Uiso   1.00
C452   C     0.49391   0.81693   0.48093   0.00000  Uiso   1.00
C453   C     0.48067   0.82068   0.02292   0.00000  Uiso   1.00
C454   C     0.44100   0.83768   0.04271   0.00000  Uiso   1.00
C455   C     0.42106   0.85779   0.02198   0.00000  Uiso   1.00
H456   H     0.39134   0.87104   0.03759   0.00000  Uiso   1.00
H457   H     0.38871   0.89622   0.47790   0.00000  Uiso   1.00
H458   H     0.41328   0.89524   0.40641   0.00000  Uiso   1.00
H459   H     0.51682   0.82631   0.40192   0.00000  Uiso   1.00
H460   H     0.53476   0.78294   0.42937   0.00000  Uiso   1.00
H461   H     0.42267   0.80133   0.08905   0.00000  Uiso   1.00
H462   H     0.42030   0.85450   0.10183   0.00000  Uiso   1.00
H463   H     0.58955   0.74481   0.02462   0.00000  Uiso   1.00
H464   H     0.34997   0.86007   0.21501   0.00000  Uiso   1.00
H465   H     0.65147   0.80680   0.28507   0.00000  Uiso   1.00
H466   H     0.54134   0.66944   0.21616   0.00000  Uiso   1.00
H467   H     0.45740   0.99886   0.28413   0.00000  Uiso   1.00
H468   H     0.48483   0.84262   0.09941   0.00000  Uiso   1.00
H469   H     0.57854   0.76244   0.09573   0.00000  Uiso   1.00
H470   H     0.57231   0.75228   0.46431   0.00000  Uiso   1.00
N471   N     0.41578   0.82893   0.08155   0.00000  Uiso   1.00
O472   O     0.50000   0.83333   0.25000   0.00000  Uiso   1.00
O473   O     0.49027   0.79060   0.16625   0.00000  Uiso   1.00
O474   O     0.46020   0.87313   0.33749   0.00000  Uiso   1.00
O475   O     0.54421   0.84159   0.15877   0.00000  Uiso   1.00
O476   O     0.50532   0.82802   0.33749   0.00000  Uiso   1.00
O477   O     0.51182   0.74768   0.27820   0.00000  Uiso   1.00
O478   O     0.47914   0.92803   0.26767   0.00000  Uiso   1.00
O479   O     0.40785   0.79917   0.23607   0.00000  Uiso   1.00
O480   O     0.60119   0.85845   0.21805   0.00000  Uiso   1.00
O481   O     0.40323   0.85627   0.27820   0.00000  Uiso   1.00
O482   O     0.58773   0.81944   0.26767   0.00000  Uiso   1.00
O483   O     0.47133   0.73570   0.23607   0.00000  Uiso   1.00
O484   O     0.53771   0.92193   0.21805   0.00000  Uiso   1.00
Zn485  Zn    0.52577   0.80756   0.28277   0.00000  Uiso   1.00
Zn486  Zn    0.46792   0.79044   0.22257   0.00000  Uiso   1.00
Zn487  Zn    0.54500   0.86331   0.21188   0.00000  Uiso   1.00
Zn488  Zn    0.46131   0.87202   0.28277   0.00000  Uiso   1.00
C489   C     0.71916   0.82654   0.25874   0.00000  Uiso   1.00
C490   C     0.85959   0.79082   0.46078   0.00000  Uiso   1.00
C491   C     0.88123   0.77223   0.48088   0.00000  Uiso   1.00
C492   C     0.94770   0.84021   0.24123   0.00000  Uiso   1.00
C493   C     0.87333   0.78092   0.02142   0.00000  Uiso   1.00
C494   C     0.84067   0.80645   0.04281   0.00000  Uiso   1.00
C495   C     0.89857   0.76505   0.04070   0.00000  Uiso   1.00
C496   C     0.89284   0.77544   0.08091   0.00000  Uiso   1.00
C497   C     0.83813   0.81911   0.08271   0.00000  Uiso   1.00
C498   C     0.99365   0.84283   0.23766   0.00000  Uiso   1.00
C499   C     0.67379   0.82408   0.26214   0.00000  Uiso   1.00
C500   C     0.76409   0.88004   0.42109   0.00000  Uiso   1.00
C501   C     0.84757   0.98881   0.23816   0.00000  Uiso   1.00
C502   C     0.81824   0.67873   0.26208   0.00000  Uiso   1.00
C503   C     0.82260   0.72276   0.25888   0.00000  Uiso   1.00
C504   C     0.84352   0.94432   0.24136   0.00000  Uiso   1.00
C505   C     0.85472   0.81194   0.14407   0.00000  Uiso   1.00
C506   C     0.81204   0.85426   0.35621   0.00000  Uiso   1.00
C507   C     0.79962   0.85921   0.39953   0.00000  Uiso   1.00
C508   C     0.86295   0.80282   0.10172   0.00000  Uiso   1.00
C509   C     0.74993   0.88034   0.46185   0.00000  Uiso   1.00
C510   C     0.82153   0.83984   0.41934   0.00000  Uiso   1.00
C511   C     0.80685   0.83834   0.46040   0.00000  Uiso   1.00
C512   C     0.77074   0.85939   0.48158   0.00000  Uiso   1.00
C513   C     0.82724   0.81693   0.48093   0.00000  Uiso   1.00
C514   C     0.81400   0.82068   0.02292   0.00000  Uiso   1.00
C515   C     0.77433   0.83768   0.04271   0.00000  Uiso   1.00
C516   C     0.75439   0.85779   0.02198   0.00000  Uiso   1.00
H517   H     0.72468   0.87104   0.03759   0.00000  Uiso   1.00
H518   H     0.72204   0.89622   0.47790   0.00000  Uiso   1.00
H519   H     0.74662   0.89524   0.40641   0.00000  Uiso   1.00
H520   H     0.85015   0.82631   0.40192   0.00000  Uiso   1.00
H521   H     0.86810   0.78294   0.42937   0.00000  Uiso   1.00
H522   H     0.75601   0.80133   0.08905   0.00000  Uiso   1.00
H523   H     0.75364   0.85450   0.10183   0.00000  Uiso   1.00
H524   H     0.92288   0.74481   0.02462   0.00000  Uiso   1.00
H525   H     0.68331   0.86007   0.21501   0.00000  Uiso   1.00
H526   H     0.98481   0.80680   0.28507   0.00000  Uiso   1.00
H527   H     0.87467   0.66944   0.21616   0.00000  Uiso   1.00
H528   H     0.79073   0.99886   0.28413   0.00000  Uiso   1.00
H529   H     0.81816   0.84262   0.09941   0.00000  Uiso   1.00
H530   H     0.91187   0.76244   0.09573   0.00000  Uiso   1.00
H531   H     0.90564   0.75228   0.46431   0.00000  Uiso   1.00
N532   N     0.74912   0.82893   0.08155   0.00000  Uiso   1.00
O533   O     0.83333   0.83333   0.25000   0.00000  Uiso   1.00
O534   O     0.82360   0.79060   0.16625   0.00000  Uiso   1.00
O535   O     0.79354   0.87313   0.33749   0.00000  Uiso   1.00
O536   O     0.87755   0.84159   0.15877   0.00000  Uiso   1.00
O537   O     0.83865   0.82802   0.33749   0.00000  Uiso   1.00
O538   O     0.84515   0.74768   0.27820   0.00000  Uiso   1.00
O539   O     0.81247   0.92803   0.26767   0.00000  Uiso   1.00
O540   O     0.74119   0.79917   0.23607   0.00000  Uiso   1.00
O541   O     0.93452   0.85845   0.21805   0.00000  Uiso   1.00
O542   O     0.73656   0.85627   0.27820   0.00000  Uiso   1.00
O543   O     0.92106   0.81944   0.26767   0.00000  Uiso   1.00
O544   O     0.80467   0.73570   0.23607   0.00000  Uiso   1.00
O545   O     0.87104   0.92193   0.21805   0.00000  Uiso   1.00
Zn546  Zn    0.85910   0.80756   0.28277   0.00000  Uiso   1.00
Zn547  Zn    0.80125   0.79044   0.22257   0.00000  Uiso   1.00
Zn548  Zn    0.87833   0.86331   0.21188   0.00000  Uiso   1.00
Zn549  Zn    0.79465   0.87202   0.28277   0.00000  Uiso   1.00
C550   C     0.05249   0.15988   0.75874   0.00000  Uiso   1.00
C551   C     0.19292   0.12415   0.96078   0.00000  Uiso   1.00
C552   C     0.21456   0.10556   0.98088   0.00000  Uiso   1.00
C553   C     0.28104   0.17354   0.74123   0.00000  Uiso   1.00
C554   C     0.20666   0.11425   0.52142   0.00000  Uiso   1.00
C555   C     0.17400   0.13978   0.54281   0.00000  Uiso   1.00
C556   C     0.23191   0.09839   0.54070   0.00000  Uiso   1.00
C557   C     0.22618   0.10877   0.58091   0.00000  Uiso   1.00
C558   C     0.17147   0.15244   0.58271   0.00000  Uiso   1.00
C559   C     0.32699   0.17616   0.73766   0.00000  Uiso   1.00
C560   C     0.00712   0.15742   0.76214   0.00000  Uiso   1.00
C561   C     0.09743   0.21337   0.92109   0.00000  Uiso   1.00
C562   C     0.18090   0.32215   0.73816   0.00000  Uiso   1.00
C563   C     0.15157   0.01206   0.76208   0.00000  Uiso   1.00
C564   C     0.15594   0.05609   0.75888   0.00000  Uiso   1.00
C565   C     0.17685   0.27765   0.74136   0.00000  Uiso   1.00
C566   C     0.18806   0.14528   0.64407   0.00000  Uiso   1.00
C567   C     0.14538   0.18760   0.85621   0.00000  Uiso   1.00
C568   C     0.13295   0.19254   0.89953   0.00000  Uiso   1.00
C569   C     0.19628   0.13615   0.60172   0.00000  Uiso   1.00
C570   C     0.08327   0.21368   0.96185   0.00000  Uiso   1.00
C571   C     0.15487   0.17318   0.91934   0.00000  Uiso   1.00
C572   C     0.14019   0.17167   0.96040   0.00000  Uiso   1.00
C573   C     0.10408   0.19273   0.98158   0.00000  Uiso   1.00
C574   C     0.16058   0.15026   0.98093   0.00000  Uiso   1.00
C575   C     0.14734   0.15402   0.52292   0.00000  Uiso   1.00
C576   C     0.10767   0.17102   0.54271   0.00000  Uiso   1.00
C577   C     0.08772   0.19112   0.52198   0.00000  Uiso   1.00
H578   H     0.05801   0.20437   0.53759   0.00000  Uiso   1.00
H579   H     0.05537   0.22955   0.97790   0.00000  Uiso   1.00
H580   H     0.07995   0.22857   0.90641   0.00000  Uiso   1.00
H581   H     0.18348   0.15964   0.90192   0.00000  Uiso   1.00
H582   H     0.20143   0.11628   0.92937   0.00000  Uiso   1.00
H583   H     0.08934   0.13466   0.58905   0.00000  Uiso   1.00
H584   H     0.08697   0.18784   0.60183   0.00000  Uiso   1.00
H585   H     0.25621   0.07815   0.52462   0.00000  Uiso   1.00
H586   H     0.01664   0.19341   0.71501   0.00000  Uiso   1.00
H587   H     0.31814   0.14013   0.78507   0.00000  Uiso   1.00
H588   H     0.20800   0.00277   0.71616   0.00000  Uiso   1.00
H589   H     0.12407   0.33219   0.78413   0.00000  Uiso   1.00
H590   H     0.15149   0.17596   0.59941   0.00000  Uiso   1.00
H591   H     0.24521   0.09577   0.59573   0.00000  Uiso   1.00
H592   H     0.23897   0.08561   0.96431   0.00000  Uiso   1.00
N593   N     0.08245   0.16226   0.58155   0.00000  Uiso   1.00
O594   O     0.16667   0.16667   0.75000   0.00000  Uiso   1.00
O595   O     0.15693   0.12393   0.66625   0.00000  Uiso   1.00
O596   O     0.12687   0.20646   0.83749   0.00000  Uiso   1.00
O597   O     0.21088   0.17493   0.65877   0.00000  Uiso   1.00
O598   O     0.17198   0.16135   0.83749   0.00000  Uiso   1.00
O599   O     0.17849   0.08101   0.77820   0.00000  Uiso   1.00
O600   O     0.14581   0.26136   0.76767   0.00000  Uiso   1.00
O601   O     0.07452   0.13251   0.73607   0.00000  Uiso   1.00
O602   O     0.26785   0.19179   0.71805   0.00000  Uiso   1.00
O603   O     0.06990   0.18960   0.77820   0.00000  Uiso   1.00
O604   O     0.25440   0.15277   0.76767   0.00000  Uiso   1.00
O605   O     0.13800   0.06903   0.73607   0.00000  Uiso   1.00
O606   O     0.20437   0.25527   0.71805   0.00000  Uiso   1.00
Zn607  Zn    0.19244   0.14090   0.78277   0.00000  Uiso   1.00
Zn608  Zn    0.13459   0.12378   0.72257   0.00000  Uiso   1.00
Zn609  Zn    0.21166   0.19664   0.71188   0.00000  Uiso   1.00
Zn610  Zn    0.12798   0.20535   0.78277   0.00000  Uiso   1.00
C611   C     0.38582   0.15988   0.75874   0.00000  Uiso   1.00
C612   C     0.52626   0.12415   0.96078   0.00000  Uiso   1.00
C613   C     0.54790   0.10556   0.98088   0.00000  Uiso   1.00
C614   C     0.61437   0.17354   0.74123   0.00000  Uiso   1.00
C615   C     0.54000   0.11425   0.52142   0.00000  Uiso   1.00
C616   C     0.50734   0.13978   0.54281   0.00000  Uiso   1.00
C617   C     0.56524   0.09839   0.54070   0.00000  Uiso   1.00
C618   C     0.55951   0.10877   0.58091   0.00000  Uiso   1.00
C619   C     0.50480   0.15244   0.58271   0.00000  Uiso   1.00
C620   C     0.66032   0.17616   0.73766   0.00000  Uiso   1.00
C621   C     0.34046   0.15742   0.76214   0.00000  Uiso   1.00
C622   C     0.43076   0.21337   0.92109   0.00000  Uiso   1.00
C623   C     0.51423   0.32215   0.73816   0.00000  Uiso   1.00
C624   C     0.48490   0.01206   0.76208   0.00000  Uiso   1.00
C625   C     0.48927   0.05609   0.75888   0.00000  Uiso   1.00
C626   C     0.51019   0.27765   0.74136   0.00000  Uiso   1.00
C627   C     0.52139   0.14528   0.64407   0.00000  Uiso   1.00
C628   C     0.47871   0.18760   0.85621   0.00000  Uiso   1.00
C629   C     0.46628   0.19254   0.89953   0.00000  Uiso   1.00
C630   C     0.52962   0.13615   0.60172   0.00000  Uiso   1.00
C631   C     0.41660   0.21368   0.96185   0.00000  Uiso   1.00
C632   C     0.48820   0.17318   0.91934   0.00000  Uiso   1.00
C633   C     0.47352   0.17167   0.96040   0.00000  Uiso   1.00
C634   C     0.43741   0.19273   0.98158   0.00000  Uiso   1.00
C635   C     0.49391   0.15026   0.98093   0.00000  Uiso   1.00
C636   C     0.48067   0.15402   0.52292   0.00000  Uiso   1.00
C637   C     0.44100   0.17102   0.54271   0.00000  Uiso   1.00
C638   C     0.42106   0.19112   0.52198   0.00000  Uiso   1.00
H639   H     0.39134   0.20437   0.53759   0.00000  Uiso   1.00
H640   H     0.38871   0.22955   0.97790   0.00000  Uiso   1.00
H641   H     0.41328   0.22857   0.90641   0.00000  Uiso   1.00
H642   H     0.51682   0.15964   0.90192   0.00000  Uiso   1.00
H643   H     0.53476   0.11628   0.92937   0.00000  Uiso   1.00
H644   H     0.42267   0.13466   0.58905   0.00000  Uiso   1.00
H645   H     0.42030   0.18784   0.60183   0.00000  Uiso   1.00
H646   H     0.58955   0.07815   0.52462   0.00000  Uiso   1.00
H647   H     0.34997   0.19341   0.71501   0.00000  Uiso   1.00
H648   H     0.65147   0.14013   0.78507   0.00000  Uiso   1.00
H649   H     0.54134   0.00277   0.71616   0.00000  Uiso   1.00
H650   H     0.45740   0.33219   0.78413   0.00000  Uiso   1.00
H651   H     0.48483   0.17596   0.59941   0.00000  Uiso   1.00
H652   H     0.57854   0.09577   0.59573   0.00000  Uiso   1.00
H653   H     0.57231   0.08561   0.96431   0.00000  Uiso   1.00
N654   N     0.41578   0.16226   0.58155   0.00000  Uiso   1.00
O655   O     0.50000   0.16667   0.75000   0.00000  Uiso   1.00
O656   O     0.49027   0.12393   0.66625   0.00000  Uiso   1.00
O657   O     0.46020   0.20646   0.83749   0.00000  Uiso   1.00
O658   O     0.54421   0.17493   0.65877   0.00000  Uiso   1.00
O659   O     0.50532   0.16135   0.83749   0.00000  Uiso   1.00
O660   O     0.51182   0.08101   0.77820   0.00000  Uiso   1.00
O661   O     0.47914   0.26136   0.76767   0.00000  Uiso   1.00
O662   O     0.40785   0.13251   0.73607   0.00000  Uiso   1.00
O663   O     0.60119   0.19179   0.71805   0.00000  Uiso   1.00
O664   O     0.40323   0.18960   0.77820   0.00000  Uiso   1.00
O665   O     0.58773   0.15277   0.76767   0.00000  Uiso   1.00
O666   O     0.47133   0.06903   0.73607   0.00000  Uiso   1.00
O667   O     0.53771   0.25527   0.71805   0.00000  Uiso   1.00
Zn668  Zn    0.52577   0.14090   0.78277   0.00000  Uiso   1.00
Zn669  Zn    0.46792   0.12378   0.72257   0.00000  Uiso   1.00
Zn670  Zn    0.54500   0.19664   0.71188   0.00000  Uiso   1.00
Zn671  Zn    0.46131   0.20535   0.78277   0.00000  Uiso   1.00
C672   C     0.71916   0.15988   0.75874   0.00000  Uiso   1.00
C673   C     0.85959   0.12415   0.96078   0.00000  Uiso   1.00
C674   C     0.88123   0.10556   0.98088   0.00000  Uiso   1.00
C675   C     0.94770   0.17354   0.74123   0.00000  Uiso   1.00
C676   C     0.87333   0.11425   0.52142   0.00000  Uiso   1.00
C677   C     0.84067   0.13978   0.54281   0.00000  Uiso   1.00
C678   C     0.89857   0.09839   0.54070   0.00000  Uiso   1.00
C679   C     0.89284   0.10877   0.58091   0.00000  Uiso   1.00
C680   C     0.83813   0.15244   0.58271   0.00000  Uiso   1.00
C681   C     0.99365   0.17616   0.73766   0.00000  Uiso   1.00
C682   C     0.67379   0.15742   0.76214   0.00000  Uiso   1.00
C683   C     0.76409   0.21337   0.92109   0.00000  Uiso   1.00
C684   C     0.84757   0.32215   0.73816   0.00000  Uiso   1.00
C685   C     0.81824   0.01206   0.76208   0.00000  Uiso   1.00
C686   C     0.82260   0.05609   0.75888   0.00000  Uiso   1.00
C687   C     0.84352   0.27765   0.74136   0.00000  Uiso   1.00
C688   C     0.85472   0.14528   0.64407   0.00000  Uiso   1.00
C689   C     0.81204   0.18760   0.85621   0.00000  Uiso   1.00
C690   C     0.79962   0.19254   0.89953   0.00000  Uiso   1.00
C691   C     0.86295   0.13615   0.60172   0.00000  Uiso   1.00
C692   C     0.74993   0.21368   0.96185   0.00000  Uiso   1.00
C693   C     0.82153   0.17318   0.91934   0.00000  Uiso   1.00
C694   C     0.80685   0.17167   0.96040   0.00000  Uiso   1.00
C695   C     0.77074   0.19273   0.98158   0.00000  Uiso   1.00
C696   C     0.82724   0.15026   0.98093   0.00000  Uiso   1.00
C697   C     0.81400   0.15402   0.52292   0.00000  Uiso   1.00
C698   C     0.77433   0.17102   0.54271   0.00000  Uiso   1.00
C699   C     0.75439   0.19112   0.52198   0.00000  Uiso   1.00
H700   H     0.72468   0.20437   0.53759   0.00000  Uiso   1.00
H701   H     0.72204   0.22955   0.97790   0.00000  Uiso   1.00
H702   H     0.74662   0.22857   0.90641   0.00000  Uiso   1.00
H703   H     0.85015   0.15964   0.90192   0.00000  Uiso   1.00
H704   H     0.86810   0.11628   0.92937   0.00000  Uiso   1.00
H705   H     0.75601   0.13466   0.58905   0.00000  Uiso   1.00
H706   H     0.75364   0.18784   0.60183   0.00000  Uiso   1.00
H707   H     0.92288   0.07815   0.52462   0.00000  Uiso   1.00
H708   H     0.68331   0.19341   0.71501   0.00000  Uiso   1.00
H709   H     0.98481   0.14013   0.78507   0.00000  Uiso   1.00
H710   H     0.87467   0.00277   0.71616   0.00000  Uiso   1.00
H711   H     0.79073   0.33219   0.78413   0.00000  Uiso   1.00
H712   H     0.81816   0.17596   0.59941   0.00000  Uiso   1.00
H713   H     0.91187   0.09577   0.59573   0.00000  Uiso   1.00
H714   H     0.90564   0.08561   0.96431   0.00000  Uiso   1.00
N715   N     0.74912   0.16226   0.58155   0.00000  Uiso   1.00
O716   O     0.83333   0.16667   0.75000   0.00000  Uiso   1.00
O717   O     0.82360   0.12393   0.66625   0.00000  Uiso   1.00
O718   O     0.79354   0.20646   0.83749   0.00000  Uiso   1.00
O719   O     0.87755   0.17493   0.65877   0.00000  Uiso   1.00
O720   O     0.83865   0.16135   0.83749   0.00000  Uiso   1.00
O721   O     0.84515   0.08101   0.77820   0.00000  Uiso   1.00
O722   O     0.81247   0.26136   0.76767   0.00000  Uiso   1.00
O723   O     0.74119   0.13251   0.73607   0.00000  Uiso   1.00
O724   O     0.93452   0.19179   0.71805   0.00000  Uiso   1.00
O725   O     0.73656   0.18960   0.77820   0.00000  Uiso   1.00
O726   O     0.92106   0.15277   0.76767   0.00000  Uiso   1.00
O727   O     0.80467   0.06903   0.73607   0.00000  Uiso   1.00
O728   O     0.87104   0.25527   0.71805   0.00000  Uiso   1.00
Zn729  Zn    0.85910   0.14090   0.78277   0.00000  Uiso   1.00
Zn730  Zn    0.80125   0.12378   0.72257   0.00000  Uiso   1.00
Zn731  Zn    0.87833   0.19664   0.71188   0.00000  Uiso   1.00
Zn732  Zn    0.79465   0.20535   0.78277   0.00000  Uiso   1.00
C733   C     0.05249   0.49321   0.75874   0.00000  Uiso   1.00
C734   C     0.19292   0.45748   0.96078   0.00000  Uiso   1.00
C735   C     0.21456   0.43890   0.98088   0.00000  Uiso   1.00
C736   C     0.28104   0.50687   0.74123   0.00000  Uiso   1.00
C737   C     0.20666   0.44758   0.52142   0.00000  Uiso   1.00
C738   C     0.17400   0.47311   0.54281   0.00000  Uiso   1.00
C739   C     0.23191   0.43172   0.54070   0.00000  Uiso   1.00
C740   C     0.22618   0.44210   0.58091   0.00000  Uiso   1.00
C741   C     0.17147   0.48578   0.58271   0.00000  Uiso   1.00
C742   C     0.32699   0.50950   0.73766   0.00000  Uiso   1.00
C743   C     0.00712   0.49075   0.76214   0.00000  Uiso   1.00
C744   C     0.09743   0.54671   0.92109   0.00000  Uiso   1.00
C745   C     0.18090   0.65548   0.73816   0.00000  Uiso   1.00
C746   C     0.15157   0.34539   0.76208   0.00000  Uiso   1.00
C747   C     0.15594   0.38942   0.75888   0.00000  Uiso   1.00
C748   C     0.17685   0.61099   0.74136   0.00000  Uiso   1.00
C749   C     0.18806   0.47861   0.64407   0.00000  Uiso   1.00
C750   C     0.14538   0.52093   0.85621   0.00000  Uiso   1.00
C751   C     0.13295   0.52587   0.89953   0.00000  Uiso   1.00
C752   C     0.19628   0.46948   0.60172   0.00000  Uiso   1.00
C753   C     0.08327   0.54701   0.96185   0.00000  Uiso   1.00
C754   C     0.15487   0.50651   0.91934   0.00000  Uiso   1.00
C755   C     0.14019   0.50501   0.96040   0.00000  Uiso   1.00
C756   C     0.10408   0.52606   0.98158   0.00000  Uiso   1.00
C757   C     0.16058   0.48359   0.98093   0.00000  Uiso   1.00
C758   C     0.14734   0.48735   0.52292   0.00000  Uiso   1.00
C759   C     0.10767   0.50435   0.54271   0.00000  Uiso   1.00
C760   C     0.08772   0.52445   0.52198   0.00000  Uiso   1.00
H761   H     0.05801   0.53770   0.53759   0.00000  Uiso   1.00
H762   H     0.05537   0.56288   0.97790   0.00000  Uiso   1.00
H763   H     0.07995   0.56190   0.90641   0.00000  Uiso   1.00
H764   H     0.18348   0.49297   0.90192   0.00000  Uiso   1.00
H765   H     0.20143   0.44961   0.92937   0.00000  Uiso   1.00
H766   H     0.08934   0.46799   0.58905   0.00000  Uiso   1.00
H767   H     0.08697   0.52117   0.60183   0.00000  Uiso   1.00
H768   H     0.25621   0.41148   0.52462   0.00000  Uiso   1.00
H769   H     0.01664   0.52674   0.71501   0.00000  Uiso   1.00
H770   H     0.31814   0.47346   0.78507   0.00000  Uiso   1.00
H771   H     0.20800   0.33611   0.71616   0.00000  Uiso   1.00
H772   H     0.12407   0.66552   0.78413   0.00000  Uiso   1.00
H773   H     0.15149   0.50929   0.59941   0.00000  Uiso   1.00
H774   H     0.24521   0.42910   0.59573   0.00000  Uiso   1.00
H775   H     0.23897   0.41895   0.96431   0.00000  Uiso   1.00
N776   N     0.08245   0.49559   0.58155   0.00000  Uiso   1.00
O777   O     0.16667   0.50000   0.75000   0.00000  Uiso   1.00
O778   O     0.15693   0.45726   0.66625   0.00000  Uiso   1.00
O779   O     0.12687   0.53979   0.83749   0.00000  Uiso   1.00
O780   O     0.21088   0.50826   0.65877   0.00000  Uiso   1.00
O781   O     0.17198   0.49468   0.83749   0.00000  Uiso   1.00
O782   O     0.17849   0.41434   0.77820   0.00000  Uiso   1.00
O783   O     0.14581   0.59469   0.76767   0.00000  Uiso   1.00
O784   O     0.07452   0.46584   0.73607   0.00000  Uiso   1.00
O785   O     0.26785   0.52512   0.71805   0.00000  Uiso   1.00
O786   O     0.06990   0.52293   0.77820   0.00000  Uiso   1.00
O787   O     0.25440   0.48610   0.76767   0.00000  Uiso   1.00
O788   O     0.13800   0.40236   0.73607   0.00000  Uiso   1.00
O789   O     0.20437   0.58860   0.71805   0.00000  Uiso   1.00
Zn790  Zn    0.19244   0.47423   0.78277   0.00000  Uiso   1.00
Zn791  Zn    0.13459   0.45711   0.72257   0.00000  Uiso   1.00
Zn792  Zn    0.21166   0.52997   0.71188   0.00000  Uiso   1.00
Zn793  Zn    0.12798   0.53868   0.78277   0.00000  Uiso   1.00
C794   C     0.38582   0.49321   0.75874   0.00000  Uiso   1.00
C795   C     0.52626   0.45748   0.96078   0.00000  Uiso   1.00
C796   C     0.54790   0.43890   0.98088   0.00000  Uiso   1.00
C797   C     0.61437   0.50687   0.74123   0.00000  Uiso   1.00
C798   C     0.54000   0.44758   0.52142   0.00000  Uiso   1.00
C799   C     0.50734   0.47311   0.54281   0.00000  Uiso   1.00
C800   C     0.56524   0.43172   0.54070   0.00000  Uiso   1.00
C801   C     0.55951   0.44210   0.58091   0.00000  Uiso   1.00
C802   C     0.50480   0.48578   0.58271   0.00000  Uiso   1.00
C803   C     0.66032   0.50950   0.73766   0.00000  Uiso   1.00
C804   C     0.34046   0.49075   0.76214   0.00000  Uiso   1.00
C805   C     0.43076   0.54671   0.92109   0.00000  Uiso   1.00
C806   C     0.51423   0.65548   0.73816   0.00000  Uiso   1.00
C807   C     0.48490   0.34539   0.76208   0.00000  Uiso   1.00
C808   C     0.48927   0.38942   0.75888   0.00000  Uiso   1.00
C809   C     0.51019   0.61099   0.74136   0.00000  Uiso   1.00
C810   C     0.52139   0.47861   0.64407   0.00000  Uiso   1.00
C811   C     0.47871   0.52093   0.85621   0.00000  Uiso   1.00
C812   C     0.46628   0.52587   0.89953   0.00000  Uiso   1.00
C813   C     0.52962   0.46948   0.60172   0.00000  Uiso   1.00
C814   C     0.41660   0.54701   0.96185   0.00000  Uiso   1.00
C815   C     0.48820   0.50651   0.91934   0.00000  Uiso   1.00
C816   C     0.47352   0.50501   0.96040   0.00000  Uiso   1.00
C817   C     0.43741   0.52606   0.98158   0.00000  Uiso   1.00
C818   C     0.49391   0.48359   0.98093   0.00000  Uiso   1.00
C819   C     0.48067   0.48735   0.52292   0.00000  Uiso   1.00
C820   C     0.44100   0.50435   0.54271   0.00000  Uiso   1.00
C821   C     0.42106   0.52445   0.52198   0.00000  Uiso   1.00
H822   H     0.39134   0.53770   0.53759   0.00000  Uiso   1.00
H823   H     0.38871   0.56288   0.97790   0.00000  Uiso   1.00
H824   H     0.41328   0.56190   0.90641   0.00000  Uiso   1.00
H825   H     0.51682   0.49297   0.90192   0.00000  Uiso   1.00
H826   H     0.53476   0.44961   0.92937   0.00000  Uiso   1.00
H827   H     0.42267   0.46799   0.58905   0.00000  Uiso   1.00
H828   H     0.42030   0.52117   0.60183   0.00000  Uiso   1.00
H829   H     0.58955   0.41148   0.52462   0.00000  Uiso   1.00
H830   H     0.34997   0.52674   0.71501   0.00000  Uiso   1.00
H831   H     0.65147   0.47346   0.78507   0.00000  Uiso   1.00
H832   H     0.54134   0.33611   0.71616   0.00000  Uiso   1.00
H833   H     0.45740   0.66552   0.78413   0.00000  Uiso   1.00
H834   H     0.48483   0.50929   0.59941   0.00000  Uiso   1.00
H835   H     0.57854   0.42910   0.59573   0.00000  Uiso   1.00
H836   H     0.57231   0.41895   0.96431   0.00000  Uiso   1.00
N837   N     0.41578   0.49559   0.58155   0.00000  Uiso   1.00
O838   O     0.50000   0.50000   0.75000   0.00000  Uiso   1.00
O839   O     0.49027   0.45726   0.66625   0.00000  Uiso   1.00
O840   O     0.46020   0.53979   0.83749   0.00000  Uiso   1.00
O841   O     0.54421   0.50826   0.65877   0.00000  Uiso   1.00
O842   O     0.50532   0.49468   0.83749   0.00000  Uiso   1.00
O843   O     0.51182   0.41434   0.77820   0.00000  Uiso   1.00
O844   O     0.47914   0.59469   0.76767   0.00000  Uiso   1.00
O845   O     0.40785   0.46584   0.73607   0.00000  Uiso   1.00
O846   O     0.60119   0.52512   0.71805   0.00000  Uiso   1.00
O847   O     0.40323   0.52293   0.77820   0.00000  Uiso   1.00
O848   O     0.58773   0.48610   0.76767   0.00000  Uiso   1.00
O849   O     0.47133   0.40236   0.73607   0.00000  Uiso   1.00
O850   O     0.53771   0.58860   0.71805   0.00000  Uiso   1.00
Zn851  Zn    0.52577   0.47423   0.78277   0.00000  Uiso   1.00
Zn852  Zn    0.46792   0.45711   0.72257   0.00000  Uiso   1.00
Zn853  Zn    0.54500   0.52997   0.71188   0.00000  Uiso   1.00
Zn854  Zn    0.46131   0.53868   0.78277   0.00000  Uiso   1.00
C855   C     0.71916   0.49321   0.75874   0.00000  Uiso   1.00
C856   C     0.85959   0.45748   0.96078   0.00000  Uiso   1.00
C857   C     0.88123   0.43890   0.98088   0.00000  Uiso   1.00
C858   C     0.94770   0.50687   0.74123   0.00000  Uiso   1.00
C859   C     0.87333   0.44758   0.52142   0.00000  Uiso   1.00
C860   C     0.84067   0.47311   0.54281   0.00000  Uiso   1.00
C861   C     0.89857   0.43172   0.54070   0.00000  Uiso   1.00
C862   C     0.89284   0.44210   0.58091   0.00000  Uiso   1.00
C863   C     0.83813   0.48578   0.58271   0.00000  Uiso   1.00
C864   C     0.99365   0.50950   0.73766   0.00000  Uiso   1.00
C865   C     0.67379   0.49075   0.76214   0.00000  Uiso   1.00
C866   C     0.76409   0.54671   0.92109   0.00000  Uiso   1.00
C867   C     0.84757   0.65548   0.73816   0.00000  Uiso   1.00
C868   C     0.81824   0.34539   0.76208   0.00000  Uiso   1.00
C869   C     0.82260   0.38942   0.75888   0.00000  Uiso   1.00
C870   C     0.84352   0.61099   0.74136   0.00000  Uiso   1.00
C871   C     0.85472   0.47861   0.64407   0.00000  Uiso   1.00
C872   C     0.81204   0.52093   0.85621   0.00000  Uiso   1.00
C873   C     0.79962   0.52587   0.89953   0.00000  Uiso   1.00
C874   C     0.86295   0.46948   0.60172   0.00000  Uiso   1.00
C875   C     0.74993   0.54701   0.96185   0.00000  Uiso   1.00
C876   C     0.82153   0.50651   0.91934   0.00000  Uiso   1.00
C877   C     0.80685   0.50501   0.96040   0.00000  Uiso   1.00
C878   C     0.77074   0.52606   0.98158   0.00000  Uiso   1.00
C879   C     0.82724   0.48359   0.98093   0.00000  Uiso   1.00
C880   C     0.81400   0.48735   0.52292   0.00000  Uiso   1.00
C881   C     0.77433   0.50435   0.54271   0.00000  Uiso   1.00
C882   C     0.75439   0.52445   0.52198   0.00000  Uiso   1.00
H883   H     0.72468   0.53770   0.53759   0.00000  Uiso   1.00
H884   H     0.72204   0.56288   0.97790   0.00000  Uiso   1.00
H885   H     0.74662   0.56190   0.90641   0.00000  Uiso   1.00
H886   H     0.85015   0.49297   0.90192   0.00000  Uiso   1.00
H887   H     0.86810   0.44961   0.92937   0.00000  Uiso   1.00
H888   H     0.75601   0.46799   0.58905   0.00000  Uiso   1.00
H889   H     0.75364   0.52117   0.60183   0.00000  Uiso   1.00
H890   H     0.92288   0.41148   0.52462   0.00000  Uiso   1.00
H891   H     0.68331   0.52674   0.71501   0.00000  Uiso   1.00
H892   H     0.98481   0.47346   0.78507   0.00000  Uiso   1.00
H893   H     0.87467   0.33611   0.71616   0.00000  Uiso   1.00
H894   H     0.79073   0.66552   0.78413   0.00000  Uiso   1.00
H895   H     0.81816   0.50929   0.59941   0.00000  Uiso   1.00
H896   H     0.91187   0.42910   0.59573   0.00000  Uiso   1.00
H897   H     0.90564   0.41895   0.96431   0.00000  Uiso   1.00
N898   N     0.74912   0.49559   0.58155   0.00000  Uiso   1.00
O899   O     0.83333   0.50000   0.75000   0.00000  Uiso   1.00
O900   O     0.82360   0.45726   0.66625   0.00000  Uiso   1.00
O901   O     0.79354   0.53979   0.83749   0.00000  Uiso   1.00
O902   O     0.87755   0.50826   0.65877   0.00000  Uiso   1.00
O903   O     0.83865   0.49468   0.83749   0.00000  Uiso   1.00
O904   O     0.84515   0.41434   0.77820   0.00000  Uiso   1.00
O905   O     0.81247   0.59469   0.76767   0.00000  Uiso   1.00
O906   O     0.74119   0.46584   0.73607   0.00000  Uiso   1.00
O907   O     0.93452   0.52512   0.71805   0.00000  Uiso   1.00
O908   O     0.73656   0.52293   0.77820   0.00000  Uiso   1.00
O909   O     0.92106   0.48610   0.76767   0.00000  Uiso   1.00
O910   O     0.80467   0.40236   0.73607   0.00000  Uiso   1.00
O911   O     0.87104   0.58860   0.71805   0.00000  Uiso   1.00
Zn912  Zn    0.85910   0.47423   0.78277   0.00000  Uiso   1.00
Zn913  Zn    0.80125   0.45711   0.72257   0.00000  Uiso   1.00
Zn914  Zn    0.87833   0.52997   0.71188   0.00000  Uiso   1.00
Zn915  Zn    0.79465   0.53868   0.78277   0.00000  Uiso   1.00
C916   C     0.05249   0.82654   0.75874   0.00000  Uiso   1.00
C917   C     0.19292   0.79082   0.96078   0.00000  Uiso   1.00
C918   C     0.21456   0.77223   0.98088   0.00000  Uiso   1.00
C919   C     0.28104   0.84021   0.74123   0.00000  Uiso   1.00
C920   C     0.20666   0.78092   0.52142   0.00000  Uiso   1.00
C921   C     0.17400   0.80645   0.54281   0.00000  Uiso   1.00
C922   C     0.23191   0.76505   0.54070   0.00000  Uiso   1.00
C923   C     0.22618   0.77544   0.58091   0.00000  Uiso   1.00
C924   C     0.17147   0.81911   0.58271   0.00000  Uiso   1.00
C925   C     0.32699   0.84283   0.73766   0.00000  Uiso   1.00
C926   C     0.00712   0.82408   0.76214   0.00000  Uiso   1.00
C927   C     0.09743   0.88004   0.92109   0.00000  Uiso   1.00
C928   C     0.18090   0.98881   0.73816   0.00000  Uiso   1.00
C929   C     0.15157   0.67873   0.76208   0.00000  Uiso   1.00
C930   C     0.15594   0.72276   0.75888   0.00000  Uiso   1.00
C931   C     0.17685   0.94432   0.74136   0.00000  Uiso   1.00
C932   C     0.18806   0.81194   0.64407   0.00000  Uiso   1.00
C933   C     0.14538   0.85426   0.85621   0.00000  Uiso   1.00
C934   C     0.13295   0.85921   0.89953   0.00000  Uiso   1.00
C935   C     0.19628   0.80282   0.60172   0.00000  Uiso   1.00
C936   C     0.08327   0.88034   0.96185   0.00000  Uiso   1.00
C937   C     0.15487   0.83984   0.91934   0.00000  Uiso   1.00
C938   C     0.14019   0.83834   0.96040   0.00000  Uiso   1.00
C939   C     0.10408   0.85939   0.98158   0.00000  Uiso   1.00
C940   C     0.16058   0.81693   0.98093   0.00000  Uiso   1.00
C941   C     0.14734   0.82068   0.52292   0.00000  Uiso   1.00
C942   C     0.10767   0.83768   0.54271   0.00000  Uiso   1.00
C943   C     0.08772   0.85779   0.52198   0.00000  Uiso   1.00
H944   H     0.05801   0.87104   0.53759   0.00000  Uiso   1.00
H945   H     0.05537   0.89622   0.97790   0.00000  Uiso   1.00
H946   H     0.07995   0.89524   0.90641   0.00000  Uiso   1.00
H947   H     0.18348   0.82631   0.90192   0.00000  Uiso   1.00
H948   H     0.20143   0.78294   0.92937   0.00000  Uiso   1.00
H949   H     0.08934   0.80133   0.58905   0.00000  Uiso   1.00
H950   H     0.08697   0.85450   0.60183   0.00000  Uiso   1.00
H951   H     0.25621   0.74481   0.52462   0.00000  Uiso   1.00
H952   H     0.01664   0.86007   0.71501   0.00000  Uiso   1.00
H953   H     0.31814   0.80680   0.78507   0.00000  Uiso   1.00
H954   H     0.20800   0.66944   0.71616   0.00000  Uiso   1.00
H955   H     0.12407   0.99886   0.78413   0.00000  Uiso   1.00
H956   H     0.15149   0.84262   0.59941   0.00000  Uiso   1.00
H957   H     0.24521   0.76244   0.59573   0.00000  Uiso   1.00
H958   H     0.23897   0.75228   0.96431   0.00000  Uiso   1.00
N959   N     0.08245   0.82893   0.58155   0.00000  Uiso   1.00
O960   O     0.16667   0.83333   0.75000   0.00000  Uiso   1.00
O961   O     0.15693   0.79060   0.66625   0.00000  Uiso   1.00
O962   O     0.12687   0.87313   0.83749   0.00000  Uiso   1.00
O963   O     0.21088   0.84159   0.65877   0.00000  Uiso   1.00
O964   O     0.17198   0.82802   0.83749   0.00000  Uiso   1.00
O965   O     0.17849   0.74768   0.77820   0.00000  Uiso   1.00
O966   O     0.14581   0.92803   0.76767   0.00000  Uiso   1.00
O967   O     0.07452   0.79917   0.73607   0.00000  Uiso   1.00
O968   O     0.26785   0.85845   0.71805   0.00000  Uiso   1.00
O969   O     0.06990   0.85627   0.77820   0.00000  Uiso   1.00
O970   O     0.25440   0.81944   0.76767   0.00000  Uiso   1.00
O971   O     0.13800   0.73570   0.73607   0.00000  Uiso   1.00
O972   O     0.20437   0.92193   0.71805   0.00000  Uiso   1.00
Zn973  Zn    0.19244   0.80756   0.78277   0.00000  Uiso   1.00
Zn974  Zn    0.13459   0.79044   0.72257   0.00000  Uiso   1.00
Zn975  Zn    0.21166   0.86331   0.71188   0.00000  Uiso   1.00
Zn976  Zn    0.12798   0.87202   0.78277   0.00000  Uiso   1.00
C977   C     0.38582   0.82654   0.75874   0.00000  Uiso   1.00
C978   C     0.52626   0.79082   0.96078   0.00000  Uiso   1.00
C979   C     0.54790   0.77223   0.98088   0.00000  Uiso   1.00
C980   C     0.61437   0.84021   0.74123   0.00000  Uiso   1.00
C981   C     0.54000   0.78092   0.52142   0.00000  Uiso   1.00
C982   C     0.50734   0.80645   0.54281   0.00000  Uiso   1.00
C983   C     0.56524   0.76505   0.54070   0.00000  Uiso   1.00
C984   C     0.55951   0.77544   0.58091   0.00000  Uiso   1.00
C985   C     0.50480   0.81911   0.58271   0.00000  Uiso   1.00
C986   C     0.66032   0.84283   0.73766   0.00000  Uiso   1.00
C987   C     0.34046   0.82408   0.76214   0.00000  Uiso   1.00
C988   C     0.43076   0.88004   0.92109   0.00000  Uiso   1.00
C989   C     0.51423   0.98881   0.73816   0.00000  Uiso   1.00
C990   C     0.48490   0.67873   0.76208   0.00000  Uiso   1.00
C991   C     0.48927   0.72276   0.75888   0.00000  Uiso   1.00
C992   C     0.51019   0.94432   0.74136   0.00000  Uiso   1.00
C993   C     0.52139   0.81194   0.64407   0.00000  Uiso   1.00
C994   C     0.47871   0.85426   0.85621   0.00000  Uiso   1.00
C995   C     0.46628   0.85921   0.89953   0.00000  Uiso   1.00
C996   C     0.52962   0.80282   0.60172   0.00000  Uiso   1.00
C997   C     0.41660   0.88034   0.96185   0.00000  Uiso   1.00
C998   C     0.48820   0.83984   0.91934   0.00000  Uiso   1.00
C999   C     0.47352   0.83834   0.96040   0.00000  Uiso   1.00
C1000  C     0.43741   0.85939   0.98158   0.00000  Uiso   1.00
C1001  C     0.49391   0.81693   0.98093   0.00000  Uiso   1.00
C1002  C     0.48067   0.82068   0.52292   0.00000  Uiso   1.00
C1003  C     0.44100   0.83768   0.54271   0.00000  Uiso   1.00
C1004  C     0.42106   0.85779   0.52198   0.00000  Uiso   1.00
H1005  H     0.39134   0.87104   0.53759   0.00000  Uiso   1.00
H1006  H     0.38871   0.89622   0.97790   0.00000  Uiso   1.00
H1007  H     0.41328   0.89524   0.90641   0.00000  Uiso   1.00
H1008  H     0.51682   0.82631   0.90192   0.00000  Uiso   1.00
H1009  H     0.53476   0.78294   0.92937   0.00000  Uiso   1.00
H1010  H     0.42267   0.80133   0.58905   0.00000  Uiso   1.00
H1011  H     0.42030   0.85450   0.60183   0.00000  Uiso   1.00
H1012  H     0.58955   0.74481   0.52462   0.00000  Uiso   1.00
H1013  H     0.34997   0.86007   0.71501   0.00000  Uiso   1.00
H1014  H     0.65147   0.80680   0.78507   0.00000  Uiso   1.00
H1015  H     0.54134   0.66944   0.71616   0.00000  Uiso   1.00
H1016  H     0.45740   0.99886   0.78413   0.00000  Uiso   1.00
H1017  H     0.48483   0.84262   0.59941   0.00000  Uiso   1.00
H1018  H     0.57854   0.76244   0.59573   0.00000  Uiso   1.00
H1019  H     0.57231   0.75228   0.96431   0.00000  Uiso   1.00
N1020  N     0.41578   0.82893   0.58155   0.00000  Uiso   1.00
O1021  O     0.50000   0.83333   0.75000   0.00000  Uiso   1.00
O1022  O     0.49027   0.79060   0.66625   0.00000  Uiso   1.00
O1023  O     0.46020   0.87313   0.83749   0.00000  Uiso   1.00
O1024  O     0.54421   0.84159   0.65877   0.00000  Uiso   1.00
O1025  O     0.50532   0.82802   0.83749   0.00000  Uiso   1.00
O1026  O     0.51182   0.74768   0.77820   0.00000  Uiso   1.00
O1027  O     0.47914   0.92803   0.76767   0.00000  Uiso   1.00
O1028  O     0.40785   0.79917   0.73607   0.00000  Uiso   1.00
O1029  O     0.60119   0.85845   0.71805   0.00000  Uiso   1.00
O1030  O     0.40323   0.85627   0.77820   0.00000  Uiso   1.00
O1031  O     0.58773   0.81944   0.76767   0.00000  Uiso   1.00
O1032  O     0.47133   0.73570   0.73607   0.00000  Uiso   1.00
O1033  O     0.53771   0.92193   0.71805   0.00000  Uiso   1.00
Zn1034 Zn    0.52577   0.80756   0.78277   0.00000  Uiso   1.00
Zn1035 Zn    0.46792   0.79044   0.72257   0.00000  Uiso   1.00
Zn1036 Zn    0.54500   0.86331   0.71188   0.00000  Uiso   1.00
Zn1037 Zn    0.46131   0.87202   0.78277   0.00000  Uiso   1.00
C1038  C     0.71916   0.82654   0.75874   0.00000  Uiso   1.00
C1039  C     0.85959   0.79082   0.96078   0.00000  Uiso   1.00
C1040  C     0.88123   0.77223   0.98088   0.00000  Uiso   1.00
C1041  C     0.94770   0.84021   0.74123   0.00000  Uiso   1.00
C1042  C     0.87333   0.78092   0.52142   0.00000  Uiso   1.00
C1043  C     0.84067   0.80645   0.54281   0.00000  Uiso   1.00
C1044  C     0.89857   0.76505   0.54070   0.00000  Uiso   1.00
C1045  C     0.89284   0.77544   0.58091   0.00000  Uiso   1.00
C1046  C     0.83813   0.81911   0.58271   0.00000  Uiso   1.00
C1047  C     0.99365   0.84283   0.73766   0.00000  Uiso   1.00
C1048  C     0.67379   0.82408   0.76214   0.00000  Uiso   1.00
C1049  C     0.76409   0.88004   0.92109   0.00000  Uiso   1.00
C1050  C     0.84757   0.98881   0.73816   0.00000  Uiso   1.00
C1051  C     0.81824   0.67873   0.76208   0.00000  Uiso   1.00
C1052  C     0.82260   0.72276   0.75888   0.00000  Uiso   1.00
C1053  C     0.84352   0.94432   0.74136   0.00000  Uiso   1.00
C1054  C     0.85472   0.81194   0.64407   0.00000  Uiso   1.00
C1055  C     0.81204   0.85426   0.85621   0.00000  Uiso   1.00
C1056  C     0.79962   0.85921   0.89953   0.00000  Uiso   1.00
C1057  C     0.86295   0.80282   0.60172   0.00000  Uiso   1.00
C1058  C     0.74993   0.88034   0.96185   0.00000  Uiso   1.00
C1059  C     0.82153   0.83984   0.91934   0.00000  Uiso   1.00
C1060  C     0.80685   0.83834   0.96040   0.00000  Uiso   1.00
C1061  C     0.77074   0.85939   0.98158   0.00000  Uiso   1.00
C1062  C     0.82724   0.81693   0.98093   0.00000  Uiso   1.00
C1063  C     0.81400   0.82068   0.52292   0.00000  Uiso   1.00
C1064  C     0.77433   0.83768   0.54271   0.00000  Uiso   1.00
C1065  C     0.75439   0.85779   0.52198   0.00000  Uiso   1.00
H1066  H     0.72468   0.87104   0.53759   0.00000  Uiso   1.00
H1067  H     0.72204   0.89622   0.97790   0.00000  Uiso   1.00
H1068  H     0.74662   0.89524   0.90641   0.00000  Uiso   1.00
H1069  H     0.85015   0.82631   0.90192   0.00000  Uiso   1.00
H1070  H     0.86810   0.78294   0.92937   0.00000  Uiso   1.00
H1071  H     0.75601   0.80133   0.58905   0.00000  Uiso   1.00
H1072  H     0.75364   0.85450   0.60183   0.00000  Uiso   1.00
H1073  H     0.92288   0.74481   0.52462   0.00000  Uiso   1.00
H1074  H     0.68331   0.86007   0.71501   0.00000  Uiso   1.00
H1075  H     0.98481   0.80680   0.78507   0.00000  Uiso   1.00
H1076  H     0.87467   0.66944   0.71616   0.00000  Uiso   1.00
H1077  H     0.79073   0.99886   0.78413   0.00000  Uiso   1.00
H1078  H     0.81816   0.84262   0.59941   0.00000  Uiso   1.00
H1079  H     0.91187   0.76244   0.59573   0.00000  Uiso   1.00
H1080  H     0.90564   0.75228   0.96431   0.00000  Uiso   1.00
N1081  N     0.74912   0.82893   0.58155   0.00000  Uiso   1.00
O1082  O     0.83333   0.83333   0.75000   0.00000  Uiso   1.00
O1083  O     0.82360   0.79060   0.66625   0.00000  Uiso   1.00
O1084  O     0.79354   0.87313   0.83749   0.00000  Uiso   1.00
O1085  O     0.87755   0.84159   0.65877   0.00000  Uiso   1.00
O1086  O     0.83865   0.82802   0.83749   0.00000  Uiso   1.00
O1087  O     0.84515   0.74768   0.77820   0.00000  Uiso   1.00
O1088  O     0.81247   0.92803   0.76767   0.00000  Uiso   1.00
O1089  O     0.74119   0.79917   0.73607   0.00000  Uiso   1.00
O1090  O     0.93452   0.85845   0.71805   0.00000  Uiso   1.00
O1091  O     0.73656   0.85627   0.77820   0.00000  Uiso   1.00
O1092  O     0.92106   0.81944   0.76767   0.00000  Uiso   1.00
O1093  O     0.80467   0.73570   0.73607   0.00000  Uiso   1.00
O1094  O     0.87104   0.92193   0.71805   0.00000  Uiso   1.00
Zn1095 Zn    0.85910   0.80756   0.78277   0.00000  Uiso   1.00
Zn1096 Zn    0.80125   0.79044   0.72257   0.00000  Uiso   1.00
Zn1097 Zn    0.87833   0.86331   0.71188   0.00000  Uiso   1.00
Zn1098 Zn    0.79465   0.87202   0.78277   0.00000  Uiso   1.00
loop_
_geom_bond_atom_site_label_1
_geom_bond_atom_site_label_2
_geom_bond_distance
_geom_bond_site_symmetry_2
_ccdc_geom_bond_type
C1     O54     1.270   .     A
C1     O52     1.270   .     A
C1     C11     1.438   .     S
C2     C3      1.385   .     A
C2     C25     1.415   .     A
C2     H33     1.077   .     S
C3     H43     1.084   .     S
C3     C554    1.389   .     S
C4     O53     1.281   .     A
C4     O55     1.278   .     A
C4     C10     1.455   .     S
C5     C6      1.420   .     A
C5     C7      1.404   .     A
C5     C552    1.389   1_554 S
C6     C9      1.407   .     A
C6     C26     1.429   .     A
C7     H36     1.084   .     S
C7     C8      1.391   .     A
C8     C20     1.395   .     A
C8     H42     1.083   .     S
C9     C20     1.393   .     A
C9     H41     1.076   .     S
C10    C72     1.334   .     S
C10    H98     1.088   .     S
C11    C132    1.334   1_455 S
C11    H160    1.086   1_455 S
C12    H31     1.083   .     S
C12    C21     1.393   .     A
C12    C19     1.400   .     A
C13    C16     1.452   .     S
C13    C197    1.332   .     S
C13    H222    1.088   .     S
C14    C15     1.436   .     S
C14    C379    1.332   1_545 S
C14    H406    1.086   1_545 S
C15    O56     1.276   .     A
C15    O50     1.276   .     A
C16    O57     1.272   .     A
C16    O51     1.272   .     A
C17    O48     1.275   .     A
C17    C20     1.452   .     S
C17    O46     1.272   .     A
C18    O47     1.283   .     A
C18    C19     1.472   .     S
C18    O49     1.285   .     A
C19    C22     1.400   .     A
C21    C24     1.403   .     A
C21    H30     1.084   .     S
C22    H32     1.076   .     S
C22    C23     1.410   .     A
C23    C24     1.415   .     A
C23    C25     1.424   .     A
C24    C577    1.391   .     S
C25    C575    1.428   .     S
C26    C27     1.431   .     A
C26    C574    1.428   1_554 S
C27    C28     1.393   .     A
C27    N44     1.436   .     S
C28    H29     1.085   .     S
C28    C573    1.391   1_554 S
H34    N44     1.045   .     S
H35    N44     1.045   .     S
H37    C132    1.088   1_455 S
H38    C72     1.086   .     S
H39    C379    1.088   1_545 S
H40    C197    1.086   .     S
O45    Zn60    1.936   .     S
O45    Zn61    1.934   .     S
O45    Zn58    1.958   .     S
O45    Zn59    1.940   .     S
O46    Zn59    1.931   .     S
O47    Zn61    1.938   .     S
O48    Zn60    1.933   .     S
O49    Zn58    1.927   .     S
O50    Zn58    1.928   .     S
O51    Zn61    1.932   .     S
O52    Zn59    1.929   .     S
O53    Zn60    1.936   .     S
O54    Zn61    1.932   .     S
O55    Zn58    1.926   .     S
O56    Zn59    1.937   .     S
O57    Zn60    1.931   .     S
C62    O115    1.270   .     A
C62    O113    1.270   .     A
C62    C72     1.438   .     S
C63    C64     1.385   .     A
C63    C86     1.415   .     A
C63    H94     1.077   .     S
C64    H104    1.084   .     S
C64    C615    1.389   .     S
C65    O114    1.281   .     A
C65    O116    1.278   .     A
C65    C71     1.455   .     S
C66    C67     1.420   .     A
C66    C68     1.404   .     A
C66    C613    1.389   1_554 S
C67    C70     1.407   .     A
C67    C87     1.429   .     A
C68    H97     1.084   .     S
C68    C69     1.391   .     A
C69    C81     1.395   .     A
C69    H103    1.083   .     S
C70    C81     1.393   .     A
C70    H102    1.076   .     S
C71    C133    1.334   .     S
C71    H159    1.088   .     S
C73    H92     1.083   .     S
C73    C82     1.393   .     A
C73    C80     1.400   .     A
C74    C77     1.452   .     S
C74    C258    1.332   .     S
C74    H283    1.088   .     S
C75    C76     1.436   .     S
C75    C440    1.332   1_545 S
C75    H467    1.086   1_545 S
C76    O117    1.276   .     A
C76    O111    1.276   .     A
C77    O118    1.272   .     A
C77    O112    1.272   .     A
C78    O109    1.275   .     A
C78    C81     1.452   .     S
C78    O107    1.272   .     A
C79    O108    1.283   .     A
C79    C80     1.472   .     S
C79    O110    1.285   .     A
C80    C83     1.400   .     A
C82    C85     1.403   .     A
C82    H91     1.084   .     S
C83    H93     1.076   .     S
C83    C84     1.410   .     A
C84    C85     1.415   .     A
C84    C86     1.424   .     A
C85    C638    1.391   .     S
C86    C636    1.428   .     S
C87    C88     1.431   .     A
C87    C635    1.428   1_554 S
C88    C89     1.393   .     A
C88    N105    1.436   .     S
C89    H90     1.085   .     S
C89    C634    1.391   1_554 S
H95    N105    1.045   .     S
H96    N105    1.045   .     S
H99    C133    1.086   .     S
H100   C440    1.088   1_545 S
H101   C258    1.086   .     S
O106   Zn121   1.936   .     S
O106   Zn122   1.934   .     S
O106   Zn119   1.958   .     S
O106   Zn120   1.940   .     S
O107   Zn120   1.931   .     S
O108   Zn122   1.938   .     S
O109   Zn121   1.933   .     S
O110   Zn119   1.927   .     S
O111   Zn119   1.928   .     S
O112   Zn122   1.932   .     S
O113   Zn120   1.929   .     S
O114   Zn121   1.936   .     S
O115   Zn122   1.932   .     S
O116   Zn119   1.926   .     S
O117   Zn120   1.937   .     S
O118   Zn121   1.931   .     S
C123   O176    1.270   .     A
C123   O174    1.270   .     A
C123   C133    1.438   .     S
C124   C125    1.385   .     A
C124   C147    1.415   .     A
C124   H155    1.077   .     S
C125   H165    1.084   .     S
C125   C676    1.389   .     S
C126   O175    1.281   .     A
C126   O177    1.278   .     A
C126   C132    1.455   .     S
C127   C128    1.420   .     A
C127   C129    1.404   .     A
C127   C674    1.389   1_554 S
C128   C131    1.407   .     A
C128   C148    1.429   .     A
C129   H158    1.084   .     S
C129   C130    1.391   .     A
C130   C142    1.395   .     A
C130   H164    1.083   .     S
C131   C142    1.393   .     A
C131   H163    1.076   .     S
C132   C11     1.334   1_655 S
C132   H37     1.088   1_655 S
C134   H153    1.083   .     S
C134   C143    1.393   .     A
C134   C141    1.400   .     A
C135   C138    1.452   .     S
C135   C319    1.332   .     S
C135   H344    1.088   .     S
C136   C137    1.436   .     S
C136   C501    1.332   1_545 S
C136   H528    1.086   1_545 S
C137   O178    1.276   .     A
C137   O172    1.276   .     A
C138   O179    1.272   .     A
C138   O173    1.272   .     A
C139   O170    1.275   .     A
C139   C142    1.452   .     S
C139   O168    1.272   .     A
C140   O169    1.283   .     A
C140   C141    1.472   .     S
C140   O171    1.285   .     A
C141   C144    1.400   .     A
C143   C146    1.403   .     A
C143   H152    1.084   .     S
C144   H154    1.076   .     S
C144   C145    1.410   .     A
C145   C146    1.415   .     A
C145   C147    1.424   .     A
C146   C699    1.391   .     S
C147   C697    1.428   .     S
C148   C149    1.431   .     A
C148   C696    1.428   1_554 S
C149   C150    1.393   .     A
C149   N166    1.436   .     S
C150   H151    1.085   .     S
C150   C695    1.391   1_554 S
H156   N166    1.045   .     S
H157   N166    1.045   .     S
H160   C11     1.086   1_655 S
H161   C501    1.088   1_545 S
H162   C319    1.086   .     S
O167   Zn182   1.936   .     S
O167   Zn183   1.934   .     S
O167   Zn180   1.958   .     S
O167   Zn181   1.940   .     S
O168   Zn181   1.931   .     S
O169   Zn183   1.938   .     S
O170   Zn182   1.933   .     S
O171   Zn180   1.927   .     S
O172   Zn180   1.928   .     S
O173   Zn183   1.932   .     S
O174   Zn181   1.929   .     S
O175   Zn182   1.936   .     S
O176   Zn183   1.932   .     S
O177   Zn180   1.926   .     S
O178   Zn181   1.937   .     S
O179   Zn182   1.931   .     S
C184   O237    1.270   .     A
C184   O235    1.270   .     A
C184   C194    1.438   .     S
C185   C186    1.385   .     A
C185   C208    1.415   .     A
C185   H216    1.077   .     S
C186   H226    1.084   .     S
C186   C737    1.389   .     S
C187   O236    1.281   .     A
C187   O238    1.278   .     A
C187   C193    1.455   .     S
C188   C189    1.420   .     A
C188   C190    1.404   .     A
C188   C735    1.389   1_554 S
C189   C192    1.407   .     A
C189   C209    1.429   .     A
C190   H219    1.084   .     S
C190   C191    1.391   .     A
C191   C203    1.395   .     A
C191   H225    1.083   .     S
C192   C203    1.393   .     A
C192   H224    1.076   .     S
C193   C255    1.334   .     S
C193   H281    1.088   .     S
C194   C315    1.334   1_455 S
C194   H343    1.086   1_455 S
C195   H214    1.083   .     S
C195   C204    1.393   .     A
C195   C202    1.400   .     A
C196   C199    1.452   .     S
C196   C380    1.332   .     S
C196   H405    1.088   .     S
C197   C198    1.436   .     S
C198   O239    1.276   .     A
C198   O233    1.276   .     A
C199   O240    1.272   .     A
C199   O234    1.272   .     A
C200   O231    1.275   .     A
C200   C203    1.452   .     S
C200   O229    1.272   .     A
C201   O230    1.283   .     A
C201   C202    1.472   .     S
C201   O232    1.285   .     A
C202   C205    1.400   .     A
C204   C207    1.403   .     A
C204   H213    1.084   .     S
C205   H215    1.076   .     S
C205   C206    1.410   .     A
C206   C207    1.415   .     A
C206   C208    1.424   .     A
C207   C760    1.391   .     S
C208   C758    1.428   .     S
C209   C210    1.431   .     A
C209   C757    1.428   1_554 S
C210   C211    1.393   .     A
C210   N227    1.436   .     S
C211   H212    1.085   .     S
C211   C756    1.391   1_554 S
H217   N227    1.045   .     S
H218   N227    1.045   .     S
H220   C315    1.088   1_455 S
H221   C255    1.086   .     S
H223   C380    1.086   .     S
O228   Zn243   1.936   .     S
O228   Zn244   1.934   .     S
O228   Zn241   1.958   .     S
O228   Zn242   1.940   .     S
O229   Zn242   1.931   .     S
O230   Zn244   1.938   .     S
O231   Zn243   1.933   .     S
O232   Zn241   1.927   .     S
O233   Zn241   1.928   .     S
O234   Zn244   1.932   .     S
O235   Zn242   1.929   .     S
O236   Zn243   1.936   .     S
O237   Zn244   1.932   .     S
O238   Zn241   1.926   .     S
O239   Zn242   1.937   .     S
O240   Zn243   1.931   .     S
C245   O298    1.270   .     A
C245   O296    1.270   .     A
C245   C255    1.438   .     S
C246   C247    1.385   .     A
C246   C269    1.415   .     A
C246   H277    1.077   .     S
C247   H287    1.084   .     S
C247   C798    1.389   .     S
C248   O297    1.281   .     A
C248   O299    1.278   .     A
C248   C254    1.455   .     S
C249   C250    1.420   .     A
C249   C251    1.404   .     A
C249   C796    1.389   1_554 S
C250   C253    1.407   .     A
C250   C270    1.429   .     A
C251   H280    1.084   .     S
C251   C252    1.391   .     A
C252   C264    1.395   .     A
C252   H286    1.083   .     S
C253   C264    1.393   .     A
C253   H285    1.076   .     S
C254   C316    1.334   .     S
C254   H342    1.088   .     S
C256   H275    1.083   .     S
C256   C265    1.393   .     A
C256   C263    1.400   .     A
C257   C260    1.452   .     S
C257   C441    1.332   .     S
C257   H466    1.088   .     S
C258   C259    1.436   .     S
C259   O300    1.276   .     A
C259   O294    1.276   .     A
C260   O301    1.272   .     A
C260   O295    1.272   .     A
C261   O292    1.275   .     A
C261   C264    1.452   .     S
C261   O290    1.272   .     A
C262   O291    1.283   .     A
C262   C263    1.472   .     S
C262   O293    1.285   .     A
C263   C266    1.400   .     A
C265   C268    1.403   .     A
C265   H274    1.084   .     S
C266   H276    1.076   .     S
C266   C267    1.410   .     A
C267   C268    1.415   .     A
C267   C269    1.424   .     A
C268   C821    1.391   .     S
C269   C819    1.428   .     S
C270   C271    1.431   .     A
C270   C818    1.428   1_554 S
C271   C272    1.393   .     A
C271   N288    1.436   .     S
C272   H273    1.085   .     S
C272   C817    1.391   1_554 S
H278   N288    1.045   .     S
H279   N288    1.045   .     S
H282   C316    1.086   .     S
H284   C441    1.086   .     S
O289   Zn304   1.936   .     S
O289   Zn305   1.934   .     S
O289   Zn302   1.958   .     S
O289   Zn303   1.940   .     S
O290   Zn303   1.931   .     S
O291   Zn305   1.938   .     S
O292   Zn304   1.933   .     S
O293   Zn302   1.927   .     S
O294   Zn302   1.928   .     S
O295   Zn305   1.932   .     S
O296   Zn303   1.929   .     S
O297   Zn304   1.936   .     S
O298   Zn305   1.932   .     S
O299   Zn302   1.926   .     S
O300   Zn303   1.937   .     S
O301   Zn304   1.931   .     S
C306   O359    1.270   .     A
C306   O357    1.270   .     A
C306   C316    1.438   .     S
C307   C308    1.385   .     A
C307   C330    1.415   .     A
C307   H338    1.077   .     S
C308   H348    1.084   .     S
C308   C859    1.389   .     S
C309   O358    1.281   .     A
C309   O360    1.278   .     A
C309   C315    1.455   .     S
C310   C311    1.420   .     A
C310   C312    1.404   .     A
C310   C857    1.389   1_554 S
C311   C314    1.407   .     A
C311   C331    1.429   .     A
C312   H341    1.084   .     S
C312   C313    1.391   .     A
C313   C325    1.395   .     A
C313   H347    1.083   .     S
C314   C325    1.393   .     A
C314   H346    1.076   .     S
C315   C194    1.334   1_655 S
C315   H220    1.088   1_655 S
C317   H336    1.083   .     S
C317   C326    1.393   .     A
C317   C324    1.400   .     A
C318   C321    1.452   .     S
C318   C502    1.332   .     S
C318   H527    1.088   .     S
C319   C320    1.436   .     S
C320   O361    1.276   .     A
C320   O355    1.276   .     A
C321   O362    1.272   .     A
C321   O356    1.272   .     A
C322   O353    1.275   .     A
C322   C325    1.452   .     S
C322   O351    1.272   .     A
C323   O352    1.283   .     A
C323   C324    1.472   .     S
C323   O354    1.285   .     A
C324   C327    1.400   .     A
C326   C329    1.403   .     A
C326   H335    1.084   .     S
C327   H337    1.076   .     S
C327   C328    1.410   .     A
C328   C329    1.415   .     A
C328   C330    1.424   .     A
C329   C882    1.391   .     S
C330   C880    1.428   .     S
C331   C332    1.431   .     A
C331   C879    1.428   1_554 S
C332   C333    1.393   .     A
C332   N349    1.436   .     S
C333   H334    1.085   .     S
C333   C878    1.391   1_554 S
H339   N349    1.045   .     S
H340   N349    1.045   .     S
H343   C194    1.086   1_655 S
H345   C502    1.086   .     S
O350   Zn365   1.936   .     S
O350   Zn366   1.934   .     S
O350   Zn363   1.958   .     S
O350   Zn364   1.940   .     S
O351   Zn364   1.931   .     S
O352   Zn366   1.938   .     S
O353   Zn365   1.933   .     S
O354   Zn363   1.927   .     S
O355   Zn363   1.928   .     S
O356   Zn366   1.932   .     S
O357   Zn364   1.929   .     S
O358   Zn365   1.936   .     S
O359   Zn366   1.932   .     S
O360   Zn363   1.926   .     S
O361   Zn364   1.937   .     S
O362   Zn365   1.931   .     S
C367   O420    1.270   .     A
C367   O418    1.270   .     A
C367   C377    1.438   .     S
C368   C369    1.385   .     A
C368   C391    1.415   .     A
C368   H399    1.077   .     S
C369   H409    1.084   .     S
C369   C920    1.389   .     S
C370   O419    1.281   .     A
C370   O421    1.278   .     A
C370   C376    1.455   .     S
C371   C372    1.420   .     A
C371   C373    1.404   .     A
C371   C918    1.389   1_554 S
C372   C375    1.407   .     A
C372   C392    1.429   .     A
C373   H402    1.084   .     S
C373   C374    1.391   .     A
C374   C386    1.395   .     A
C374   H408    1.083   .     S
C375   C386    1.393   .     A
C375   H407    1.076   .     S
C376   C438    1.334   .     S
C376   H464    1.088   .     S
C377   C498    1.334   1_455 S
C377   H526    1.086   1_455 S
C378   H397    1.083   .     S
C378   C387    1.393   .     A
C378   C385    1.400   .     A
C379   C382    1.452   .     S
C379   C14     1.332   1_565 S
C379   H39     1.088   1_565 S
C380   C381    1.436   .     S
C381   O422    1.276   .     A
C381   O416    1.276   .     A
C382   O423    1.272   .     A
C382   O417    1.272   .     A
C383   O414    1.275   .     A
C383   C386    1.452   .     S
C383   O412    1.272   .     A
C384   O413    1.283   .     A
C384   C385    1.472   .     S
C384   O415    1.285   .     A
C385   C388    1.400   .     A
C387   C390    1.403   .     A
C387   H396    1.084   .     S
C388   H398    1.076   .     S
C388   C389    1.410   .     A
C389   C390    1.415   .     A
C389   C391    1.424   .     A
C390   C943    1.391   .     S
C391   C941    1.428   .     S
C392   C393    1.431   .     A
C392   C940    1.428   1_554 S
C393   C394    1.393   .     A
C393   N410    1.436   .     S
C394   H395    1.085   .     S
C394   C939    1.391   1_554 S
H400   N410    1.045   .     S
H401   N410    1.045   .     S
H403   C498    1.088   1_455 S
H404   C438    1.086   .     S
H406   C14     1.086   1_565 S
O411   Zn426   1.936   .     S
O411   Zn427   1.934   .     S
O411   Zn424   1.958   .     S
O411   Zn425   1.940   .     S
O412   Zn425   1.931   .     S
O413   Zn427   1.938   .     S
O414   Zn426   1.933   .     S
O415   Zn424   1.927   .     S
O416   Zn424   1.928   .     S
O417   Zn427   1.932   .     S
O418   Zn425   1.929   .     S
O419   Zn426   1.936   .     S
O420   Zn427   1.932   .     S
O421   Zn424   1.926   .     S
O422   Zn425   1.937   .     S
O423   Zn426   1.931   .     S
C428   O481    1.270   .     A
C428   O479    1.270   .     A
C428   C438    1.438   .     S
C429   C430    1.385   .     A
C429   C452    1.415   .     A
C429   H460    1.077   .     S
C430   H470    1.084   .     S
C430   C981    1.389   .     S
C431   O480    1.281   .     A
C431   O482    1.278   .     A
C431   C437    1.455   .     S
C432   C433    1.420   .     A
C432   C434    1.404   .     A
C432   C979    1.389   1_554 S
C433   C436    1.407   .     A
C433   C453    1.429   .     A
C434   H463    1.084   .     S
C434   C435    1.391   .     A
C435   C447    1.395   .     A
C435   H469    1.083   .     S
C436   C447    1.393   .     A
C436   H468    1.076   .     S
C437   C499    1.334   .     S
C437   H525    1.088   .     S
C439   H458    1.083   .     S
C439   C448    1.393   .     A
C439   C446    1.400   .     A
C440   C443    1.452   .     S
C440   C75     1.332   1_565 S
C440   H100    1.088   1_565 S
C441   C442    1.436   .     S
C442   O483    1.276   .     A
C442   O477    1.276   .     A
C443   O484    1.272   .     A
C443   O478    1.272   .     A
C444   O475    1.275   .     A
C444   C447    1.452   .     S
C444   O473    1.272   .     A
C445   O474    1.283   .     A
C445   C446    1.472   .     S
C445   O476    1.285   .     A
C446   C449    1.400   .     A
C448   C451    1.403   .     A
C448   H457    1.084   .     S
C449   H459    1.076   .     S
C449   C450    1.410   .     A
C450   C451    1.415   .     A
C450   C452    1.424   .     A
C451   C1004   1.391   .     S
C452   C1002   1.428   .     S
C453   C454    1.431   .     A
C453   C1001   1.428   1_554 S
C454   C455    1.393   .     A
C454   N471    1.436   .     S
C455   H456    1.085   .     S
C455   C1000   1.391   1_554 S
H461   N471    1.045   .     S
H462   N471    1.045   .     S
H465   C499    1.086   .     S
H467   C75     1.086   1_565 S
O472   Zn487   1.936   .     S
O472   Zn488   1.934   .     S
O472   Zn485   1.958   .     S
O472   Zn486   1.940   .     S
O473   Zn486   1.931   .     S
O474   Zn488   1.938   .     S
O475   Zn487   1.933   .     S
O476   Zn485   1.927   .     S
O477   Zn485   1.928   .     S
O478   Zn488   1.932   .     S
O479   Zn486   1.929   .     S
O480   Zn487   1.936   .     S
O481   Zn488   1.932   .     S
O482   Zn485   1.926   .     S
O483   Zn486   1.937   .     S
O484   Zn487   1.931   .     S
C489   O542    1.270   .     A
C489   O540    1.270   .     A
C489   C499    1.438   .     S
C490   C491    1.385   .     A
C490   C513    1.415   .     A
C490   H521    1.077   .     S
C491   H531    1.084   .     S
C491   C1042   1.389   .     S
C492   O541    1.281   .     A
C492   O543    1.278   .     A
C492   C498    1.455   .     S
C493   C494    1.420   .     A
C493   C495    1.404   .     A
C493   C1040   1.389   1_554 S
C494   C497    1.407   .     A
C494   C514    1.429   .     A
C495   H524    1.084   .     S
C495   C496    1.391   .     A
C496   C508    1.395   .     A
C496   H530    1.083   .     S
C497   C508    1.393   .     A
C497   H529    1.076   .     S
C498   C377    1.334   1_655 S
C498   H403    1.088   1_655 S
C500   H519    1.083   .     S
C500   C509    1.393   .     A
C500   C507    1.400   .     A
C501   C504    1.452   .     S
C501   C136    1.332   1_565 S
C501   H161    1.088   1_565 S
C502   C503    1.436   .     S
C503   O544    1.276   .     A
C503   O538    1.276   .     A
C504   O545    1.272   .     A
C504   O539    1.272   .     A
C505   O536    1.275   .     A
C505   C508    1.452   .     S
C505   O534    1.272   .     A
C506   O535    1.283   .     A
C506   C507    1.472   .     S
C506   O537    1.285   .     A
C507   C510    1.400   .     A
C509   C512    1.403   .     A
C509   H518    1.084   .     S
C510   H520    1.076   .     S
C510   C511    1.410   .     A
C511   C512    1.415   .     A
C511   C513    1.424   .     A
C512   C1065   1.391   .     S
C513   C1063   1.428   .     S
C514   C515    1.431   .     A
C514   C1062   1.428   1_554 S
C515   C516    1.393   .     A
C515   N532    1.436   .     S
C516   H517    1.085   .     S
C516   C1061   1.391   1_554 S
H522   N532    1.045   .     S
H523   N532    1.045   .     S
H526   C377    1.086   1_655 S
H528   C136    1.086   1_565 S
O533   Zn548   1.936   .     S
O533   Zn549   1.934   .     S
O533   Zn546   1.958   .     S
O533   Zn547   1.940   .     S
O534   Zn547   1.931   .     S
O535   Zn549   1.938   .     S
O536   Zn548   1.933   .     S
O537   Zn546   1.927   .     S
O538   Zn546   1.928   .     S
O539   Zn549   1.932   .     S
O540   Zn547   1.929   .     S
O541   Zn548   1.936   .     S
O542   Zn549   1.932   .     S
O543   Zn546   1.926   .     S
O544   Zn547   1.937   .     S
O545   Zn548   1.931   .     S
C550   O603    1.270   .     A
C550   O601    1.270   .     A
C550   C560    1.438   .     S
C551   C552    1.385   .     A
C551   C574    1.415   .     A
C551   H582    1.077   .     S
C552   H592    1.084   .     S
C552   C5      1.389   1_556 S
C553   O602    1.281   .     A
C553   O604    1.278   .     A
C553   C559    1.455   .     S
C554   C555    1.420   .     A
C554   C556    1.404   .     A
C555   C558    1.407   .     A
C555   C575    1.429   .     A
C556   H585    1.084   .     S
C556   C557    1.391   .     A
C557   C569    1.395   .     A
C557   H591    1.083   .     S
C558   C569    1.393   .     A
C558   H590    1.076   .     S
C559   C621    1.334   .     S
C559   H647    1.088   .     S
C560   C681    1.334   1_455 S
C560   H709    1.086   1_455 S
C561   H580    1.083   .     S
C561   C570    1.393   .     A
C561   C568    1.400   .     A
C562   C565    1.452   .     S
C562   C746    1.332   .     S
C562   H771    1.088   .     S
C563   C564    1.436   .     S
C563   C928    1.332   1_545 S
C563   H955    1.086   1_545 S
C564   O605    1.276   .     A
C564   O599    1.276   .     A
C565   O606    1.272   .     A
C565   O600    1.272   .     A
C566   O597    1.275   .     A
C566   C569    1.452   .     S
C566   O595    1.272   .     A
C567   O596    1.283   .     A
C567   C568    1.472   .     S
C567   O598    1.285   .     A
C568   C571    1.400   .     A
C570   C573    1.403   .     A
C570   H579    1.084   .     S
C571   H581    1.076   .     S
C571   C572    1.410   .     A
C572   C573    1.415   .     A
C572   C574    1.424   .     A
C573   C28     1.391   1_556 S
C574   C26     1.428   1_556 S
C575   C576    1.431   .     A
C576   C577    1.393   .     A
C576   N593    1.436   .     S
C577   H578    1.085   .     S
H583   N593    1.045   .     S
H584   N593    1.045   .     S
H586   C681    1.088   1_455 S
H587   C621    1.086   .     S
H588   C928    1.088   1_545 S
H589   C746    1.086   .     S
O594   Zn609   1.936   .     S
O594   Zn610   1.934   .     S
O594   Zn607   1.958   .     S
O594   Zn608   1.940   .     S
O595   Zn608   1.931   .     S
O596   Zn610   1.938   .     S
O597   Zn609   1.933   .     S
O598   Zn607   1.927   .     S
O599   Zn607   1.928   .     S
O600   Zn610   1.932   .     S
O601   Zn608   1.929   .     S
O602   Zn609   1.936   .     S
O603   Zn610   1.932   .     S
O604   Zn607   1.926   .     S
O605   Zn608   1.937   .     S
O606   Zn609   1.931   .     S
C611   O664    1.270   .     A
C611   O662    1.270   .     A
C611   C621    1.438   .     S
C612   C613    1.385   .     A
C612   C635    1.415   .     A
C612   H643    1.077   .     S
C613   H653    1.084   .     S
C613   C66     1.389   1_556 S
C614   O663    1.281   .     A
C614   O665    1.278   .     A
C614   C620    1.455   .     S
C615   C616    1.420   .     A
C615   C617    1.404   .     A
C616   C619    1.407   .     A
C616   C636    1.429   .     A
C617   H646    1.084   .     S
C617   C618    1.391   .     A
C618   C630    1.395   .     A
C618   H652    1.083   .     S
C619   C630    1.393   .     A
C619   H651    1.076   .     S
C620   C682    1.334   .     S
C620   H708    1.088   .     S
C622   H641    1.083   .     S
C622   C631    1.393   .     A
C622   C629    1.400   .     A
C623   C626    1.452   .     S
C623   C807    1.332   .     S
C623   H832    1.088   .     S
C624   C625    1.436   .     S
C624   C989    1.332   1_545 S
C624   H1016   1.086   1_545 S
C625   O666    1.276   .     A
C625   O660    1.276   .     A
C626   O667    1.272   .     A
C626   O661    1.272   .     A
C627   O658    1.275   .     A
C627   C630    1.452   .     S
C627   O656    1.272   .     A
C628   O657    1.283   .     A
C628   C629    1.472   .     S
C628   O659    1.285   .     A
C629   C632    1.400   .     A
C631   C634    1.403   .     A
C631   H640    1.084   .     S
C632   H642    1.076   .     S
C632   C633    1.410   .     A
C633   C634    1.415   .     A
C633   C635    1.424   .     A
C634   C89     1.391   1_556 S
C635   C87     1.428   1_556 S
C636   C637    1.431   .     A
C637   C638    1.393   .     A
C637   N654    1.436   .     S
C638   H639    1.085   .     S
H644   N654    1.045   .     S
H645   N654    1.045   .     S
H648   C682    1.086   .     S
H649   C989    1.088   1_545 S
H650   C807    1.086   .     S
O655   Zn670   1.936   .     S
O655   Zn671   1.934   .     S
O655   Zn668   1.958   .     S
O655   Zn669   1.940   .     S
O656   Zn669   1.931   .     S
O657   Zn671   1.938   .     S
O658   Zn670   1.933   .     S
O659   Zn668   1.927   .     S
O660   Zn668   1.928   .     S
O661   Zn671   1.932   .     S
O662   Zn669   1.929   .     S
O663   Zn670   1.936   .     S
O664   Zn671   1.932   .     S
O665   Zn668   1.926   .     S
O666   Zn669   1.937   .     S
O667   Zn670   1.931   .     S
C672   O725    1.270   .     A
C672   O723    1.270   .     A
C672   C682    1.438   .     S
C673   C674    1.385   .     A
C673   C696    1.415   .     A
C673   H704    1.077   .     S
C674   H714    1.084   .     S
C674   C127    1.389   1_556 S
C675   O724    1.281   .     A
C675   O726    1.278   .     A
C675   C681    1.455   .     S
C676   C677    1.420   .     A
C676   C678    1.404   .     A
C677   C680    1.407   .     A
C677   C697    1.429   .     A
C678   H707    1.084   .     S
C678   C679    1.391   .     A
C679   C691    1.395   .     A
C679   H713    1.083   .     S
C680   C691    1.393   .     A
C680   H712    1.076   .     S
C681   C560    1.334   1_655 S
C681   H586    1.088   1_655 S
C683   H702    1.083   .     S
C683   C692    1.393   .     A
C683   C690    1.400   .     A
C684   C687    1.452   .     S
C684   C868    1.332   .     S
C684   H893    1.088   .     S
C685   C686    1.436   .     S
C685   C1050   1.332   1_545 S
C685   H1077   1.086   1_545 S
C686   O727    1.276   .     A
C686   O721    1.276   .     A
C687   O728    1.272   .     A
C687   O722    1.272   .     A
C688   O719    1.275   .     A
C688   C691    1.452   .     S
C688   O717    1.272   .     A
C689   O718    1.283   .     A
C689   C690    1.472   .     S
C689   O720    1.285   .     A
C690   C693    1.400   .     A
C692   C695    1.403   .     A
C692   H701    1.084   .     S
C693   H703    1.076   .     S
C693   C694    1.410   .     A
C694   C695    1.415   .     A
C694   C696    1.424   .     A
C695   C150    1.391   1_556 S
C696   C148    1.428   1_556 S
C697   C698    1.431   .     A
C698   C699    1.393   .     A
C698   N715    1.436   .     S
C699   H700    1.085   .     S
H705   N715    1.045   .     S
H706   N715    1.045   .     S
H709   C560    1.086   1_655 S
H710   C1050   1.088   1_545 S
H711   C868    1.086   .     S
O716   Zn731   1.936   .     S
O716   Zn732   1.934   .     S
O716   Zn729   1.958   .     S
O716   Zn730   1.940   .     S
O717   Zn730   1.931   .     S
O718   Zn732   1.938   .     S
O719   Zn731   1.933   .     S
O720   Zn729   1.927   .     S
O721   Zn729   1.928   .     S
O722   Zn732   1.932   .     S
O723   Zn730   1.929   .     S
O724   Zn731   1.936   .     S
O725   Zn732   1.932   .     S
O726   Zn729   1.926   .     S
O727   Zn730   1.937   .     S
O728   Zn731   1.931   .     S
C733   O786    1.270   .     A
C733   O784    1.270   .     A
C733   C743    1.438   .     S
C734   C735    1.385   .     A
C734   C757    1.415   .     A
C734   H765    1.077   .     S
C735   H775    1.084   .     S
C735   C188    1.389   1_556 S
C736   O785    1.281   .     A
C736   O787    1.278   .     A
C736   C742    1.455   .     S
C737   C738    1.420   .     A
C737   C739    1.404   .     A
C738   C741    1.407   .     A
C738   C758    1.429   .     A
C739   H768    1.084   .     S
C739   C740    1.391   .     A
C740   C752    1.395   .     A
C740   H774    1.083   .     S
C741   C752    1.393   .     A
C741   H773    1.076   .     S
C742   C804    1.334   .     S
C742   H830    1.088   .     S
C743   C864    1.334   1_455 S
C743   H892    1.086   1_455 S
C744   H763    1.083   .     S
C744   C753    1.393   .     A
C744   C751    1.400   .     A
C745   C748    1.452   .     S
C745   C929    1.332   .     S
C745   H954    1.088   .     S
C746   C747    1.436   .     S
C747   O788    1.276   .     A
C747   O782    1.276   .     A
C748   O789    1.272   .     A
C748   O783    1.272   .     A
C749   O780    1.275   .     A
C749   C752    1.452   .     S
C749   O778    1.272   .     A
C750   O779    1.283   .     A
C750   C751    1.472   .     S
C750   O781    1.285   .     A
C751   C754    1.400   .     A
C753   C756    1.403   .     A
C753   H762    1.084   .     S
C754   H764    1.076   .     S
C754   C755    1.410   .     A
C755   C756    1.415   .     A
C755   C757    1.424   .     A
C756   C211    1.391   1_556 S
C757   C209    1.428   1_556 S
C758   C759    1.431   .     A
C759   C760    1.393   .     A
C759   N776    1.436   .     S
C760   H761    1.085   .     S
H766   N776    1.045   .     S
H767   N776    1.045   .     S
H769   C864    1.088   1_455 S
H770   C804    1.086   .     S
H772   C929    1.086   .     S
O777   Zn792   1.936   .     S
O777   Zn793   1.934   .     S
O777   Zn790   1.958   .     S
O777   Zn791   1.940   .     S
O778   Zn791   1.931   .     S
O779   Zn793   1.938   .     S
O780   Zn792   1.933   .     S
O781   Zn790   1.927   .     S
O782   Zn790   1.928   .     S
O783   Zn793   1.932   .     S
O784   Zn791   1.929   .     S
O785   Zn792   1.936   .     S
O786   Zn793   1.932   .     S
O787   Zn790   1.926   .     S
O788   Zn791   1.937   .     S
O789   Zn792   1.931   .     S
C794   O847    1.270   .     A
C794   O845    1.270   .     A
C794   C804    1.438   .     S
C795   C796    1.385   .     A
C795   C818    1.415   .     A
C795   H826    1.077   .     S
C796   H836    1.084   .     S
C796   C249    1.389   1_556 S
C797   O846    1.281   .     A
C797   O848    1.278   .     A
C797   C803    1.455   .     S
C798   C799    1.420   .     A
C798   C800    1.404   .     A
C799   C802    1.407   .     A
C799   C819    1.429   .     A
C800   H829    1.084   .     S
C800   C801    1.391   .     A
C801   C813    1.395   .     A
C801   H835    1.083   .     S
C802   C813    1.393   .     A
C802   H834    1.076   .     S
C803   C865    1.334   .     S
C803   H891    1.088   .     S
C805   H824    1.083   .     S
C805   C814    1.393   .     A
C805   C812    1.400   .     A
C806   C809    1.452   .     S
C806   C990    1.332   .     S
C806   H1015   1.088   .     S
C807   C808    1.436   .     S
C808   O849    1.276   .     A
C808   O843    1.276   .     A
C809   O850    1.272   .     A
C809   O844    1.272   .     A
C810   O841    1.275   .     A
C810   C813    1.452   .     S
C810   O839    1.272   .     A
C811   O840    1.283   .     A
C811   C812    1.472   .     S
C811   O842    1.285   .     A
C812   C815    1.400   .     A
C814   C817    1.403   .     A
C814   H823    1.084   .     S
C815   H825    1.076   .     S
C815   C816    1.410   .     A
C816   C817    1.415   .     A
C816   C818    1.424   .     A
C817   C272    1.391   1_556 S
C818   C270    1.428   1_556 S
C819   C820    1.431   .     A
C820   C821    1.393   .     A
C820   N837    1.436   .     S
C821   H822    1.085   .     S
H827   N837    1.045   .     S
H828   N837    1.045   .     S
H831   C865    1.086   .     S
H833   C990    1.086   .     S
O838   Zn853   1.936   .     S
O838   Zn854   1.934   .     S
O838   Zn851   1.958   .     S
O838   Zn852   1.940   .     S
O839   Zn852   1.931   .     S
O840   Zn854   1.938   .     S
O841   Zn853   1.933   .     S
O842   Zn851   1.927   .     S
O843   Zn851   1.928   .     S
O844   Zn854   1.932   .     S
O845   Zn852   1.929   .     S
O846   Zn853   1.936   .     S
O847   Zn854   1.932   .     S
O848   Zn851   1.926   .     S
O849   Zn852   1.937   .     S
O850   Zn853   1.931   .     S
C855   O908    1.270   .     A
C855   O906    1.270   .     A
C855   C865    1.438   .     S
C856   C857    1.385   .     A
C856   C879    1.415   .     A
C856   H887    1.077   .     S
C857   H897    1.084   .     S
C857   C310    1.389   1_556 S
C858   O907    1.281   .     A
C858   O909    1.278   .     A
C858   C864    1.455   .     S
C859   C860    1.420   .     A
C859   C861    1.404   .     A
C860   C863    1.407   .     A
C860   C880    1.429   .     A
C861   H890    1.084   .     S
C861   C862    1.391   .     A
C862   C874    1.395   .     A
C862   H896    1.083   .     S
C863   C874    1.393   .     A
C863   H895    1.076   .     S
C864   C743    1.334   1_655 S
C864   H769    1.088   1_655 S
C866   H885    1.083   .     S
C866   C875    1.393   .     A
C866   C873    1.400   .     A
C867   C870    1.452   .     S
C867   C1051   1.332   .     S
C867   H1076   1.088   .     S
C868   C869    1.436   .     S
C869   O910    1.276   .     A
C869   O904    1.276   .     A
C870   O911    1.272   .     A
C870   O905    1.272   .     A
C871   O902    1.275   .     A
C871   C874    1.452   .     S
C871   O900    1.272   .     A
C872   O901    1.283   .     A
C872   C873    1.472   .     S
C872   O903    1.285   .     A
C873   C876    1.400   .     A
C875   C878    1.403   .     A
C875   H884    1.084   .     S
C876   H886    1.076   .     S
C876   C877    1.410   .     A
C877   C878    1.415   .     A
C877   C879    1.424   .     A
C878   C333    1.391   1_556 S
C879   C331    1.428   1_556 S
C880   C881    1.431   .     A
C881   C882    1.393   .     A
C881   N898    1.436   .     S
C882   H883    1.085   .     S
H888   N898    1.045   .     S
H889   N898    1.045   .     S
H892   C743    1.086   1_655 S
H894   C1051   1.086   .     S
O899   Zn914   1.936   .     S
O899   Zn915   1.934   .     S
O899   Zn912   1.958   .     S
O899   Zn913   1.940   .     S
O900   Zn913   1.931   .     S
O901   Zn915   1.938   .     S
O902   Zn914   1.933   .     S
O903   Zn912   1.927   .     S
O904   Zn912   1.928   .     S
O905   Zn915   1.932   .     S
O906   Zn913   1.929   .     S
O907   Zn914   1.936   .     S
O908   Zn915   1.932   .     S
O909   Zn912   1.926   .     S
O910   Zn913   1.937   .     S
O911   Zn914   1.931   .     S
C916   O969    1.270   .     A
C916   O967    1.270   .     A
C916   C926    1.438   .     S
C917   C918    1.385   .     A
C917   C940    1.415   .     A
C917   H948    1.077   .     S
C918   H958    1.084   .     S
C918   C371    1.389   1_556 S
C919   O968    1.281   .     A
C919   O970    1.278   .     A
C919   C925    1.455   .     S
C920   C921    1.420   .     A
C920   C922    1.404   .     A
C921   C924    1.407   .     A
C921   C941    1.429   .     A
C922   H951    1.084   .     S
C922   C923    1.391   .     A
C923   C935    1.395   .     A
C923   H957    1.083   .     S
C924   C935    1.393   .     A
C924   H956    1.076   .     S
C925   C987    1.334   .     S
C925   H1013   1.088   .     S
C926   C1047   1.334   1_455 S
C926   H1075   1.086   1_455 S
C927   H946    1.083   .     S
C927   C936    1.393   .     A
C927   C934    1.400   .     A
C928   C931    1.452   .     S
C928   C563    1.332   1_565 S
C928   H588    1.088   1_565 S
C929   C930    1.436   .     S
C930   O971    1.276   .     A
C930   O965    1.276   .     A
C931   O972    1.272   .     A
C931   O966    1.272   .     A
C932   O963    1.275   .     A
C932   C935    1.452   .     S
C932   O961    1.272   .     A
C933   O962    1.283   .     A
C933   C934    1.472   .     S
C933   O964    1.285   .     A
C934   C937    1.400   .     A
C936   C939    1.403   .     A
C936   H945    1.084   .     S
C937   H947    1.076   .     S
C937   C938    1.410   .     A
C938   C939    1.415   .     A
C938   C940    1.424   .     A
C939   C394    1.391   1_556 S
C940   C392    1.428   1_556 S
C941   C942    1.431   .     A
C942   C943    1.393   .     A
C942   N959    1.436   .     S
C943   H944    1.085   .     S
H949   N959    1.045   .     S
H950   N959    1.045   .     S
H952   C1047   1.088   1_455 S
H953   C987    1.086   .     S
H955   C563    1.086   1_565 S
O960   Zn975   1.936   .     S
O960   Zn976   1.934   .     S
O960   Zn973   1.958   .     S
O960   Zn974   1.940   .     S
O961   Zn974   1.931   .     S
O962   Zn976   1.938   .     S
O963   Zn975   1.933   .     S
O964   Zn973   1.927   .     S
O965   Zn973   1.928   .     S
O966   Zn976   1.932   .     S
O967   Zn974   1.929   .     S
O968   Zn975   1.936   .     S
O969   Zn976   1.932   .     S
O970   Zn973   1.926   .     S
O971   Zn974   1.937   .     S
O972   Zn975   1.931   .     S
C977   O1030   1.270   .     A
C977   O1028   1.270   .     A
C977   C987    1.438   .     S
C978   C979    1.385   .     A
C978   C1001   1.415   .     A
C978   H1009   1.077   .     S
C979   H1019   1.084   .     S
C979   C432    1.389   1_556 S
C980   O1029   1.281   .     A
C980   O1031   1.278   .     A
C980   C986    1.455   .     S
C981   C982    1.420   .     A
C981   C983    1.404   .     A
C982   C985    1.407   .     A
C982   C1002   1.429   .     A
C983   H1012   1.084   .     S
C983   C984    1.391   .     A
C984   C996    1.395   .     A
C984   H1018   1.083   .     S
C985   C996    1.393   .     A
C985   H1017   1.076   .     S
C986   C1048   1.334   .     S
C986   H1074   1.088   .     S
C988   H1007   1.083   .     S
C988   C997    1.393   .     A
C988   C995    1.400   .     A
C989   C992    1.452   .     S
C989   C624    1.332   1_565 S
C989   H649    1.088   1_565 S
C990   C991    1.436   .     S
C991   O1032   1.276   .     A
C991   O1026   1.276   .     A
C992   O1033   1.272   .     A
C992   O1027   1.272   .     A
C993   O1024   1.275   .     A
C993   C996    1.452   .     S
C993   O1022   1.272   .     A
C994   O1023   1.283   .     A
C994   C995    1.472   .     S
C994   O1025   1.285   .     A
C995   C998    1.400   .     A
C997   C1000   1.403   .     A
C997   H1006   1.084   .     S
C998   H1008   1.076   .     S
C998   C999    1.410   .     A
C999   C1000   1.415   .     A
C999   C1001   1.424   .     A
C1000  C455    1.391   1_556 S
C1001  C453    1.428   1_556 S
C1002  C1003   1.431   .     A
C1003  C1004   1.393   .     A
C1003  N1020   1.436   .     S
C1004  H1005   1.085   .     S
H1010  N1020   1.045   .     S
H1011  N1020   1.045   .     S
H1014  C1048   1.086   .     S
H1016  C624    1.086   1_565 S
O1021  Zn1036  1.936   .     S
O1021  Zn1037  1.934   .     S
O1021  Zn1034  1.958   .     S
O1021  Zn1035  1.940   .     S
O1022  Zn1035  1.931   .     S
O1023  Zn1037  1.938   .     S
O1024  Zn1036  1.933   .     S
O1025  Zn1034  1.927   .     S
O1026  Zn1034  1.928   .     S
O1027  Zn1037  1.932   .     S
O1028  Zn1035  1.929   .     S
O1029  Zn1036  1.936   .     S
O1030  Zn1037  1.932   .     S
O1031  Zn1034  1.926   .     S
O1032  Zn1035  1.937   .     S
O1033  Zn1036  1.931   .     S
C1038  O1091   1.270   .     A
C1038  O1089   1.270   .     A
C1038  C1048   1.438   .     S
C1039  C1040   1.385   .     A
C1039  C1062   1.415   .     A
C1039  H1070   1.077   .     S
C1040  H1080   1.084   .     S
C1040  C493    1.389   1_556 S
C1041  O1090   1.281   .     A
C1041  O1092   1.278   .     A
C1041  C1047   1.455   .     S
C1042  C1043   1.420   .     A
C1042  C1044   1.404   .     A
C1043  C1046   1.407   .     A
C1043  C1063   1.429   .     A
C1044  H1073   1.084   .     S
C1044  C1045   1.391   .     A
C1045  C1057   1.395   .     A
C1045  H1079   1.083   .     S
C1046  C1057   1.393   .     A
C1046  H1078   1.076   .     S
C1047  C926    1.334   1_655 S
C1047  H952    1.088   1_655 S
C1049  H1068   1.083   .     S
C1049  C1058   1.393   .     A
C1049  C1056   1.400   .     A
C1050  C1053   1.452   .     S
C1050  C685    1.332   1_565 S
C1050  H710    1.088   1_565 S
C1051  C1052   1.436   .     S
C1052  O1093   1.276   .     A
C1052  O1087   1.276   .     A
C1053  O1094   1.272   .     A
C1053  O1088   1.272   .     A
C1054  O1085   1.275   .     A
C1054  C1057   1.452   .     S
C1054  O1083   1.272   .     A
C1055  O1084   1.283   .     A
C1055  C1056   1.472   .     S
C1055  O1086   1.285   .     A
C1056  C1059   1.400   .     A
C1058  C1061   1.403   .     A
C1058  H1067   1.084   .     S
C1059  H1069   1.076   .     S
C1059  C1060   1.410   .     A
C1060  C1061   1.415   .     A
C1060  C1062   1.424   .     A
C1061  C516    1.391   1_556 S
C1062  C514    1.428   1_556 S
C1063  C1064   1.431   .     A
C1064  C1065   1.393   .     A
C1064  N1081   1.436   .     S
C1065  H1066   1.085   .     S
H1071  N1081   1.045   .     S
H1072  N1081   1.045   .     S
H1075  C926    1.086   1_655 S
H1077  C685    1.086   1_565 S
O1082  Zn1097  1.936   .     S
O1082  Zn1098  1.934   .     S
O1082  Zn1095  1.958   .     S
O1082  Zn1096  1.940   .     S
O1083  Zn1096  1.931   .     S
O1084  Zn1098  1.938   .     S
O1085  Zn1097  1.933   .     S
O1086  Zn1095  1.927   .     S
O1087  Zn1095  1.928   .     S
O1088  Zn1098  1.932   .     S
O1089  Zn1096  1.929   .     S
O1090  Zn1097  1.936   .     S
O1091  Zn1098  1.932   .     S
O1092  Zn1095  1.926   .     S
O1093  Zn1096  1.937   .     S
O1094  Zn1097  1.931   .     S
