data_str_m1_o10_o16_pcu_sym.17
_audit_creation_date              2020-01-03
_audit_creation_method            'Materials Studio'
_symmetry_space_group_name_H-M    'P1'
_symmetry_Int_Tables_number       1
_symmetry_cell_setting            triclinic
loop_
_symmetry_equiv_pos_as_xyz
  x,y,z
_cell_length_a                    32.7203
_cell_length_b                    32.4699
_cell_length_c                    31.1398
_cell_angle_alpha                 96.6534
_cell_angle_beta                  74.7989
_cell_angle_gamma                 98.6090
loop_
_atom_site_label
_atom_site_type_symbol
_atom_site_fract_x
_atom_site_fract_y
_atom_site_fract_z
_atom_site_U_iso_or_equiv
_atom_site_adp_type
_atom_site_occupancy
C1     C     0.05308   0.15972   0.25970   0.00000  Uiso   1.00
C2     C     0.17571   0.16846   0.05936   0.00000  Uiso   1.00
C3     C     0.20178   0.10232   0.06088   0.00000  Uiso   1.00
C4     C     0.28070   0.17355   0.23999   0.00000  Uiso   1.00
C5     C     0.14752   0.19850   0.41825   0.00000  Uiso   1.00
C6     C     0.32644   0.17733   0.23728   0.00000  Uiso   1.00
C7     C     0.00786   0.15602   0.26405   0.00000  Uiso   1.00
C8     C     0.18041   0.32250   0.23663   0.00000  Uiso   1.00
C9     C     0.15178   0.01171   0.26371   0.00000  Uiso   1.00
C10    C     0.15609   0.05589   0.26016   0.00000  Uiso   1.00
C11    C     0.17656   0.27787   0.24020   0.00000  Uiso   1.00
C12    C     0.15997   0.25666   0.47180   0.00000  Uiso   1.00
C13    C     0.18529   0.14784   0.12956   0.00000  Uiso   1.00
C14    C     0.14881   0.18504   0.37086   0.00000  Uiso   1.00
C15    C     0.19622   0.08977   0.01850   0.00000  Uiso   1.00
C16    C     0.19032   0.14082   0.08176   0.00000  Uiso   1.00
C17    C     0.14682   0.24158   0.43294   0.00000  Uiso   1.00
C18    C     0.32586   0.11733   0.33121   0.00000  Uiso   1.00
C19    C     0.15051   0.31338   0.41014   0.00000  Uiso   1.00
C20    C     0.03302   0.18789   0.16133   0.00000  Uiso   1.00
C21    C     0.17183   0.22985   0.49660   0.00000  Uiso   1.00
C22    C     0.16656   0.18630   0.48660   0.00000  Uiso   1.00
C23    C     0.15567   0.17057   0.44604   0.00000  Uiso   1.00
C24    C     0.17523   0.15814   0.01392   0.00000  Uiso   1.00
C25    C     0.18144   0.11666   0.49566   0.00000  Uiso   1.00
C26    C     0.17029   0.10156   0.45607   0.00000  Uiso   1.00
C27    C     0.15458   0.12732   0.43345   0.00000  Uiso   1.00
Cl28   Cl    0.14740   0.20853   0.09258   0.00000  Uiso   1.00
H29    H     0.21181   0.08061   0.07886   0.00000  Uiso   1.00
H30    H     0.29952   0.09675   0.35165   0.00000  Uiso   1.00
H31    H     0.33111   0.14720   0.35150   0.00000  Uiso   1.00
H32    H     0.02185   0.10154   0.32223   0.00000  Uiso   1.00
H33    H     0.10338   0.26302   0.40544   0.00000  Uiso   1.00
H34    H     0.14441   0.32826   0.38244   0.00000  Uiso   1.00
H35    H     0.18549   0.31790   0.40696   0.00000  Uiso   1.00
H36    H     0.13358   0.32882   0.44224   0.00000  Uiso   1.00
H37    H     0.04669   0.22155   0.21788   0.00000  Uiso   1.00
H38    H     0.05180   0.21263   0.13983   0.00000  Uiso   1.00
H39    H     0.00418   0.17567   0.14910   0.00000  Uiso   1.00
H40    H     0.20681   0.00382   0.21177   0.00000  Uiso   1.00
H41    H     0.05283   0.16227   0.15856   0.00000  Uiso   1.00
H42    H     0.12499   0.33118   0.28866   0.00000  Uiso   1.00
H43    H     0.17210   0.06918   0.44347   0.00000  Uiso   1.00
H44    H     0.20210   0.05850   0.00418   0.00000  Uiso   1.00
H45    H     0.18663   0.24409   0.02274   0.00000  Uiso   1.00
H46    H     0.16243   0.28958   0.48271   0.00000  Uiso   1.00
H47    H     0.14265   0.11293   0.40533   0.00000  Uiso   1.00
H48    H     0.30486   0.09821   0.27332   0.00000  Uiso   1.00
N49    N     0.31425   0.12503   0.29133   0.00000  Uiso   1.00
N50    N     0.13478   0.26931   0.40718   0.00000  Uiso   1.00
N51    N     0.02114   0.20532   0.20710   0.00000  Uiso   1.00
O52    O     0.16667   0.16667   0.25000   0.00000  Uiso   1.00
O53    O     0.15451   0.12637   0.15458   0.00000  Uiso   1.00
O54    O     0.12940   0.20391   0.34968   0.00000  Uiso   1.00
O55    O     0.20824   0.17759   0.14606   0.00000  Uiso   1.00
O56    O     0.17451   0.15880   0.34968   0.00000  Uiso   1.00
O57    O     0.17930   0.08019   0.28213   0.00000  Uiso   1.00
O58    O     0.14632   0.26085   0.27014   0.00000  Uiso   1.00
O59    O     0.07412   0.13291   0.23413   0.00000  Uiso   1.00
O60    O     0.26693   0.19272   0.21360   0.00000  Uiso   1.00
O61    O     0.07071   0.18878   0.28213   0.00000  Uiso   1.00
O62    O     0.25491   0.15226   0.27013   0.00000  Uiso   1.00
O63    O     0.13760   0.06944   0.23413   0.00000  Uiso   1.00
O64    O     0.20345   0.25620   0.21361   0.00000  Uiso   1.00
Zn65   Zn    0.19338   0.13994   0.28734   0.00000  Uiso   1.00
Zn66   Zn    0.13379   0.12458   0.21875   0.00000  Uiso   1.00
Zn67   Zn    0.21056   0.19775   0.20657   0.00000  Uiso   1.00
Zn68   Zn    0.12893   0.20439   0.28734   0.00000  Uiso   1.00
C69    C     0.38641   0.15972   0.25970   0.00000  Uiso   1.00
C70    C     0.50904   0.16846   0.05936   0.00000  Uiso   1.00
C71    C     0.53511   0.10232   0.06088   0.00000  Uiso   1.00
C72    C     0.61404   0.17355   0.23999   0.00000  Uiso   1.00
C73    C     0.48085   0.19850   0.41825   0.00000  Uiso   1.00
C74    C     0.65977   0.17733   0.23728   0.00000  Uiso   1.00
C75    C     0.34119   0.15602   0.26405   0.00000  Uiso   1.00
C76    C     0.51375   0.32250   0.23663   0.00000  Uiso   1.00
C77    C     0.48512   0.01171   0.26371   0.00000  Uiso   1.00
C78    C     0.48942   0.05589   0.26016   0.00000  Uiso   1.00
C79    C     0.50989   0.27787   0.24020   0.00000  Uiso   1.00
C80    C     0.49330   0.25666   0.47180   0.00000  Uiso   1.00
C81    C     0.51862   0.14784   0.12956   0.00000  Uiso   1.00
C82    C     0.48214   0.18504   0.37086   0.00000  Uiso   1.00
C83    C     0.52956   0.08977   0.01850   0.00000  Uiso   1.00
C84    C     0.52365   0.14082   0.08176   0.00000  Uiso   1.00
C85    C     0.48015   0.24158   0.43294   0.00000  Uiso   1.00
C86    C     0.65919   0.11733   0.33121   0.00000  Uiso   1.00
C87    C     0.48384   0.31338   0.41014   0.00000  Uiso   1.00
C88    C     0.36635   0.18789   0.16133   0.00000  Uiso   1.00
C89    C     0.50517   0.22985   0.49660   0.00000  Uiso   1.00
C90    C     0.49989   0.18630   0.48660   0.00000  Uiso   1.00
C91    C     0.48901   0.17057   0.44604   0.00000  Uiso   1.00
C92    C     0.50857   0.15814   0.01392   0.00000  Uiso   1.00
C93    C     0.51478   0.11666   0.49566   0.00000  Uiso   1.00
C94    C     0.50363   0.10156   0.45607   0.00000  Uiso   1.00
C95    C     0.48792   0.12732   0.43345   0.00000  Uiso   1.00
Cl96   Cl    0.48073   0.20853   0.09258   0.00000  Uiso   1.00
H97    H     0.54515   0.08061   0.07886   0.00000  Uiso   1.00
H98    H     0.63285   0.09675   0.35165   0.00000  Uiso   1.00
H99    H     0.66444   0.14720   0.35150   0.00000  Uiso   1.00
H100   H     0.35518   0.10154   0.32223   0.00000  Uiso   1.00
H101   H     0.43672   0.26302   0.40544   0.00000  Uiso   1.00
H102   H     0.47774   0.32826   0.38244   0.00000  Uiso   1.00
H103   H     0.51882   0.31790   0.40696   0.00000  Uiso   1.00
H104   H     0.46692   0.32882   0.44224   0.00000  Uiso   1.00
H105   H     0.38002   0.22155   0.21788   0.00000  Uiso   1.00
H106   H     0.38513   0.21263   0.13983   0.00000  Uiso   1.00
H107   H     0.33752   0.17567   0.14910   0.00000  Uiso   1.00
H108   H     0.54015   0.00382   0.21177   0.00000  Uiso   1.00
H109   H     0.38616   0.16227   0.15856   0.00000  Uiso   1.00
H110   H     0.45832   0.33118   0.28866   0.00000  Uiso   1.00
H111   H     0.50543   0.06918   0.44347   0.00000  Uiso   1.00
H112   H     0.53544   0.05850   0.00418   0.00000  Uiso   1.00
H113   H     0.51996   0.24409   0.02274   0.00000  Uiso   1.00
H114   H     0.49577   0.28958   0.48271   0.00000  Uiso   1.00
H115   H     0.47599   0.11293   0.40533   0.00000  Uiso   1.00
H116   H     0.63819   0.09821   0.27332   0.00000  Uiso   1.00
N117   N     0.64759   0.12503   0.29133   0.00000  Uiso   1.00
N118   N     0.46811   0.26931   0.40718   0.00000  Uiso   1.00
N119   N     0.35447   0.20532   0.20710   0.00000  Uiso   1.00
O120   O     0.50000   0.16667   0.25000   0.00000  Uiso   1.00
O121   O     0.48784   0.12637   0.15458   0.00000  Uiso   1.00
O122   O     0.46274   0.20391   0.34968   0.00000  Uiso   1.00
O123   O     0.54157   0.17759   0.14606   0.00000  Uiso   1.00
O124   O     0.50785   0.15880   0.34968   0.00000  Uiso   1.00
O125   O     0.51264   0.08019   0.28213   0.00000  Uiso   1.00
O126   O     0.47965   0.26085   0.27014   0.00000  Uiso   1.00
O127   O     0.40745   0.13291   0.23413   0.00000  Uiso   1.00
O128   O     0.60026   0.19272   0.21360   0.00000  Uiso   1.00
O129   O     0.40405   0.18878   0.28213   0.00000  Uiso   1.00
O130   O     0.58824   0.15226   0.27013   0.00000  Uiso   1.00
O131   O     0.47093   0.06944   0.23413   0.00000  Uiso   1.00
O132   O     0.53678   0.25620   0.21361   0.00000  Uiso   1.00
Zn133  Zn    0.52672   0.13994   0.28734   0.00000  Uiso   1.00
Zn134  Zn    0.46713   0.12458   0.21875   0.00000  Uiso   1.00
Zn135  Zn    0.54389   0.19775   0.20657   0.00000  Uiso   1.00
Zn136  Zn    0.46226   0.20439   0.28734   0.00000  Uiso   1.00
C137   C     0.71975   0.15972   0.25970   0.00000  Uiso   1.00
C138   C     0.84238   0.16846   0.05936   0.00000  Uiso   1.00
C139   C     0.86844   0.10232   0.06088   0.00000  Uiso   1.00
C140   C     0.94737   0.17355   0.23999   0.00000  Uiso   1.00
C141   C     0.81418   0.19850   0.41825   0.00000  Uiso   1.00
C142   C     0.99311   0.17733   0.23728   0.00000  Uiso   1.00
C143   C     0.67452   0.15602   0.26405   0.00000  Uiso   1.00
C144   C     0.84708   0.32250   0.23663   0.00000  Uiso   1.00
C145   C     0.81845   0.01171   0.26371   0.00000  Uiso   1.00
C146   C     0.82276   0.05589   0.26016   0.00000  Uiso   1.00
C147   C     0.84322   0.27787   0.24020   0.00000  Uiso   1.00
C148   C     0.82664   0.25666   0.47180   0.00000  Uiso   1.00
C149   C     0.85196   0.14784   0.12956   0.00000  Uiso   1.00
C150   C     0.81548   0.18504   0.37086   0.00000  Uiso   1.00
C151   C     0.86289   0.08977   0.01850   0.00000  Uiso   1.00
C152   C     0.85699   0.14082   0.08176   0.00000  Uiso   1.00
C153   C     0.81349   0.24158   0.43294   0.00000  Uiso   1.00
C154   C     0.99253   0.11733   0.33121   0.00000  Uiso   1.00
C155   C     0.81718   0.31338   0.41014   0.00000  Uiso   1.00
C156   C     0.69969   0.18789   0.16133   0.00000  Uiso   1.00
C157   C     0.83850   0.22985   0.49660   0.00000  Uiso   1.00
C158   C     0.83323   0.18630   0.48660   0.00000  Uiso   1.00
C159   C     0.82234   0.17057   0.44604   0.00000  Uiso   1.00
C160   C     0.84190   0.15814   0.01392   0.00000  Uiso   1.00
C161   C     0.84811   0.11666   0.49566   0.00000  Uiso   1.00
C162   C     0.83696   0.10156   0.45607   0.00000  Uiso   1.00
C163   C     0.82125   0.12732   0.43345   0.00000  Uiso   1.00
Cl164  Cl    0.81407   0.20853   0.09258   0.00000  Uiso   1.00
H165   H     0.87848   0.08061   0.07886   0.00000  Uiso   1.00
H166   H     0.96619   0.09675   0.35165   0.00000  Uiso   1.00
H167   H     0.99778   0.14720   0.35150   0.00000  Uiso   1.00
H168   H     0.68852   0.10154   0.32223   0.00000  Uiso   1.00
H169   H     0.77005   0.26302   0.40544   0.00000  Uiso   1.00
H170   H     0.81107   0.32826   0.38244   0.00000  Uiso   1.00
H171   H     0.85215   0.31790   0.40696   0.00000  Uiso   1.00
H172   H     0.80025   0.32882   0.44224   0.00000  Uiso   1.00
H173   H     0.71335   0.22155   0.21788   0.00000  Uiso   1.00
H174   H     0.71847   0.21263   0.13983   0.00000  Uiso   1.00
H175   H     0.67085   0.17567   0.14910   0.00000  Uiso   1.00
H176   H     0.87348   0.00382   0.21177   0.00000  Uiso   1.00
H177   H     0.71949   0.16227   0.15856   0.00000  Uiso   1.00
H178   H     0.79166   0.33118   0.28866   0.00000  Uiso   1.00
H179   H     0.83876   0.06918   0.44347   0.00000  Uiso   1.00
H180   H     0.86877   0.05850   0.00418   0.00000  Uiso   1.00
H181   H     0.85329   0.24409   0.02274   0.00000  Uiso   1.00
H182   H     0.82910   0.28958   0.48271   0.00000  Uiso   1.00
H183   H     0.80932   0.11293   0.40533   0.00000  Uiso   1.00
H184   H     0.97153   0.09821   0.27332   0.00000  Uiso   1.00
N185   N     0.98092   0.12503   0.29133   0.00000  Uiso   1.00
N186   N     0.80145   0.26931   0.40718   0.00000  Uiso   1.00
N187   N     0.68781   0.20532   0.20710   0.00000  Uiso   1.00
O188   O     0.83333   0.16667   0.25000   0.00000  Uiso   1.00
O189   O     0.82118   0.12637   0.15458   0.00000  Uiso   1.00
O190   O     0.79607   0.20391   0.34968   0.00000  Uiso   1.00
O191   O     0.87491   0.17759   0.14606   0.00000  Uiso   1.00
O192   O     0.84118   0.15880   0.34968   0.00000  Uiso   1.00
O193   O     0.84597   0.08019   0.28213   0.00000  Uiso   1.00
O194   O     0.81298   0.26085   0.27014   0.00000  Uiso   1.00
O195   O     0.74078   0.13291   0.23413   0.00000  Uiso   1.00
O196   O     0.93360   0.19272   0.21360   0.00000  Uiso   1.00
O197   O     0.73738   0.18878   0.28213   0.00000  Uiso   1.00
O198   O     0.92158   0.15226   0.27013   0.00000  Uiso   1.00
O199   O     0.80426   0.06944   0.23413   0.00000  Uiso   1.00
O200   O     0.87012   0.25620   0.21361   0.00000  Uiso   1.00
Zn201  Zn    0.86005   0.13994   0.28734   0.00000  Uiso   1.00
Zn202  Zn    0.80046   0.12458   0.21875   0.00000  Uiso   1.00
Zn203  Zn    0.87723   0.19775   0.20657   0.00000  Uiso   1.00
Zn204  Zn    0.79560   0.20439   0.28734   0.00000  Uiso   1.00
C205   C     0.05308   0.49305   0.25970   0.00000  Uiso   1.00
C206   C     0.17571   0.50179   0.05936   0.00000  Uiso   1.00
C207   C     0.20178   0.43565   0.06088   0.00000  Uiso   1.00
C208   C     0.28070   0.50689   0.23999   0.00000  Uiso   1.00
C209   C     0.14752   0.53184   0.41825   0.00000  Uiso   1.00
C210   C     0.32644   0.51066   0.23728   0.00000  Uiso   1.00
C211   C     0.00786   0.48935   0.26405   0.00000  Uiso   1.00
C212   C     0.18041   0.65584   0.23663   0.00000  Uiso   1.00
C213   C     0.15178   0.34504   0.26371   0.00000  Uiso   1.00
C214   C     0.15609   0.38922   0.26016   0.00000  Uiso   1.00
C215   C     0.17656   0.61120   0.24020   0.00000  Uiso   1.00
C216   C     0.15997   0.58999   0.47180   0.00000  Uiso   1.00
C217   C     0.18529   0.48117   0.12956   0.00000  Uiso   1.00
C218   C     0.14881   0.51837   0.37086   0.00000  Uiso   1.00
C219   C     0.19622   0.42310   0.01850   0.00000  Uiso   1.00
C220   C     0.19032   0.47415   0.08176   0.00000  Uiso   1.00
C221   C     0.14682   0.57491   0.43294   0.00000  Uiso   1.00
C222   C     0.32586   0.45066   0.33121   0.00000  Uiso   1.00
C223   C     0.15051   0.64672   0.41014   0.00000  Uiso   1.00
C224   C     0.03302   0.52122   0.16133   0.00000  Uiso   1.00
C225   C     0.17183   0.56318   0.49660   0.00000  Uiso   1.00
C226   C     0.16656   0.51963   0.48660   0.00000  Uiso   1.00
C227   C     0.15567   0.50390   0.44604   0.00000  Uiso   1.00
C228   C     0.17523   0.49147   0.01392   0.00000  Uiso   1.00
C229   C     0.18144   0.45000   0.49566   0.00000  Uiso   1.00
C230   C     0.17029   0.43489   0.45607   0.00000  Uiso   1.00
C231   C     0.15458   0.46066   0.43345   0.00000  Uiso   1.00
Cl232  Cl    0.14740   0.54186   0.09258   0.00000  Uiso   1.00
H233   H     0.21181   0.41395   0.07886   0.00000  Uiso   1.00
H234   H     0.29952   0.43009   0.35165   0.00000  Uiso   1.00
H235   H     0.33111   0.48053   0.35150   0.00000  Uiso   1.00
H236   H     0.02185   0.43488   0.32223   0.00000  Uiso   1.00
H237   H     0.10338   0.59636   0.40544   0.00000  Uiso   1.00
H238   H     0.14441   0.66160   0.38244   0.00000  Uiso   1.00
H239   H     0.18549   0.65123   0.40696   0.00000  Uiso   1.00
H240   H     0.13358   0.66215   0.44224   0.00000  Uiso   1.00
H241   H     0.04669   0.55488   0.21788   0.00000  Uiso   1.00
H242   H     0.05180   0.54597   0.13983   0.00000  Uiso   1.00
H243   H     0.00418   0.50901   0.14910   0.00000  Uiso   1.00
H244   H     0.20681   0.33716   0.21177   0.00000  Uiso   1.00
H245   H     0.05283   0.49560   0.15856   0.00000  Uiso   1.00
H246   H     0.12499   0.66452   0.28866   0.00000  Uiso   1.00
H247   H     0.17210   0.40252   0.44347   0.00000  Uiso   1.00
H248   H     0.20210   0.39183   0.00418   0.00000  Uiso   1.00
H249   H     0.18663   0.57742   0.02274   0.00000  Uiso   1.00
H250   H     0.16243   0.62292   0.48271   0.00000  Uiso   1.00
H251   H     0.14265   0.44626   0.40533   0.00000  Uiso   1.00
H252   H     0.30486   0.43154   0.27332   0.00000  Uiso   1.00
N253   N     0.31425   0.45836   0.29133   0.00000  Uiso   1.00
N254   N     0.13478   0.60264   0.40718   0.00000  Uiso   1.00
N255   N     0.02114   0.53866   0.20710   0.00000  Uiso   1.00
O256   O     0.16667   0.50000   0.25000   0.00000  Uiso   1.00
O257   O     0.15451   0.45970   0.15458   0.00000  Uiso   1.00
O258   O     0.12940   0.53724   0.34968   0.00000  Uiso   1.00
O259   O     0.20824   0.51092   0.14606   0.00000  Uiso   1.00
O260   O     0.17451   0.49213   0.34968   0.00000  Uiso   1.00
O261   O     0.17930   0.41352   0.28213   0.00000  Uiso   1.00
O262   O     0.14632   0.59418   0.27014   0.00000  Uiso   1.00
O263   O     0.07412   0.46625   0.23413   0.00000  Uiso   1.00
O264   O     0.26693   0.52605   0.21360   0.00000  Uiso   1.00
O265   O     0.07071   0.52211   0.28213   0.00000  Uiso   1.00
O266   O     0.25491   0.48559   0.27013   0.00000  Uiso   1.00
O267   O     0.13760   0.40277   0.23413   0.00000  Uiso   1.00
O268   O     0.20345   0.58953   0.21361   0.00000  Uiso   1.00
Zn269  Zn    0.19338   0.47327   0.28734   0.00000  Uiso   1.00
Zn270  Zn    0.13379   0.45791   0.21875   0.00000  Uiso   1.00
Zn271  Zn    0.21056   0.53109   0.20657   0.00000  Uiso   1.00
Zn272  Zn    0.12893   0.53773   0.28734   0.00000  Uiso   1.00
C273   C     0.38641   0.49305   0.25970   0.00000  Uiso   1.00
C274   C     0.50904   0.50179   0.05936   0.00000  Uiso   1.00
C275   C     0.53511   0.43565   0.06088   0.00000  Uiso   1.00
C276   C     0.61404   0.50689   0.23999   0.00000  Uiso   1.00
C277   C     0.48085   0.53184   0.41825   0.00000  Uiso   1.00
C278   C     0.65977   0.51066   0.23728   0.00000  Uiso   1.00
C279   C     0.34119   0.48935   0.26405   0.00000  Uiso   1.00
C280   C     0.51375   0.65584   0.23663   0.00000  Uiso   1.00
C281   C     0.48512   0.34504   0.26371   0.00000  Uiso   1.00
C282   C     0.48942   0.38922   0.26016   0.00000  Uiso   1.00
C283   C     0.50989   0.61120   0.24020   0.00000  Uiso   1.00
C284   C     0.49330   0.58999   0.47180   0.00000  Uiso   1.00
C285   C     0.51862   0.48117   0.12956   0.00000  Uiso   1.00
C286   C     0.48214   0.51837   0.37086   0.00000  Uiso   1.00
C287   C     0.52956   0.42310   0.01850   0.00000  Uiso   1.00
C288   C     0.52365   0.47415   0.08176   0.00000  Uiso   1.00
C289   C     0.48015   0.57491   0.43294   0.00000  Uiso   1.00
C290   C     0.65919   0.45066   0.33121   0.00000  Uiso   1.00
C291   C     0.48384   0.64672   0.41014   0.00000  Uiso   1.00
C292   C     0.36635   0.52122   0.16133   0.00000  Uiso   1.00
C293   C     0.50517   0.56318   0.49660   0.00000  Uiso   1.00
C294   C     0.49989   0.51963   0.48660   0.00000  Uiso   1.00
C295   C     0.48901   0.50390   0.44604   0.00000  Uiso   1.00
C296   C     0.50857   0.49147   0.01392   0.00000  Uiso   1.00
C297   C     0.51478   0.45000   0.49566   0.00000  Uiso   1.00
C298   C     0.50363   0.43489   0.45607   0.00000  Uiso   1.00
C299   C     0.48792   0.46066   0.43345   0.00000  Uiso   1.00
Cl300  Cl    0.48073   0.54186   0.09258   0.00000  Uiso   1.00
H301   H     0.54515   0.41395   0.07886   0.00000  Uiso   1.00
H302   H     0.63285   0.43009   0.35165   0.00000  Uiso   1.00
H303   H     0.66444   0.48053   0.35150   0.00000  Uiso   1.00
H304   H     0.35518   0.43488   0.32223   0.00000  Uiso   1.00
H305   H     0.43672   0.59636   0.40544   0.00000  Uiso   1.00
H306   H     0.47774   0.66160   0.38244   0.00000  Uiso   1.00
H307   H     0.51882   0.65123   0.40696   0.00000  Uiso   1.00
H308   H     0.46692   0.66215   0.44224   0.00000  Uiso   1.00
H309   H     0.38002   0.55488   0.21788   0.00000  Uiso   1.00
H310   H     0.38513   0.54597   0.13983   0.00000  Uiso   1.00
H311   H     0.33752   0.50901   0.14910   0.00000  Uiso   1.00
H312   H     0.54015   0.33716   0.21177   0.00000  Uiso   1.00
H313   H     0.38616   0.49560   0.15856   0.00000  Uiso   1.00
H314   H     0.45832   0.66452   0.28866   0.00000  Uiso   1.00
H315   H     0.50543   0.40252   0.44347   0.00000  Uiso   1.00
H316   H     0.53544   0.39183   0.00418   0.00000  Uiso   1.00
H317   H     0.51996   0.57742   0.02274   0.00000  Uiso   1.00
H318   H     0.49577   0.62292   0.48271   0.00000  Uiso   1.00
H319   H     0.47599   0.44626   0.40533   0.00000  Uiso   1.00
H320   H     0.63819   0.43154   0.27332   0.00000  Uiso   1.00
N321   N     0.64759   0.45836   0.29133   0.00000  Uiso   1.00
N322   N     0.46811   0.60264   0.40718   0.00000  Uiso   1.00
N323   N     0.35447   0.53866   0.20710   0.00000  Uiso   1.00
O324   O     0.50000   0.50000   0.25000   0.00000  Uiso   1.00
O325   O     0.48784   0.45970   0.15458   0.00000  Uiso   1.00
O326   O     0.46274   0.53724   0.34968   0.00000  Uiso   1.00
O327   O     0.54157   0.51092   0.14606   0.00000  Uiso   1.00
O328   O     0.50785   0.49213   0.34968   0.00000  Uiso   1.00
O329   O     0.51264   0.41352   0.28213   0.00000  Uiso   1.00
O330   O     0.47965   0.59418   0.27014   0.00000  Uiso   1.00
O331   O     0.40745   0.46625   0.23413   0.00000  Uiso   1.00
O332   O     0.60026   0.52605   0.21360   0.00000  Uiso   1.00
O333   O     0.40405   0.52211   0.28213   0.00000  Uiso   1.00
O334   O     0.58824   0.48559   0.27013   0.00000  Uiso   1.00
O335   O     0.47093   0.40277   0.23413   0.00000  Uiso   1.00
O336   O     0.53678   0.58953   0.21361   0.00000  Uiso   1.00
Zn337  Zn    0.52672   0.47327   0.28734   0.00000  Uiso   1.00
Zn338  Zn    0.46713   0.45791   0.21875   0.00000  Uiso   1.00
Zn339  Zn    0.54389   0.53109   0.20657   0.00000  Uiso   1.00
Zn340  Zn    0.46226   0.53773   0.28734   0.00000  Uiso   1.00
C341   C     0.71975   0.49305   0.25970   0.00000  Uiso   1.00
C342   C     0.84238   0.50179   0.05936   0.00000  Uiso   1.00
C343   C     0.86844   0.43565   0.06088   0.00000  Uiso   1.00
C344   C     0.94737   0.50689   0.23999   0.00000  Uiso   1.00
C345   C     0.81418   0.53184   0.41825   0.00000  Uiso   1.00
C346   C     0.99311   0.51066   0.23728   0.00000  Uiso   1.00
C347   C     0.67452   0.48935   0.26405   0.00000  Uiso   1.00
C348   C     0.84708   0.65584   0.23663   0.00000  Uiso   1.00
C349   C     0.81845   0.34504   0.26371   0.00000  Uiso   1.00
C350   C     0.82276   0.38922   0.26016   0.00000  Uiso   1.00
C351   C     0.84322   0.61120   0.24020   0.00000  Uiso   1.00
C352   C     0.82664   0.58999   0.47180   0.00000  Uiso   1.00
C353   C     0.85196   0.48117   0.12956   0.00000  Uiso   1.00
C354   C     0.81548   0.51837   0.37086   0.00000  Uiso   1.00
C355   C     0.86289   0.42310   0.01850   0.00000  Uiso   1.00
C356   C     0.85699   0.47415   0.08176   0.00000  Uiso   1.00
C357   C     0.81349   0.57491   0.43294   0.00000  Uiso   1.00
C358   C     0.99253   0.45066   0.33121   0.00000  Uiso   1.00
C359   C     0.81718   0.64672   0.41014   0.00000  Uiso   1.00
C360   C     0.69969   0.52122   0.16133   0.00000  Uiso   1.00
C361   C     0.83850   0.56318   0.49660   0.00000  Uiso   1.00
C362   C     0.83323   0.51963   0.48660   0.00000  Uiso   1.00
C363   C     0.82234   0.50390   0.44604   0.00000  Uiso   1.00
C364   C     0.84190   0.49147   0.01392   0.00000  Uiso   1.00
C365   C     0.84811   0.45000   0.49566   0.00000  Uiso   1.00
C366   C     0.83696   0.43489   0.45607   0.00000  Uiso   1.00
C367   C     0.82125   0.46066   0.43345   0.00000  Uiso   1.00
Cl368  Cl    0.81407   0.54186   0.09258   0.00000  Uiso   1.00
H369   H     0.87848   0.41395   0.07886   0.00000  Uiso   1.00
H370   H     0.96619   0.43009   0.35165   0.00000  Uiso   1.00
H371   H     0.99778   0.48053   0.35150   0.00000  Uiso   1.00
H372   H     0.68852   0.43488   0.32223   0.00000  Uiso   1.00
H373   H     0.77005   0.59636   0.40544   0.00000  Uiso   1.00
H374   H     0.81107   0.66160   0.38244   0.00000  Uiso   1.00
H375   H     0.85215   0.65123   0.40696   0.00000  Uiso   1.00
H376   H     0.80025   0.66215   0.44224   0.00000  Uiso   1.00
H377   H     0.71335   0.55488   0.21788   0.00000  Uiso   1.00
H378   H     0.71847   0.54597   0.13983   0.00000  Uiso   1.00
H379   H     0.67085   0.50901   0.14910   0.00000  Uiso   1.00
H380   H     0.87348   0.33716   0.21177   0.00000  Uiso   1.00
H381   H     0.71949   0.49560   0.15856   0.00000  Uiso   1.00
H382   H     0.79166   0.66452   0.28866   0.00000  Uiso   1.00
H383   H     0.83876   0.40252   0.44347   0.00000  Uiso   1.00
H384   H     0.86877   0.39183   0.00418   0.00000  Uiso   1.00
H385   H     0.85329   0.57742   0.02274   0.00000  Uiso   1.00
H386   H     0.82910   0.62292   0.48271   0.00000  Uiso   1.00
H387   H     0.80932   0.44626   0.40533   0.00000  Uiso   1.00
H388   H     0.97153   0.43154   0.27332   0.00000  Uiso   1.00
N389   N     0.98092   0.45836   0.29133   0.00000  Uiso   1.00
N390   N     0.80145   0.60264   0.40718   0.00000  Uiso   1.00
N391   N     0.68781   0.53866   0.20710   0.00000  Uiso   1.00
O392   O     0.83333   0.50000   0.25000   0.00000  Uiso   1.00
O393   O     0.82118   0.45970   0.15458   0.00000  Uiso   1.00
O394   O     0.79607   0.53724   0.34968   0.00000  Uiso   1.00
O395   O     0.87491   0.51092   0.14606   0.00000  Uiso   1.00
O396   O     0.84118   0.49213   0.34968   0.00000  Uiso   1.00
O397   O     0.84597   0.41352   0.28213   0.00000  Uiso   1.00
O398   O     0.81298   0.59418   0.27014   0.00000  Uiso   1.00
O399   O     0.74078   0.46625   0.23413   0.00000  Uiso   1.00
O400   O     0.93360   0.52605   0.21360   0.00000  Uiso   1.00
O401   O     0.73738   0.52211   0.28213   0.00000  Uiso   1.00
O402   O     0.92158   0.48559   0.27013   0.00000  Uiso   1.00
O403   O     0.80426   0.40277   0.23413   0.00000  Uiso   1.00
O404   O     0.87012   0.58953   0.21361   0.00000  Uiso   1.00
Zn405  Zn    0.86005   0.47327   0.28734   0.00000  Uiso   1.00
Zn406  Zn    0.80046   0.45791   0.21875   0.00000  Uiso   1.00
Zn407  Zn    0.87723   0.53109   0.20657   0.00000  Uiso   1.00
Zn408  Zn    0.79560   0.53773   0.28734   0.00000  Uiso   1.00
C409   C     0.05308   0.82638   0.25970   0.00000  Uiso   1.00
C410   C     0.17571   0.83513   0.05936   0.00000  Uiso   1.00
C411   C     0.20178   0.76898   0.06088   0.00000  Uiso   1.00
C412   C     0.28070   0.84022   0.23999   0.00000  Uiso   1.00
C413   C     0.14752   0.86517   0.41825   0.00000  Uiso   1.00
C414   C     0.32644   0.84400   0.23728   0.00000  Uiso   1.00
C415   C     0.00786   0.82268   0.26405   0.00000  Uiso   1.00
C416   C     0.18041   0.98917   0.23663   0.00000  Uiso   1.00
C417   C     0.15178   0.67837   0.26371   0.00000  Uiso   1.00
C418   C     0.15609   0.72255   0.26016   0.00000  Uiso   1.00
C419   C     0.17656   0.94454   0.24020   0.00000  Uiso   1.00
C420   C     0.15997   0.92332   0.47180   0.00000  Uiso   1.00
C421   C     0.18529   0.81451   0.12956   0.00000  Uiso   1.00
C422   C     0.14881   0.85170   0.37086   0.00000  Uiso   1.00
C423   C     0.19622   0.75643   0.01850   0.00000  Uiso   1.00
C424   C     0.19032   0.80748   0.08176   0.00000  Uiso   1.00
C425   C     0.14682   0.90824   0.43294   0.00000  Uiso   1.00
C426   C     0.32586   0.78399   0.33121   0.00000  Uiso   1.00
C427   C     0.15051   0.98005   0.41014   0.00000  Uiso   1.00
C428   C     0.03302   0.85456   0.16133   0.00000  Uiso   1.00
C429   C     0.17183   0.89652   0.49660   0.00000  Uiso   1.00
C430   C     0.16656   0.85297   0.48660   0.00000  Uiso   1.00
C431   C     0.15567   0.83724   0.44604   0.00000  Uiso   1.00
C432   C     0.17523   0.82480   0.01392   0.00000  Uiso   1.00
C433   C     0.18144   0.78333   0.49566   0.00000  Uiso   1.00
C434   C     0.17029   0.76822   0.45607   0.00000  Uiso   1.00
C435   C     0.15458   0.79399   0.43345   0.00000  Uiso   1.00
Cl436  Cl    0.14740   0.87520   0.09258   0.00000  Uiso   1.00
H437   H     0.21181   0.74728   0.07886   0.00000  Uiso   1.00
H438   H     0.29952   0.76342   0.35165   0.00000  Uiso   1.00
H439   H     0.33111   0.81387   0.35150   0.00000  Uiso   1.00
H440   H     0.02185   0.76821   0.32223   0.00000  Uiso   1.00
H441   H     0.10338   0.92969   0.40544   0.00000  Uiso   1.00
H442   H     0.14441   0.99493   0.38244   0.00000  Uiso   1.00
H443   H     0.18549   0.98457   0.40696   0.00000  Uiso   1.00
H444   H     0.13358   0.99548   0.44224   0.00000  Uiso   1.00
H445   H     0.04669   0.88821   0.21788   0.00000  Uiso   1.00
H446   H     0.05180   0.87930   0.13983   0.00000  Uiso   1.00
H447   H     0.00418   0.84234   0.14910   0.00000  Uiso   1.00
H448   H     0.20681   0.67049   0.21177   0.00000  Uiso   1.00
H449   H     0.05283   0.82894   0.15856   0.00000  Uiso   1.00
H450   H     0.12499   0.99785   0.28866   0.00000  Uiso   1.00
H451   H     0.17210   0.73585   0.44347   0.00000  Uiso   1.00
H452   H     0.20210   0.72516   0.00418   0.00000  Uiso   1.00
H453   H     0.18663   0.91076   0.02274   0.00000  Uiso   1.00
H454   H     0.16243   0.95625   0.48271   0.00000  Uiso   1.00
H455   H     0.14265   0.77959   0.40533   0.00000  Uiso   1.00
H456   H     0.30486   0.76488   0.27332   0.00000  Uiso   1.00
N457   N     0.31425   0.79169   0.29133   0.00000  Uiso   1.00
N458   N     0.13478   0.93597   0.40718   0.00000  Uiso   1.00
N459   N     0.02114   0.87199   0.20710   0.00000  Uiso   1.00
O460   O     0.16667   0.83333   0.25000   0.00000  Uiso   1.00
O461   O     0.15451   0.79304   0.15458   0.00000  Uiso   1.00
O462   O     0.12940   0.87058   0.34968   0.00000  Uiso   1.00
O463   O     0.20824   0.84425   0.14606   0.00000  Uiso   1.00
O464   O     0.17451   0.82546   0.34968   0.00000  Uiso   1.00
O465   O     0.17930   0.74686   0.28213   0.00000  Uiso   1.00
O466   O     0.14632   0.92751   0.27014   0.00000  Uiso   1.00
O467   O     0.07412   0.79958   0.23413   0.00000  Uiso   1.00
O468   O     0.26693   0.85939   0.21360   0.00000  Uiso   1.00
O469   O     0.07071   0.85544   0.28213   0.00000  Uiso   1.00
O470   O     0.25491   0.81892   0.27013   0.00000  Uiso   1.00
O471   O     0.13760   0.73610   0.23413   0.00000  Uiso   1.00
O472   O     0.20345   0.92286   0.21361   0.00000  Uiso   1.00
Zn473  Zn    0.19338   0.80661   0.28734   0.00000  Uiso   1.00
Zn474  Zn    0.13379   0.79124   0.21875   0.00000  Uiso   1.00
Zn475  Zn    0.21056   0.86442   0.20657   0.00000  Uiso   1.00
Zn476  Zn    0.12893   0.87106   0.28734   0.00000  Uiso   1.00
C477   C     0.38641   0.82638   0.25970   0.00000  Uiso   1.00
C478   C     0.50904   0.83513   0.05936   0.00000  Uiso   1.00
C479   C     0.53511   0.76898   0.06088   0.00000  Uiso   1.00
C480   C     0.61404   0.84022   0.23999   0.00000  Uiso   1.00
C481   C     0.48085   0.86517   0.41825   0.00000  Uiso   1.00
C482   C     0.65977   0.84400   0.23728   0.00000  Uiso   1.00
C483   C     0.34119   0.82268   0.26405   0.00000  Uiso   1.00
C484   C     0.51375   0.98917   0.23663   0.00000  Uiso   1.00
C485   C     0.48512   0.67837   0.26371   0.00000  Uiso   1.00
C486   C     0.48942   0.72255   0.26016   0.00000  Uiso   1.00
C487   C     0.50989   0.94454   0.24020   0.00000  Uiso   1.00
C488   C     0.49330   0.92332   0.47180   0.00000  Uiso   1.00
C489   C     0.51862   0.81451   0.12956   0.00000  Uiso   1.00
C490   C     0.48214   0.85170   0.37086   0.00000  Uiso   1.00
C491   C     0.52956   0.75643   0.01850   0.00000  Uiso   1.00
C492   C     0.52365   0.80748   0.08176   0.00000  Uiso   1.00
C493   C     0.48015   0.90824   0.43294   0.00000  Uiso   1.00
C494   C     0.65919   0.78399   0.33121   0.00000  Uiso   1.00
C495   C     0.48384   0.98005   0.41014   0.00000  Uiso   1.00
C496   C     0.36635   0.85456   0.16133   0.00000  Uiso   1.00
C497   C     0.50517   0.89652   0.49660   0.00000  Uiso   1.00
C498   C     0.49989   0.85297   0.48660   0.00000  Uiso   1.00
C499   C     0.48901   0.83724   0.44604   0.00000  Uiso   1.00
C500   C     0.50857   0.82480   0.01392   0.00000  Uiso   1.00
C501   C     0.51478   0.78333   0.49566   0.00000  Uiso   1.00
C502   C     0.50363   0.76822   0.45607   0.00000  Uiso   1.00
C503   C     0.48792   0.79399   0.43345   0.00000  Uiso   1.00
Cl504  Cl    0.48073   0.87520   0.09258   0.00000  Uiso   1.00
H505   H     0.54515   0.74728   0.07886   0.00000  Uiso   1.00
H506   H     0.63285   0.76342   0.35165   0.00000  Uiso   1.00
H507   H     0.66444   0.81387   0.35150   0.00000  Uiso   1.00
H508   H     0.35518   0.76821   0.32223   0.00000  Uiso   1.00
H509   H     0.43672   0.92969   0.40544   0.00000  Uiso   1.00
H510   H     0.47774   0.99493   0.38244   0.00000  Uiso   1.00
H511   H     0.51882   0.98457   0.40696   0.00000  Uiso   1.00
H512   H     0.46692   0.99548   0.44224   0.00000  Uiso   1.00
H513   H     0.38002   0.88821   0.21788   0.00000  Uiso   1.00
H514   H     0.38513   0.87930   0.13983   0.00000  Uiso   1.00
H515   H     0.33752   0.84234   0.14910   0.00000  Uiso   1.00
H516   H     0.54015   0.67049   0.21177   0.00000  Uiso   1.00
H517   H     0.38616   0.82894   0.15856   0.00000  Uiso   1.00
H518   H     0.45832   0.99785   0.28866   0.00000  Uiso   1.00
H519   H     0.50543   0.73585   0.44347   0.00000  Uiso   1.00
H520   H     0.53544   0.72516   0.00418   0.00000  Uiso   1.00
H521   H     0.51996   0.91076   0.02274   0.00000  Uiso   1.00
H522   H     0.49577   0.95625   0.48271   0.00000  Uiso   1.00
H523   H     0.47599   0.77959   0.40533   0.00000  Uiso   1.00
H524   H     0.63819   0.76488   0.27332   0.00000  Uiso   1.00
N525   N     0.64759   0.79169   0.29133   0.00000  Uiso   1.00
N526   N     0.46811   0.93597   0.40718   0.00000  Uiso   1.00
N527   N     0.35447   0.87199   0.20710   0.00000  Uiso   1.00
O528   O     0.50000   0.83333   0.25000   0.00000  Uiso   1.00
O529   O     0.48784   0.79304   0.15458   0.00000  Uiso   1.00
O530   O     0.46274   0.87058   0.34968   0.00000  Uiso   1.00
O531   O     0.54157   0.84425   0.14606   0.00000  Uiso   1.00
O532   O     0.50785   0.82546   0.34968   0.00000  Uiso   1.00
O533   O     0.51264   0.74686   0.28213   0.00000  Uiso   1.00
O534   O     0.47965   0.92751   0.27014   0.00000  Uiso   1.00
O535   O     0.40745   0.79958   0.23413   0.00000  Uiso   1.00
O536   O     0.60026   0.85939   0.21360   0.00000  Uiso   1.00
O537   O     0.40405   0.85544   0.28213   0.00000  Uiso   1.00
O538   O     0.58824   0.81892   0.27013   0.00000  Uiso   1.00
O539   O     0.47093   0.73610   0.23413   0.00000  Uiso   1.00
O540   O     0.53678   0.92286   0.21361   0.00000  Uiso   1.00
Zn541  Zn    0.52672   0.80661   0.28734   0.00000  Uiso   1.00
Zn542  Zn    0.46713   0.79124   0.21875   0.00000  Uiso   1.00
Zn543  Zn    0.54389   0.86442   0.20657   0.00000  Uiso   1.00
Zn544  Zn    0.46226   0.87106   0.28734   0.00000  Uiso   1.00
C545   C     0.71975   0.82638   0.25970   0.00000  Uiso   1.00
C546   C     0.84238   0.83513   0.05936   0.00000  Uiso   1.00
C547   C     0.86844   0.76898   0.06088   0.00000  Uiso   1.00
C548   C     0.94737   0.84022   0.23999   0.00000  Uiso   1.00
C549   C     0.81418   0.86517   0.41825   0.00000  Uiso   1.00
C550   C     0.99311   0.84400   0.23728   0.00000  Uiso   1.00
C551   C     0.67452   0.82268   0.26405   0.00000  Uiso   1.00
C552   C     0.84708   0.98917   0.23663   0.00000  Uiso   1.00
C553   C     0.81845   0.67837   0.26371   0.00000  Uiso   1.00
C554   C     0.82276   0.72255   0.26016   0.00000  Uiso   1.00
C555   C     0.84322   0.94454   0.24020   0.00000  Uiso   1.00
C556   C     0.82664   0.92332   0.47180   0.00000  Uiso   1.00
C557   C     0.85196   0.81451   0.12956   0.00000  Uiso   1.00
C558   C     0.81548   0.85170   0.37086   0.00000  Uiso   1.00
C559   C     0.86289   0.75643   0.01850   0.00000  Uiso   1.00
C560   C     0.85699   0.80748   0.08176   0.00000  Uiso   1.00
C561   C     0.81349   0.90824   0.43294   0.00000  Uiso   1.00
C562   C     0.99253   0.78399   0.33121   0.00000  Uiso   1.00
C563   C     0.81718   0.98005   0.41014   0.00000  Uiso   1.00
C564   C     0.69969   0.85456   0.16133   0.00000  Uiso   1.00
C565   C     0.83850   0.89652   0.49660   0.00000  Uiso   1.00
C566   C     0.83323   0.85297   0.48660   0.00000  Uiso   1.00
C567   C     0.82234   0.83724   0.44604   0.00000  Uiso   1.00
C568   C     0.84190   0.82480   0.01392   0.00000  Uiso   1.00
C569   C     0.84811   0.78333   0.49566   0.00000  Uiso   1.00
C570   C     0.83696   0.76822   0.45607   0.00000  Uiso   1.00
C571   C     0.82125   0.79399   0.43345   0.00000  Uiso   1.00
Cl572  Cl    0.81407   0.87520   0.09258   0.00000  Uiso   1.00
H573   H     0.87848   0.74728   0.07886   0.00000  Uiso   1.00
H574   H     0.96619   0.76342   0.35165   0.00000  Uiso   1.00
H575   H     0.99778   0.81387   0.35150   0.00000  Uiso   1.00
H576   H     0.68852   0.76821   0.32223   0.00000  Uiso   1.00
H577   H     0.77005   0.92969   0.40544   0.00000  Uiso   1.00
H578   H     0.81107   0.99493   0.38244   0.00000  Uiso   1.00
H579   H     0.85215   0.98457   0.40696   0.00000  Uiso   1.00
H580   H     0.80025   0.99548   0.44224   0.00000  Uiso   1.00
H581   H     0.71335   0.88821   0.21788   0.00000  Uiso   1.00
H582   H     0.71847   0.87930   0.13983   0.00000  Uiso   1.00
H583   H     0.67085   0.84234   0.14910   0.00000  Uiso   1.00
H584   H     0.87348   0.67049   0.21177   0.00000  Uiso   1.00
H585   H     0.71949   0.82894   0.15856   0.00000  Uiso   1.00
H586   H     0.79166   0.99785   0.28866   0.00000  Uiso   1.00
H587   H     0.83876   0.73585   0.44347   0.00000  Uiso   1.00
H588   H     0.86877   0.72516   0.00418   0.00000  Uiso   1.00
H589   H     0.85329   0.91076   0.02274   0.00000  Uiso   1.00
H590   H     0.82910   0.95625   0.48271   0.00000  Uiso   1.00
H591   H     0.80932   0.77959   0.40533   0.00000  Uiso   1.00
H592   H     0.97153   0.76488   0.27332   0.00000  Uiso   1.00
N593   N     0.98092   0.79169   0.29133   0.00000  Uiso   1.00
N594   N     0.80145   0.93597   0.40718   0.00000  Uiso   1.00
N595   N     0.68781   0.87199   0.20710   0.00000  Uiso   1.00
O596   O     0.83333   0.83333   0.25000   0.00000  Uiso   1.00
O597   O     0.82118   0.79304   0.15458   0.00000  Uiso   1.00
O598   O     0.79607   0.87058   0.34968   0.00000  Uiso   1.00
O599   O     0.87491   0.84425   0.14606   0.00000  Uiso   1.00
O600   O     0.84118   0.82546   0.34968   0.00000  Uiso   1.00
O601   O     0.84597   0.74686   0.28213   0.00000  Uiso   1.00
O602   O     0.81298   0.92751   0.27014   0.00000  Uiso   1.00
O603   O     0.74078   0.79958   0.23413   0.00000  Uiso   1.00
O604   O     0.93360   0.85939   0.21360   0.00000  Uiso   1.00
O605   O     0.73738   0.85544   0.28213   0.00000  Uiso   1.00
O606   O     0.92158   0.81892   0.27013   0.00000  Uiso   1.00
O607   O     0.80426   0.73610   0.23413   0.00000  Uiso   1.00
O608   O     0.87012   0.92286   0.21361   0.00000  Uiso   1.00
Zn609  Zn    0.86005   0.80661   0.28734   0.00000  Uiso   1.00
Zn610  Zn    0.80046   0.79124   0.21875   0.00000  Uiso   1.00
Zn611  Zn    0.87723   0.86442   0.20657   0.00000  Uiso   1.00
Zn612  Zn    0.79560   0.87106   0.28734   0.00000  Uiso   1.00
C613   C     0.05308   0.15972   0.75970   0.00000  Uiso   1.00
C614   C     0.17571   0.16846   0.55936   0.00000  Uiso   1.00
C615   C     0.20178   0.10232   0.56088   0.00000  Uiso   1.00
C616   C     0.28070   0.17355   0.73999   0.00000  Uiso   1.00
C617   C     0.14752   0.19850   0.91825   0.00000  Uiso   1.00
C618   C     0.32644   0.17733   0.73728   0.00000  Uiso   1.00
C619   C     0.00786   0.15602   0.76405   0.00000  Uiso   1.00
C620   C     0.18041   0.32250   0.73663   0.00000  Uiso   1.00
C621   C     0.15178   0.01171   0.76371   0.00000  Uiso   1.00
C622   C     0.15609   0.05589   0.76016   0.00000  Uiso   1.00
C623   C     0.17656   0.27787   0.74020   0.00000  Uiso   1.00
C624   C     0.15997   0.25666   0.97180   0.00000  Uiso   1.00
C625   C     0.18529   0.14784   0.62956   0.00000  Uiso   1.00
C626   C     0.14881   0.18504   0.87086   0.00000  Uiso   1.00
C627   C     0.19622   0.08977   0.51850   0.00000  Uiso   1.00
C628   C     0.19032   0.14082   0.58176   0.00000  Uiso   1.00
C629   C     0.14682   0.24158   0.93294   0.00000  Uiso   1.00
C630   C     0.32586   0.11733   0.83121   0.00000  Uiso   1.00
C631   C     0.15051   0.31338   0.91014   0.00000  Uiso   1.00
C632   C     0.03302   0.18789   0.66133   0.00000  Uiso   1.00
C633   C     0.17183   0.22985   0.99660   0.00000  Uiso   1.00
C634   C     0.16656   0.18630   0.98660   0.00000  Uiso   1.00
C635   C     0.15567   0.17057   0.94604   0.00000  Uiso   1.00
C636   C     0.17523   0.15814   0.51392   0.00000  Uiso   1.00
C637   C     0.18144   0.11666   0.99566   0.00000  Uiso   1.00
C638   C     0.17029   0.10156   0.95607   0.00000  Uiso   1.00
C639   C     0.15458   0.12732   0.93345   0.00000  Uiso   1.00
Cl640  Cl    0.14740   0.20853   0.59258   0.00000  Uiso   1.00
H641   H     0.21181   0.08061   0.57886   0.00000  Uiso   1.00
H642   H     0.29952   0.09675   0.85165   0.00000  Uiso   1.00
H643   H     0.33111   0.14720   0.85150   0.00000  Uiso   1.00
H644   H     0.02185   0.10154   0.82223   0.00000  Uiso   1.00
H645   H     0.10338   0.26302   0.90544   0.00000  Uiso   1.00
H646   H     0.14441   0.32826   0.88244   0.00000  Uiso   1.00
H647   H     0.18549   0.31790   0.90696   0.00000  Uiso   1.00
H648   H     0.13358   0.32882   0.94224   0.00000  Uiso   1.00
H649   H     0.04669   0.22155   0.71788   0.00000  Uiso   1.00
H650   H     0.05180   0.21263   0.63983   0.00000  Uiso   1.00
H651   H     0.00418   0.17567   0.64910   0.00000  Uiso   1.00
H652   H     0.20681   0.00382   0.71177   0.00000  Uiso   1.00
H653   H     0.05283   0.16227   0.65856   0.00000  Uiso   1.00
H654   H     0.12499   0.33118   0.78866   0.00000  Uiso   1.00
H655   H     0.17210   0.06918   0.94347   0.00000  Uiso   1.00
H656   H     0.20210   0.05850   0.50418   0.00000  Uiso   1.00
H657   H     0.18663   0.24409   0.52274   0.00000  Uiso   1.00
H658   H     0.16243   0.28958   0.98271   0.00000  Uiso   1.00
H659   H     0.14265   0.11293   0.90533   0.00000  Uiso   1.00
H660   H     0.30486   0.09821   0.77332   0.00000  Uiso   1.00
N661   N     0.31425   0.12503   0.79133   0.00000  Uiso   1.00
N662   N     0.13478   0.26931   0.90718   0.00000  Uiso   1.00
N663   N     0.02114   0.20532   0.70710   0.00000  Uiso   1.00
O664   O     0.16667   0.16667   0.75000   0.00000  Uiso   1.00
O665   O     0.15451   0.12637   0.65458   0.00000  Uiso   1.00
O666   O     0.12940   0.20391   0.84968   0.00000  Uiso   1.00
O667   O     0.20824   0.17759   0.64606   0.00000  Uiso   1.00
O668   O     0.17451   0.15880   0.84968   0.00000  Uiso   1.00
O669   O     0.17930   0.08019   0.78213   0.00000  Uiso   1.00
O670   O     0.14632   0.26085   0.77014   0.00000  Uiso   1.00
O671   O     0.07412   0.13291   0.73413   0.00000  Uiso   1.00
O672   O     0.26693   0.19272   0.71360   0.00000  Uiso   1.00
O673   O     0.07071   0.18878   0.78213   0.00000  Uiso   1.00
O674   O     0.25491   0.15226   0.77013   0.00000  Uiso   1.00
O675   O     0.13760   0.06944   0.73413   0.00000  Uiso   1.00
O676   O     0.20345   0.25620   0.71361   0.00000  Uiso   1.00
Zn677  Zn    0.19338   0.13994   0.78734   0.00000  Uiso   1.00
Zn678  Zn    0.13379   0.12458   0.71875   0.00000  Uiso   1.00
Zn679  Zn    0.21056   0.19775   0.70657   0.00000  Uiso   1.00
Zn680  Zn    0.12893   0.20439   0.78734   0.00000  Uiso   1.00
C681   C     0.38641   0.15972   0.75970   0.00000  Uiso   1.00
C682   C     0.50904   0.16846   0.55936   0.00000  Uiso   1.00
C683   C     0.53511   0.10232   0.56088   0.00000  Uiso   1.00
C684   C     0.61404   0.17355   0.73999   0.00000  Uiso   1.00
C685   C     0.48085   0.19850   0.91825   0.00000  Uiso   1.00
C686   C     0.65977   0.17733   0.73728   0.00000  Uiso   1.00
C687   C     0.34119   0.15602   0.76405   0.00000  Uiso   1.00
C688   C     0.51375   0.32250   0.73663   0.00000  Uiso   1.00
C689   C     0.48512   0.01171   0.76371   0.00000  Uiso   1.00
C690   C     0.48942   0.05589   0.76016   0.00000  Uiso   1.00
C691   C     0.50989   0.27787   0.74020   0.00000  Uiso   1.00
C692   C     0.49330   0.25666   0.97180   0.00000  Uiso   1.00
C693   C     0.51862   0.14784   0.62956   0.00000  Uiso   1.00
C694   C     0.48214   0.18504   0.87086   0.00000  Uiso   1.00
C695   C     0.52956   0.08977   0.51850   0.00000  Uiso   1.00
C696   C     0.52365   0.14082   0.58176   0.00000  Uiso   1.00
C697   C     0.48015   0.24158   0.93294   0.00000  Uiso   1.00
C698   C     0.65919   0.11733   0.83121   0.00000  Uiso   1.00
C699   C     0.48384   0.31338   0.91014   0.00000  Uiso   1.00
C700   C     0.36635   0.18789   0.66133   0.00000  Uiso   1.00
C701   C     0.50517   0.22985   0.99660   0.00000  Uiso   1.00
C702   C     0.49989   0.18630   0.98660   0.00000  Uiso   1.00
C703   C     0.48901   0.17057   0.94604   0.00000  Uiso   1.00
C704   C     0.50857   0.15814   0.51392   0.00000  Uiso   1.00
C705   C     0.51478   0.11666   0.99566   0.00000  Uiso   1.00
C706   C     0.50363   0.10156   0.95607   0.00000  Uiso   1.00
C707   C     0.48792   0.12732   0.93345   0.00000  Uiso   1.00
Cl708  Cl    0.48073   0.20853   0.59258   0.00000  Uiso   1.00
H709   H     0.54515   0.08061   0.57886   0.00000  Uiso   1.00
H710   H     0.63285   0.09675   0.85165   0.00000  Uiso   1.00
H711   H     0.66444   0.14720   0.85150   0.00000  Uiso   1.00
H712   H     0.35518   0.10154   0.82223   0.00000  Uiso   1.00
H713   H     0.43672   0.26302   0.90544   0.00000  Uiso   1.00
H714   H     0.47774   0.32826   0.88244   0.00000  Uiso   1.00
H715   H     0.51882   0.31790   0.90696   0.00000  Uiso   1.00
H716   H     0.46692   0.32882   0.94224   0.00000  Uiso   1.00
H717   H     0.38002   0.22155   0.71788   0.00000  Uiso   1.00
H718   H     0.38513   0.21263   0.63983   0.00000  Uiso   1.00
H719   H     0.33752   0.17567   0.64910   0.00000  Uiso   1.00
H720   H     0.54015   0.00382   0.71177   0.00000  Uiso   1.00
H721   H     0.38616   0.16227   0.65856   0.00000  Uiso   1.00
H722   H     0.45832   0.33118   0.78866   0.00000  Uiso   1.00
H723   H     0.50543   0.06918   0.94347   0.00000  Uiso   1.00
H724   H     0.53544   0.05850   0.50418   0.00000  Uiso   1.00
H725   H     0.51996   0.24409   0.52274   0.00000  Uiso   1.00
H726   H     0.49577   0.28958   0.98271   0.00000  Uiso   1.00
H727   H     0.47599   0.11293   0.90533   0.00000  Uiso   1.00
H728   H     0.63819   0.09821   0.77332   0.00000  Uiso   1.00
N729   N     0.64759   0.12503   0.79133   0.00000  Uiso   1.00
N730   N     0.46811   0.26931   0.90718   0.00000  Uiso   1.00
N731   N     0.35447   0.20532   0.70710   0.00000  Uiso   1.00
O732   O     0.50000   0.16667   0.75000   0.00000  Uiso   1.00
O733   O     0.48784   0.12637   0.65458   0.00000  Uiso   1.00
O734   O     0.46274   0.20391   0.84968   0.00000  Uiso   1.00
O735   O     0.54157   0.17759   0.64606   0.00000  Uiso   1.00
O736   O     0.50785   0.15880   0.84968   0.00000  Uiso   1.00
O737   O     0.51264   0.08019   0.78213   0.00000  Uiso   1.00
O738   O     0.47965   0.26085   0.77014   0.00000  Uiso   1.00
O739   O     0.40745   0.13291   0.73413   0.00000  Uiso   1.00
O740   O     0.60026   0.19272   0.71360   0.00000  Uiso   1.00
O741   O     0.40405   0.18878   0.78213   0.00000  Uiso   1.00
O742   O     0.58824   0.15226   0.77013   0.00000  Uiso   1.00
O743   O     0.47093   0.06944   0.73413   0.00000  Uiso   1.00
O744   O     0.53678   0.25620   0.71361   0.00000  Uiso   1.00
Zn745  Zn    0.52672   0.13994   0.78734   0.00000  Uiso   1.00
Zn746  Zn    0.46713   0.12458   0.71875   0.00000  Uiso   1.00
Zn747  Zn    0.54389   0.19775   0.70657   0.00000  Uiso   1.00
Zn748  Zn    0.46226   0.20439   0.78734   0.00000  Uiso   1.00
C749   C     0.71975   0.15972   0.75970   0.00000  Uiso   1.00
C750   C     0.84238   0.16846   0.55936   0.00000  Uiso   1.00
C751   C     0.86844   0.10232   0.56088   0.00000  Uiso   1.00
C752   C     0.94737   0.17355   0.73999   0.00000  Uiso   1.00
C753   C     0.81418   0.19850   0.91825   0.00000  Uiso   1.00
C754   C     0.99311   0.17733   0.73728   0.00000  Uiso   1.00
C755   C     0.67452   0.15602   0.76405   0.00000  Uiso   1.00
C756   C     0.84708   0.32250   0.73663   0.00000  Uiso   1.00
C757   C     0.81845   0.01171   0.76371   0.00000  Uiso   1.00
C758   C     0.82276   0.05589   0.76016   0.00000  Uiso   1.00
C759   C     0.84322   0.27787   0.74020   0.00000  Uiso   1.00
C760   C     0.82664   0.25666   0.97180   0.00000  Uiso   1.00
C761   C     0.85196   0.14784   0.62956   0.00000  Uiso   1.00
C762   C     0.81548   0.18504   0.87086   0.00000  Uiso   1.00
C763   C     0.86289   0.08977   0.51850   0.00000  Uiso   1.00
C764   C     0.85699   0.14082   0.58176   0.00000  Uiso   1.00
C765   C     0.81349   0.24158   0.93294   0.00000  Uiso   1.00
C766   C     0.99253   0.11733   0.83121   0.00000  Uiso   1.00
C767   C     0.81718   0.31338   0.91014   0.00000  Uiso   1.00
C768   C     0.69969   0.18789   0.66133   0.00000  Uiso   1.00
C769   C     0.83850   0.22985   0.99660   0.00000  Uiso   1.00
C770   C     0.83323   0.18630   0.98660   0.00000  Uiso   1.00
C771   C     0.82234   0.17057   0.94604   0.00000  Uiso   1.00
C772   C     0.84190   0.15814   0.51392   0.00000  Uiso   1.00
C773   C     0.84811   0.11666   0.99566   0.00000  Uiso   1.00
C774   C     0.83696   0.10156   0.95607   0.00000  Uiso   1.00
C775   C     0.82125   0.12732   0.93345   0.00000  Uiso   1.00
Cl776  Cl    0.81407   0.20853   0.59258   0.00000  Uiso   1.00
H777   H     0.87848   0.08061   0.57886   0.00000  Uiso   1.00
H778   H     0.96619   0.09675   0.85165   0.00000  Uiso   1.00
H779   H     0.99778   0.14720   0.85150   0.00000  Uiso   1.00
H780   H     0.68852   0.10154   0.82223   0.00000  Uiso   1.00
H781   H     0.77005   0.26302   0.90544   0.00000  Uiso   1.00
H782   H     0.81107   0.32826   0.88244   0.00000  Uiso   1.00
H783   H     0.85215   0.31790   0.90696   0.00000  Uiso   1.00
H784   H     0.80025   0.32882   0.94224   0.00000  Uiso   1.00
H785   H     0.71335   0.22155   0.71788   0.00000  Uiso   1.00
H786   H     0.71847   0.21263   0.63983   0.00000  Uiso   1.00
H787   H     0.67085   0.17567   0.64910   0.00000  Uiso   1.00
H788   H     0.87348   0.00382   0.71177   0.00000  Uiso   1.00
H789   H     0.71949   0.16227   0.65856   0.00000  Uiso   1.00
H790   H     0.79166   0.33118   0.78866   0.00000  Uiso   1.00
H791   H     0.83876   0.06918   0.94347   0.00000  Uiso   1.00
H792   H     0.86877   0.05850   0.50418   0.00000  Uiso   1.00
H793   H     0.85329   0.24409   0.52274   0.00000  Uiso   1.00
H794   H     0.82910   0.28958   0.98271   0.00000  Uiso   1.00
H795   H     0.80932   0.11293   0.90533   0.00000  Uiso   1.00
H796   H     0.97153   0.09821   0.77332   0.00000  Uiso   1.00
N797   N     0.98092   0.12503   0.79133   0.00000  Uiso   1.00
N798   N     0.80145   0.26931   0.90718   0.00000  Uiso   1.00
N799   N     0.68781   0.20532   0.70710   0.00000  Uiso   1.00
O800   O     0.83333   0.16667   0.75000   0.00000  Uiso   1.00
O801   O     0.82118   0.12637   0.65458   0.00000  Uiso   1.00
O802   O     0.79607   0.20391   0.84968   0.00000  Uiso   1.00
O803   O     0.87491   0.17759   0.64606   0.00000  Uiso   1.00
O804   O     0.84118   0.15880   0.84968   0.00000  Uiso   1.00
O805   O     0.84597   0.08019   0.78213   0.00000  Uiso   1.00
O806   O     0.81298   0.26085   0.77014   0.00000  Uiso   1.00
O807   O     0.74078   0.13291   0.73413   0.00000  Uiso   1.00
O808   O     0.93360   0.19272   0.71360   0.00000  Uiso   1.00
O809   O     0.73738   0.18878   0.78213   0.00000  Uiso   1.00
O810   O     0.92158   0.15226   0.77013   0.00000  Uiso   1.00
O811   O     0.80426   0.06944   0.73413   0.00000  Uiso   1.00
O812   O     0.87012   0.25620   0.71361   0.00000  Uiso   1.00
Zn813  Zn    0.86005   0.13994   0.78734   0.00000  Uiso   1.00
Zn814  Zn    0.80046   0.12458   0.71875   0.00000  Uiso   1.00
Zn815  Zn    0.87723   0.19775   0.70657   0.00000  Uiso   1.00
Zn816  Zn    0.79560   0.20439   0.78734   0.00000  Uiso   1.00
C817   C     0.05308   0.49305   0.75970   0.00000  Uiso   1.00
C818   C     0.17571   0.50179   0.55936   0.00000  Uiso   1.00
C819   C     0.20178   0.43565   0.56088   0.00000  Uiso   1.00
C820   C     0.28070   0.50689   0.73999   0.00000  Uiso   1.00
C821   C     0.14752   0.53184   0.91825   0.00000  Uiso   1.00
C822   C     0.32644   0.51066   0.73728   0.00000  Uiso   1.00
C823   C     0.00786   0.48935   0.76405   0.00000  Uiso   1.00
C824   C     0.18041   0.65584   0.73663   0.00000  Uiso   1.00
C825   C     0.15178   0.34504   0.76371   0.00000  Uiso   1.00
C826   C     0.15609   0.38922   0.76016   0.00000  Uiso   1.00
C827   C     0.17656   0.61120   0.74020   0.00000  Uiso   1.00
C828   C     0.15997   0.58999   0.97180   0.00000  Uiso   1.00
C829   C     0.18529   0.48117   0.62956   0.00000  Uiso   1.00
C830   C     0.14881   0.51837   0.87086   0.00000  Uiso   1.00
C831   C     0.19622   0.42310   0.51850   0.00000  Uiso   1.00
C832   C     0.19032   0.47415   0.58176   0.00000  Uiso   1.00
C833   C     0.14682   0.57491   0.93294   0.00000  Uiso   1.00
C834   C     0.32586   0.45066   0.83121   0.00000  Uiso   1.00
C835   C     0.15051   0.64672   0.91014   0.00000  Uiso   1.00
C836   C     0.03302   0.52122   0.66133   0.00000  Uiso   1.00
C837   C     0.17183   0.56318   0.99660   0.00000  Uiso   1.00
C838   C     0.16656   0.51963   0.98660   0.00000  Uiso   1.00
C839   C     0.15567   0.50390   0.94604   0.00000  Uiso   1.00
C840   C     0.17523   0.49147   0.51392   0.00000  Uiso   1.00
C841   C     0.18144   0.45000   0.99566   0.00000  Uiso   1.00
C842   C     0.17029   0.43489   0.95607   0.00000  Uiso   1.00
C843   C     0.15458   0.46066   0.93345   0.00000  Uiso   1.00
Cl844  Cl    0.14740   0.54186   0.59258   0.00000  Uiso   1.00
H845   H     0.21181   0.41395   0.57886   0.00000  Uiso   1.00
H846   H     0.29952   0.43009   0.85165   0.00000  Uiso   1.00
H847   H     0.33111   0.48053   0.85150   0.00000  Uiso   1.00
H848   H     0.02185   0.43488   0.82223   0.00000  Uiso   1.00
H849   H     0.10338   0.59636   0.90544   0.00000  Uiso   1.00
H850   H     0.14441   0.66160   0.88244   0.00000  Uiso   1.00
H851   H     0.18549   0.65123   0.90696   0.00000  Uiso   1.00
H852   H     0.13358   0.66215   0.94224   0.00000  Uiso   1.00
H853   H     0.04669   0.55488   0.71788   0.00000  Uiso   1.00
H854   H     0.05180   0.54597   0.63983   0.00000  Uiso   1.00
H855   H     0.00418   0.50901   0.64910   0.00000  Uiso   1.00
H856   H     0.20681   0.33716   0.71177   0.00000  Uiso   1.00
H857   H     0.05283   0.49560   0.65856   0.00000  Uiso   1.00
H858   H     0.12499   0.66452   0.78866   0.00000  Uiso   1.00
H859   H     0.17210   0.40252   0.94347   0.00000  Uiso   1.00
H860   H     0.20210   0.39183   0.50418   0.00000  Uiso   1.00
H861   H     0.18663   0.57742   0.52274   0.00000  Uiso   1.00
H862   H     0.16243   0.62292   0.98271   0.00000  Uiso   1.00
H863   H     0.14265   0.44626   0.90533   0.00000  Uiso   1.00
H864   H     0.30486   0.43154   0.77332   0.00000  Uiso   1.00
N865   N     0.31425   0.45836   0.79133   0.00000  Uiso   1.00
N866   N     0.13478   0.60264   0.90718   0.00000  Uiso   1.00
N867   N     0.02114   0.53866   0.70710   0.00000  Uiso   1.00
O868   O     0.16667   0.50000   0.75000   0.00000  Uiso   1.00
O869   O     0.15451   0.45970   0.65458   0.00000  Uiso   1.00
O870   O     0.12940   0.53724   0.84968   0.00000  Uiso   1.00
O871   O     0.20824   0.51092   0.64606   0.00000  Uiso   1.00
O872   O     0.17451   0.49213   0.84968   0.00000  Uiso   1.00
O873   O     0.17930   0.41352   0.78213   0.00000  Uiso   1.00
O874   O     0.14632   0.59418   0.77014   0.00000  Uiso   1.00
O875   O     0.07412   0.46625   0.73413   0.00000  Uiso   1.00
O876   O     0.26693   0.52605   0.71360   0.00000  Uiso   1.00
O877   O     0.07071   0.52211   0.78213   0.00000  Uiso   1.00
O878   O     0.25491   0.48559   0.77013   0.00000  Uiso   1.00
O879   O     0.13760   0.40277   0.73413   0.00000  Uiso   1.00
O880   O     0.20345   0.58953   0.71361   0.00000  Uiso   1.00
Zn881  Zn    0.19338   0.47327   0.78734   0.00000  Uiso   1.00
Zn882  Zn    0.13379   0.45791   0.71875   0.00000  Uiso   1.00
Zn883  Zn    0.21056   0.53109   0.70657   0.00000  Uiso   1.00
Zn884  Zn    0.12893   0.53773   0.78734   0.00000  Uiso   1.00
C885   C     0.38641   0.49305   0.75970   0.00000  Uiso   1.00
C886   C     0.50904   0.50179   0.55936   0.00000  Uiso   1.00
C887   C     0.53511   0.43565   0.56088   0.00000  Uiso   1.00
C888   C     0.61404   0.50689   0.73999   0.00000  Uiso   1.00
C889   C     0.48085   0.53184   0.91825   0.00000  Uiso   1.00
C890   C     0.65977   0.51066   0.73728   0.00000  Uiso   1.00
C891   C     0.34119   0.48935   0.76405   0.00000  Uiso   1.00
C892   C     0.51375   0.65584   0.73663   0.00000  Uiso   1.00
C893   C     0.48512   0.34504   0.76371   0.00000  Uiso   1.00
C894   C     0.48942   0.38922   0.76016   0.00000  Uiso   1.00
C895   C     0.50989   0.61120   0.74020   0.00000  Uiso   1.00
C896   C     0.49330   0.58999   0.97180   0.00000  Uiso   1.00
C897   C     0.51862   0.48117   0.62956   0.00000  Uiso   1.00
C898   C     0.48214   0.51837   0.87086   0.00000  Uiso   1.00
C899   C     0.52956   0.42310   0.51850   0.00000  Uiso   1.00
C900   C     0.52365   0.47415   0.58176   0.00000  Uiso   1.00
C901   C     0.48015   0.57491   0.93294   0.00000  Uiso   1.00
C902   C     0.65919   0.45066   0.83121   0.00000  Uiso   1.00
C903   C     0.48384   0.64672   0.91014   0.00000  Uiso   1.00
C904   C     0.36635   0.52122   0.66133   0.00000  Uiso   1.00
C905   C     0.50517   0.56318   0.99660   0.00000  Uiso   1.00
C906   C     0.49989   0.51963   0.98660   0.00000  Uiso   1.00
C907   C     0.48901   0.50390   0.94604   0.00000  Uiso   1.00
C908   C     0.50857   0.49147   0.51392   0.00000  Uiso   1.00
C909   C     0.51478   0.45000   0.99566   0.00000  Uiso   1.00
C910   C     0.50363   0.43489   0.95607   0.00000  Uiso   1.00
C911   C     0.48792   0.46066   0.93345   0.00000  Uiso   1.00
Cl912  Cl    0.48073   0.54186   0.59258   0.00000  Uiso   1.00
H913   H     0.54515   0.41395   0.57886   0.00000  Uiso   1.00
H914   H     0.63285   0.43009   0.85165   0.00000  Uiso   1.00
H915   H     0.66444   0.48053   0.85150   0.00000  Uiso   1.00
H916   H     0.35518   0.43488   0.82223   0.00000  Uiso   1.00
H917   H     0.43672   0.59636   0.90544   0.00000  Uiso   1.00
H918   H     0.47774   0.66160   0.88244   0.00000  Uiso   1.00
H919   H     0.51882   0.65123   0.90696   0.00000  Uiso   1.00
H920   H     0.46692   0.66215   0.94224   0.00000  Uiso   1.00
H921   H     0.38002   0.55488   0.71788   0.00000  Uiso   1.00
H922   H     0.38513   0.54597   0.63983   0.00000  Uiso   1.00
H923   H     0.33752   0.50901   0.64910   0.00000  Uiso   1.00
H924   H     0.54015   0.33716   0.71177   0.00000  Uiso   1.00
H925   H     0.38616   0.49560   0.65856   0.00000  Uiso   1.00
H926   H     0.45832   0.66452   0.78866   0.00000  Uiso   1.00
H927   H     0.50543   0.40252   0.94347   0.00000  Uiso   1.00
H928   H     0.53544   0.39183   0.50418   0.00000  Uiso   1.00
H929   H     0.51996   0.57742   0.52274   0.00000  Uiso   1.00
H930   H     0.49577   0.62292   0.98271   0.00000  Uiso   1.00
H931   H     0.47599   0.44626   0.90533   0.00000  Uiso   1.00
H932   H     0.63819   0.43154   0.77332   0.00000  Uiso   1.00
N933   N     0.64759   0.45836   0.79133   0.00000  Uiso   1.00
N934   N     0.46811   0.60264   0.90718   0.00000  Uiso   1.00
N935   N     0.35447   0.53866   0.70710   0.00000  Uiso   1.00
O936   O     0.50000   0.50000   0.75000   0.00000  Uiso   1.00
O937   O     0.48784   0.45970   0.65458   0.00000  Uiso   1.00
O938   O     0.46274   0.53724   0.84968   0.00000  Uiso   1.00
O939   O     0.54157   0.51092   0.64606   0.00000  Uiso   1.00
O940   O     0.50785   0.49213   0.84968   0.00000  Uiso   1.00
O941   O     0.51264   0.41352   0.78213   0.00000  Uiso   1.00
O942   O     0.47965   0.59418   0.77014   0.00000  Uiso   1.00
O943   O     0.40745   0.46625   0.73413   0.00000  Uiso   1.00
O944   O     0.60026   0.52605   0.71360   0.00000  Uiso   1.00
O945   O     0.40405   0.52211   0.78213   0.00000  Uiso   1.00
O946   O     0.58824   0.48559   0.77013   0.00000  Uiso   1.00
O947   O     0.47093   0.40277   0.73413   0.00000  Uiso   1.00
O948   O     0.53678   0.58953   0.71361   0.00000  Uiso   1.00
Zn949  Zn    0.52672   0.47327   0.78734   0.00000  Uiso   1.00
Zn950  Zn    0.46713   0.45791   0.71875   0.00000  Uiso   1.00
Zn951  Zn    0.54389   0.53109   0.70657   0.00000  Uiso   1.00
Zn952  Zn    0.46226   0.53773   0.78734   0.00000  Uiso   1.00
C953   C     0.71975   0.49305   0.75970   0.00000  Uiso   1.00
C954   C     0.84238   0.50179   0.55936   0.00000  Uiso   1.00
C955   C     0.86844   0.43565   0.56088   0.00000  Uiso   1.00
C956   C     0.94737   0.50689   0.73999   0.00000  Uiso   1.00
C957   C     0.81418   0.53184   0.91825   0.00000  Uiso   1.00
C958   C     0.99311   0.51066   0.73728   0.00000  Uiso   1.00
C959   C     0.67452   0.48935   0.76405   0.00000  Uiso   1.00
C960   C     0.84708   0.65584   0.73663   0.00000  Uiso   1.00
C961   C     0.81845   0.34504   0.76371   0.00000  Uiso   1.00
C962   C     0.82276   0.38922   0.76016   0.00000  Uiso   1.00
C963   C     0.84322   0.61120   0.74020   0.00000  Uiso   1.00
C964   C     0.82664   0.58999   0.97180   0.00000  Uiso   1.00
C965   C     0.85196   0.48117   0.62956   0.00000  Uiso   1.00
C966   C     0.81548   0.51837   0.87086   0.00000  Uiso   1.00
C967   C     0.86289   0.42310   0.51850   0.00000  Uiso   1.00
C968   C     0.85699   0.47415   0.58176   0.00000  Uiso   1.00
C969   C     0.81349   0.57491   0.93294   0.00000  Uiso   1.00
C970   C     0.99253   0.45066   0.83121   0.00000  Uiso   1.00
C971   C     0.81718   0.64672   0.91014   0.00000  Uiso   1.00
C972   C     0.69969   0.52122   0.66133   0.00000  Uiso   1.00
C973   C     0.83850   0.56318   0.99660   0.00000  Uiso   1.00
C974   C     0.83323   0.51963   0.98660   0.00000  Uiso   1.00
C975   C     0.82234   0.50390   0.94604   0.00000  Uiso   1.00
C976   C     0.84190   0.49147   0.51392   0.00000  Uiso   1.00
C977   C     0.84811   0.45000   0.99566   0.00000  Uiso   1.00
C978   C     0.83696   0.43489   0.95607   0.00000  Uiso   1.00
C979   C     0.82125   0.46066   0.93345   0.00000  Uiso   1.00
Cl980  Cl    0.81407   0.54186   0.59258   0.00000  Uiso   1.00
H981   H     0.87848   0.41395   0.57886   0.00000  Uiso   1.00
H982   H     0.96619   0.43009   0.85165   0.00000  Uiso   1.00
H983   H     0.99778   0.48053   0.85150   0.00000  Uiso   1.00
H984   H     0.68852   0.43488   0.82223   0.00000  Uiso   1.00
H985   H     0.77005   0.59636   0.90544   0.00000  Uiso   1.00
H986   H     0.81107   0.66160   0.88244   0.00000  Uiso   1.00
H987   H     0.85215   0.65123   0.90696   0.00000  Uiso   1.00
H988   H     0.80025   0.66215   0.94224   0.00000  Uiso   1.00
H989   H     0.71335   0.55488   0.71788   0.00000  Uiso   1.00
H990   H     0.71847   0.54597   0.63983   0.00000  Uiso   1.00
H991   H     0.67085   0.50901   0.64910   0.00000  Uiso   1.00
H992   H     0.87348   0.33716   0.71177   0.00000  Uiso   1.00
H993   H     0.71949   0.49560   0.65856   0.00000  Uiso   1.00
H994   H     0.79166   0.66452   0.78866   0.00000  Uiso   1.00
H995   H     0.83876   0.40252   0.94347   0.00000  Uiso   1.00
H996   H     0.86877   0.39183   0.50418   0.00000  Uiso   1.00
H997   H     0.85329   0.57742   0.52274   0.00000  Uiso   1.00
H998   H     0.82910   0.62292   0.98271   0.00000  Uiso   1.00
H999   H     0.80932   0.44626   0.90533   0.00000  Uiso   1.00
H1000  H     0.97153   0.43154   0.77332   0.00000  Uiso   1.00
N1001  N     0.98092   0.45836   0.79133   0.00000  Uiso   1.00
N1002  N     0.80145   0.60264   0.90718   0.00000  Uiso   1.00
N1003  N     0.68781   0.53866   0.70710   0.00000  Uiso   1.00
O1004  O     0.83333   0.50000   0.75000   0.00000  Uiso   1.00
O1005  O     0.82118   0.45970   0.65458   0.00000  Uiso   1.00
O1006  O     0.79607   0.53724   0.84968   0.00000  Uiso   1.00
O1007  O     0.87491   0.51092   0.64606   0.00000  Uiso   1.00
O1008  O     0.84118   0.49213   0.84968   0.00000  Uiso   1.00
O1009  O     0.84597   0.41352   0.78213   0.00000  Uiso   1.00
O1010  O     0.81298   0.59418   0.77014   0.00000  Uiso   1.00
O1011  O     0.74078   0.46625   0.73413   0.00000  Uiso   1.00
O1012  O     0.93360   0.52605   0.71360   0.00000  Uiso   1.00
O1013  O     0.73738   0.52211   0.78213   0.00000  Uiso   1.00
O1014  O     0.92158   0.48559   0.77013   0.00000  Uiso   1.00
O1015  O     0.80426   0.40277   0.73413   0.00000  Uiso   1.00
O1016  O     0.87012   0.58953   0.71361   0.00000  Uiso   1.00
Zn1017 Zn    0.86005   0.47327   0.78734   0.00000  Uiso   1.00
Zn1018 Zn    0.80046   0.45791   0.71875   0.00000  Uiso   1.00
Zn1019 Zn    0.87723   0.53109   0.70657   0.00000  Uiso   1.00
Zn1020 Zn    0.79560   0.53773   0.78734   0.00000  Uiso   1.00
C1021  C     0.05308   0.82638   0.75970   0.00000  Uiso   1.00
C1022  C     0.17571   0.83513   0.55936   0.00000  Uiso   1.00
C1023  C     0.20178   0.76898   0.56088   0.00000  Uiso   1.00
C1024  C     0.28070   0.84022   0.73999   0.00000  Uiso   1.00
C1025  C     0.14752   0.86517   0.91825   0.00000  Uiso   1.00
C1026  C     0.32644   0.84400   0.73728   0.00000  Uiso   1.00
C1027  C     0.00786   0.82268   0.76405   0.00000  Uiso   1.00
C1028  C     0.18041   0.98917   0.73663   0.00000  Uiso   1.00
C1029  C     0.15178   0.67837   0.76371   0.00000  Uiso   1.00
C1030  C     0.15609   0.72255   0.76016   0.00000  Uiso   1.00
C1031  C     0.17656   0.94454   0.74020   0.00000  Uiso   1.00
C1032  C     0.15997   0.92332   0.97180   0.00000  Uiso   1.00
C1033  C     0.18529   0.81451   0.62956   0.00000  Uiso   1.00
C1034  C     0.14881   0.85170   0.87086   0.00000  Uiso   1.00
C1035  C     0.19622   0.75643   0.51850   0.00000  Uiso   1.00
C1036  C     0.19032   0.80748   0.58176   0.00000  Uiso   1.00
C1037  C     0.14682   0.90824   0.93294   0.00000  Uiso   1.00
C1038  C     0.32586   0.78399   0.83121   0.00000  Uiso   1.00
C1039  C     0.15051   0.98005   0.91014   0.00000  Uiso   1.00
C1040  C     0.03302   0.85456   0.66133   0.00000  Uiso   1.00
C1041  C     0.17183   0.89652   0.99660   0.00000  Uiso   1.00
C1042  C     0.16656   0.85297   0.98660   0.00000  Uiso   1.00
C1043  C     0.15567   0.83724   0.94604   0.00000  Uiso   1.00
C1044  C     0.17523   0.82480   0.51392   0.00000  Uiso   1.00
C1045  C     0.18144   0.78333   0.99566   0.00000  Uiso   1.00
C1046  C     0.17029   0.76822   0.95607   0.00000  Uiso   1.00
C1047  C     0.15458   0.79399   0.93345   0.00000  Uiso   1.00
Cl1048 Cl    0.14740   0.87520   0.59258   0.00000  Uiso   1.00
H1049  H     0.21181   0.74728   0.57886   0.00000  Uiso   1.00
H1050  H     0.29952   0.76342   0.85165   0.00000  Uiso   1.00
H1051  H     0.33111   0.81387   0.85150   0.00000  Uiso   1.00
H1052  H     0.02185   0.76821   0.82223   0.00000  Uiso   1.00
H1053  H     0.10338   0.92969   0.90544   0.00000  Uiso   1.00
H1054  H     0.14441   0.99493   0.88244   0.00000  Uiso   1.00
H1055  H     0.18549   0.98457   0.90696   0.00000  Uiso   1.00
H1056  H     0.13358   0.99548   0.94224   0.00000  Uiso   1.00
H1057  H     0.04669   0.88821   0.71788   0.00000  Uiso   1.00
H1058  H     0.05180   0.87930   0.63983   0.00000  Uiso   1.00
H1059  H     0.00418   0.84234   0.64910   0.00000  Uiso   1.00
H1060  H     0.20681   0.67049   0.71177   0.00000  Uiso   1.00
H1061  H     0.05283   0.82894   0.65856   0.00000  Uiso   1.00
H1062  H     0.12499   0.99785   0.78866   0.00000  Uiso   1.00
H1063  H     0.17210   0.73585   0.94347   0.00000  Uiso   1.00
H1064  H     0.20210   0.72516   0.50418   0.00000  Uiso   1.00
H1065  H     0.18663   0.91076   0.52274   0.00000  Uiso   1.00
H1066  H     0.16243   0.95625   0.98271   0.00000  Uiso   1.00
H1067  H     0.14265   0.77959   0.90533   0.00000  Uiso   1.00
H1068  H     0.30486   0.76488   0.77332   0.00000  Uiso   1.00
N1069  N     0.31425   0.79169   0.79133   0.00000  Uiso   1.00
N1070  N     0.13478   0.93597   0.90718   0.00000  Uiso   1.00
N1071  N     0.02114   0.87199   0.70710   0.00000  Uiso   1.00
O1072  O     0.16667   0.83333   0.75000   0.00000  Uiso   1.00
O1073  O     0.15451   0.79304   0.65458   0.00000  Uiso   1.00
O1074  O     0.12940   0.87058   0.84968   0.00000  Uiso   1.00
O1075  O     0.20824   0.84425   0.64606   0.00000  Uiso   1.00
O1076  O     0.17451   0.82546   0.84968   0.00000  Uiso   1.00
O1077  O     0.17930   0.74686   0.78213   0.00000  Uiso   1.00
O1078  O     0.14632   0.92751   0.77014   0.00000  Uiso   1.00
O1079  O     0.07412   0.79958   0.73413   0.00000  Uiso   1.00
O1080  O     0.26693   0.85939   0.71360   0.00000  Uiso   1.00
O1081  O     0.07071   0.85544   0.78213   0.00000  Uiso   1.00
O1082  O     0.25491   0.81892   0.77013   0.00000  Uiso   1.00
O1083  O     0.13760   0.73610   0.73413   0.00000  Uiso   1.00
O1084  O     0.20345   0.92286   0.71361   0.00000  Uiso   1.00
Zn1085 Zn    0.19338   0.80661   0.78734   0.00000  Uiso   1.00
Zn1086 Zn    0.13379   0.79124   0.71875   0.00000  Uiso   1.00
Zn1087 Zn    0.21056   0.86442   0.70657   0.00000  Uiso   1.00
Zn1088 Zn    0.12893   0.87106   0.78734   0.00000  Uiso   1.00
C1089  C     0.38641   0.82638   0.75970   0.00000  Uiso   1.00
C1090  C     0.50904   0.83513   0.55936   0.00000  Uiso   1.00
C1091  C     0.53511   0.76898   0.56088   0.00000  Uiso   1.00
C1092  C     0.61404   0.84022   0.73999   0.00000  Uiso   1.00
C1093  C     0.48085   0.86517   0.91825   0.00000  Uiso   1.00
C1094  C     0.65977   0.84400   0.73728   0.00000  Uiso   1.00
C1095  C     0.34119   0.82268   0.76405   0.00000  Uiso   1.00
C1096  C     0.51375   0.98917   0.73663   0.00000  Uiso   1.00
C1097  C     0.48512   0.67837   0.76371   0.00000  Uiso   1.00
C1098  C     0.48942   0.72255   0.76016   0.00000  Uiso   1.00
C1099  C     0.50989   0.94454   0.74020   0.00000  Uiso   1.00
C1100  C     0.49330   0.92332   0.97180   0.00000  Uiso   1.00
C1101  C     0.51862   0.81451   0.62956   0.00000  Uiso   1.00
C1102  C     0.48214   0.85170   0.87086   0.00000  Uiso   1.00
C1103  C     0.52956   0.75643   0.51850   0.00000  Uiso   1.00
C1104  C     0.52365   0.80748   0.58176   0.00000  Uiso   1.00
C1105  C     0.48015   0.90824   0.93294   0.00000  Uiso   1.00
C1106  C     0.65919   0.78399   0.83121   0.00000  Uiso   1.00
C1107  C     0.48384   0.98005   0.91014   0.00000  Uiso   1.00
C1108  C     0.36635   0.85456   0.66133   0.00000  Uiso   1.00
C1109  C     0.50517   0.89652   0.99660   0.00000  Uiso   1.00
C1110  C     0.49989   0.85297   0.98660   0.00000  Uiso   1.00
C1111  C     0.48901   0.83724   0.94604   0.00000  Uiso   1.00
C1112  C     0.50857   0.82480   0.51392   0.00000  Uiso   1.00
C1113  C     0.51478   0.78333   0.99566   0.00000  Uiso   1.00
C1114  C     0.50363   0.76822   0.95607   0.00000  Uiso   1.00
C1115  C     0.48792   0.79399   0.93345   0.00000  Uiso   1.00
Cl1116 Cl    0.48073   0.87520   0.59258   0.00000  Uiso   1.00
H1117  H     0.54515   0.74728   0.57886   0.00000  Uiso   1.00
H1118  H     0.63285   0.76342   0.85165   0.00000  Uiso   1.00
H1119  H     0.66444   0.81387   0.85150   0.00000  Uiso   1.00
H1120  H     0.35518   0.76821   0.82223   0.00000  Uiso   1.00
H1121  H     0.43672   0.92969   0.90544   0.00000  Uiso   1.00
H1122  H     0.47774   0.99493   0.88244   0.00000  Uiso   1.00
H1123  H     0.51882   0.98457   0.90696   0.00000  Uiso   1.00
H1124  H     0.46692   0.99548   0.94224   0.00000  Uiso   1.00
H1125  H     0.38002   0.88821   0.71788   0.00000  Uiso   1.00
H1126  H     0.38513   0.87930   0.63983   0.00000  Uiso   1.00
H1127  H     0.33752   0.84234   0.64910   0.00000  Uiso   1.00
H1128  H     0.54015   0.67049   0.71177   0.00000  Uiso   1.00
H1129  H     0.38616   0.82894   0.65856   0.00000  Uiso   1.00
H1130  H     0.45832   0.99785   0.78866   0.00000  Uiso   1.00
H1131  H     0.50543   0.73585   0.94347   0.00000  Uiso   1.00
H1132  H     0.53544   0.72516   0.50418   0.00000  Uiso   1.00
H1133  H     0.51996   0.91076   0.52274   0.00000  Uiso   1.00
H1134  H     0.49577   0.95625   0.98271   0.00000  Uiso   1.00
H1135  H     0.47599   0.77959   0.90533   0.00000  Uiso   1.00
H1136  H     0.63819   0.76488   0.77332   0.00000  Uiso   1.00
N1137  N     0.64759   0.79169   0.79133   0.00000  Uiso   1.00
N1138  N     0.46811   0.93597   0.90718   0.00000  Uiso   1.00
N1139  N     0.35447   0.87199   0.70710   0.00000  Uiso   1.00
O1140  O     0.50000   0.83333   0.75000   0.00000  Uiso   1.00
O1141  O     0.48784   0.79304   0.65458   0.00000  Uiso   1.00
O1142  O     0.46274   0.87058   0.84968   0.00000  Uiso   1.00
O1143  O     0.54157   0.84425   0.64606   0.00000  Uiso   1.00
O1144  O     0.50785   0.82546   0.84968   0.00000  Uiso   1.00
O1145  O     0.51264   0.74686   0.78213   0.00000  Uiso   1.00
O1146  O     0.47965   0.92751   0.77014   0.00000  Uiso   1.00
O1147  O     0.40745   0.79958   0.73413   0.00000  Uiso   1.00
O1148  O     0.60026   0.85939   0.71360   0.00000  Uiso   1.00
O1149  O     0.40405   0.85544   0.78213   0.00000  Uiso   1.00
O1150  O     0.58824   0.81892   0.77013   0.00000  Uiso   1.00
O1151  O     0.47093   0.73610   0.73413   0.00000  Uiso   1.00
O1152  O     0.53678   0.92286   0.71361   0.00000  Uiso   1.00
Zn1153 Zn    0.52672   0.80661   0.78734   0.00000  Uiso   1.00
Zn1154 Zn    0.46713   0.79124   0.71875   0.00000  Uiso   1.00
Zn1155 Zn    0.54389   0.86442   0.70657   0.00000  Uiso   1.00
Zn1156 Zn    0.46226   0.87106   0.78734   0.00000  Uiso   1.00
C1157  C     0.71975   0.82638   0.75970   0.00000  Uiso   1.00
C1158  C     0.84238   0.83513   0.55936   0.00000  Uiso   1.00
C1159  C     0.86844   0.76898   0.56088   0.00000  Uiso   1.00
C1160  C     0.94737   0.84022   0.73999   0.00000  Uiso   1.00
C1161  C     0.81418   0.86517   0.91825   0.00000  Uiso   1.00
C1162  C     0.99311   0.84400   0.73728   0.00000  Uiso   1.00
C1163  C     0.67452   0.82268   0.76405   0.00000  Uiso   1.00
C1164  C     0.84708   0.98917   0.73663   0.00000  Uiso   1.00
C1165  C     0.81845   0.67837   0.76371   0.00000  Uiso   1.00
C1166  C     0.82276   0.72255   0.76016   0.00000  Uiso   1.00
C1167  C     0.84322   0.94454   0.74020   0.00000  Uiso   1.00
C1168  C     0.82664   0.92332   0.97180   0.00000  Uiso   1.00
C1169  C     0.85196   0.81451   0.62956   0.00000  Uiso   1.00
C1170  C     0.81548   0.85170   0.87086   0.00000  Uiso   1.00
C1171  C     0.86289   0.75643   0.51850   0.00000  Uiso   1.00
C1172  C     0.85699   0.80748   0.58176   0.00000  Uiso   1.00
C1173  C     0.81349   0.90824   0.93294   0.00000  Uiso   1.00
C1174  C     0.99253   0.78399   0.83121   0.00000  Uiso   1.00
C1175  C     0.81718   0.98005   0.91014   0.00000  Uiso   1.00
C1176  C     0.69969   0.85456   0.66133   0.00000  Uiso   1.00
C1177  C     0.83850   0.89652   0.99660   0.00000  Uiso   1.00
C1178  C     0.83323   0.85297   0.98660   0.00000  Uiso   1.00
C1179  C     0.82234   0.83724   0.94604   0.00000  Uiso   1.00
C1180  C     0.84190   0.82480   0.51392   0.00000  Uiso   1.00
C1181  C     0.84811   0.78333   0.99566   0.00000  Uiso   1.00
C1182  C     0.83696   0.76822   0.95607   0.00000  Uiso   1.00
C1183  C     0.82125   0.79399   0.93345   0.00000  Uiso   1.00
Cl1184 Cl    0.81407   0.87520   0.59258   0.00000  Uiso   1.00
H1185  H     0.87848   0.74728   0.57886   0.00000  Uiso   1.00
H1186  H     0.96619   0.76342   0.85165   0.00000  Uiso   1.00
H1187  H     0.99778   0.81387   0.85150   0.00000  Uiso   1.00
H1188  H     0.68852   0.76821   0.82223   0.00000  Uiso   1.00
H1189  H     0.77005   0.92969   0.90544   0.00000  Uiso   1.00
H1190  H     0.81107   0.99493   0.88244   0.00000  Uiso   1.00
H1191  H     0.85215   0.98457   0.90696   0.00000  Uiso   1.00
H1192  H     0.80025   0.99548   0.94224   0.00000  Uiso   1.00
H1193  H     0.71335   0.88821   0.71788   0.00000  Uiso   1.00
H1194  H     0.71847   0.87930   0.63983   0.00000  Uiso   1.00
H1195  H     0.67085   0.84234   0.64910   0.00000  Uiso   1.00
H1196  H     0.87348   0.67049   0.71177   0.00000  Uiso   1.00
H1197  H     0.71949   0.82894   0.65856   0.00000  Uiso   1.00
H1198  H     0.79166   0.99785   0.78866   0.00000  Uiso   1.00
H1199  H     0.83876   0.73585   0.94347   0.00000  Uiso   1.00
H1200  H     0.86877   0.72516   0.50418   0.00000  Uiso   1.00
H1201  H     0.85329   0.91076   0.52274   0.00000  Uiso   1.00
H1202  H     0.82910   0.95625   0.98271   0.00000  Uiso   1.00
H1203  H     0.80932   0.77959   0.90533   0.00000  Uiso   1.00
H1204  H     0.97153   0.76488   0.77332   0.00000  Uiso   1.00
N1205  N     0.98092   0.79169   0.79133   0.00000  Uiso   1.00
N1206  N     0.80145   0.93597   0.90718   0.00000  Uiso   1.00
N1207  N     0.68781   0.87199   0.70710   0.00000  Uiso   1.00
O1208  O     0.83333   0.83333   0.75000   0.00000  Uiso   1.00
O1209  O     0.82118   0.79304   0.65458   0.00000  Uiso   1.00
O1210  O     0.79607   0.87058   0.84968   0.00000  Uiso   1.00
O1211  O     0.87491   0.84425   0.64606   0.00000  Uiso   1.00
O1212  O     0.84118   0.82546   0.84968   0.00000  Uiso   1.00
O1213  O     0.84597   0.74686   0.78213   0.00000  Uiso   1.00
O1214  O     0.81298   0.92751   0.77014   0.00000  Uiso   1.00
O1215  O     0.74078   0.79958   0.73413   0.00000  Uiso   1.00
O1216  O     0.93360   0.85939   0.71360   0.00000  Uiso   1.00
O1217  O     0.73738   0.85544   0.78213   0.00000  Uiso   1.00
O1218  O     0.92158   0.81892   0.77013   0.00000  Uiso   1.00
O1219  O     0.80426   0.73610   0.73413   0.00000  Uiso   1.00
O1220  O     0.87012   0.92286   0.71361   0.00000  Uiso   1.00
Zn1221 Zn    0.86005   0.80661   0.78734   0.00000  Uiso   1.00
Zn1222 Zn    0.80046   0.79124   0.71875   0.00000  Uiso   1.00
Zn1223 Zn    0.87723   0.86442   0.70657   0.00000  Uiso   1.00
Zn1224 Zn    0.79560   0.87106   0.78734   0.00000  Uiso   1.00
loop_
_geom_bond_atom_site_label_1
_geom_bond_atom_site_label_2
_geom_bond_distance
_geom_bond_site_symmetry_2
_ccdc_geom_bond_type
C1     O59     1.264   .     A
C1     O61     1.268   .     A
C1     C7      1.438   .     S
C2     C24     1.419   .     A
C2     C16     1.404   .     A
C2     Cl28    1.780   .     S
C3     H29     1.084   .     S
C3     C15     1.386   .     A
C3     C16     1.396   .     A
C4     O62     1.277   .     A
C4     O60     1.289   .     A
C4     C6      1.464   .     S
C5     C23     1.421   .     A
C5     C17     1.422   .     A
C5     C14     1.481   .     S
C6     C75     1.361   .     S
C6     N119    1.431   .     S
C7     C142    1.361   1_455 S
C7     N185    1.432   1_455 S
C8     C11     1.450   .     S
C8     C213    1.331   .     S
C8     H244    1.088   .     S
C9     C10     1.435   .     S
C9     C416    1.331   1_545 S
C9     H450    1.086   1_545 S
C10    O63     1.279   .     A
C10    O57     1.279   .     A
C11    O58     1.275   .     A
C11    O64     1.274   .     A
C12    C17     1.401   .     A
C12    C21     1.385   .     A
C12    H46     1.081   .     S
C13    O53     1.270   .     A
C13    C16     1.448   .     S
C13    O55     1.277   .     A
C14    O56     1.289   .     A
C14    O54     1.282   .     A
C15    H44     1.084   .     S
C15    C637    1.398   1_554 S
C17    N50     1.431   .     S
C18    H30     1.110   .     S
C18    H31     1.111   .     S
C18    N49     1.448   .     S
C18    H100    1.111   .     S
C19    H35     1.111   .     S
C19    H36     1.111   .     S
C19    N50     1.448   .     S
C19    H34     1.110   .     S
C20    H38     1.110   .     S
C20    H41     1.111   .     S
C20    N51     1.446   .     S
C20    H39     1.111   .     S
C21    C22     1.407   .     A
C21    H657    1.078   .     S
C22    C23     1.420   .     A
C22    C636    1.423   .     S
C23    C27     1.411   .     A
C24    C634    1.423   1_554 S
C24    C637    1.422   1_554 S
C25    C26     1.391   .     A
C25    C636    1.422   .     S
C25    C627    1.398   .     S
C26    C27     1.384   .     A
C26    H43     1.083   .     S
C27    H47     1.081   .     S
H32    C154    1.111   1_455 S
H33    N50     1.031   .     S
H37    N51     1.031   .     S
H40    C416    1.088   1_545 S
H42    C213    1.086   .     S
H45    C633    1.078   1_554 S
H48    N49     1.032   .     S
N49    C75     1.432   .     S
N51    C142    1.431   1_455 S
O52    Zn66    1.942   .     S
O52    Zn67    1.943   .     S
O52    Zn65    1.966   .     S
O52    Zn68    1.936   .     S
O53    Zn66    1.939   .     S
O54    Zn68    1.947   .     S
O55    Zn67    1.939   .     S
O56    Zn65    1.932   .     S
O57    Zn65    1.924   .     S
O58    Zn68    1.930   .     S
O59    Zn66    1.937   .     S
O60    Zn67    1.946   .     S
O61    Zn68    1.941   .     S
O62    Zn65    1.935   .     S
O63    Zn66    1.936   .     S
O64    Zn67    1.927   .     S
C69    O127    1.264   .     A
C69    O129    1.268   .     A
C69    C75     1.438   .     S
C70    C92     1.419   .     A
C70    C84     1.404   .     A
C70    Cl96    1.780   .     S
C71    H97     1.084   .     S
C71    C83     1.386   .     A
C71    C84     1.396   .     A
C72    O130    1.277   .     A
C72    O128    1.289   .     A
C72    C74     1.464   .     S
C73    C91     1.421   .     A
C73    C85     1.422   .     A
C73    C82     1.481   .     S
C74    C143    1.361   .     S
C74    N187    1.431   .     S
C76    C79     1.450   .     S
C76    C281    1.331   .     S
C76    H312    1.088   .     S
C77    C78     1.435   .     S
C77    C484    1.331   1_545 S
C77    H518    1.086   1_545 S
C78    O131    1.279   .     A
C78    O125    1.279   .     A
C79    O126    1.275   .     A
C79    O132    1.274   .     A
C80    C85     1.401   .     A
C80    C89     1.385   .     A
C80    H114    1.081   .     S
C81    O121    1.270   .     A
C81    C84     1.448   .     S
C81    O123    1.277   .     A
C82    O124    1.289   .     A
C82    O122    1.282   .     A
C83    H112    1.084   .     S
C83    C705    1.398   1_554 S
C85    N118    1.431   .     S
C86    H98     1.110   .     S
C86    H99     1.111   .     S
C86    N117    1.448   .     S
C86    H168    1.111   .     S
C87    H103    1.111   .     S
C87    H104    1.111   .     S
C87    N118    1.448   .     S
C87    H102    1.110   .     S
C88    H106    1.110   .     S
C88    H109    1.111   .     S
C88    N119    1.446   .     S
C88    H107    1.111   .     S
C89    C90     1.407   .     A
C89    H725    1.078   .     S
C90    C91     1.420   .     A
C90    C704    1.423   .     S
C91    C95     1.411   .     A
C92    C702    1.423   1_554 S
C92    C705    1.422   1_554 S
C93    C94     1.391   .     A
C93    C704    1.422   .     S
C93    C695    1.398   .     S
C94    C95     1.384   .     A
C94    H111    1.083   .     S
C95    H115    1.081   .     S
H101   N118    1.031   .     S
H105   N119    1.031   .     S
H108   C484    1.088   1_545 S
H110   C281    1.086   .     S
H113   C701    1.078   1_554 S
H116   N117    1.032   .     S
N117   C143    1.432   .     S
O120   Zn134   1.942   .     S
O120   Zn135   1.943   .     S
O120   Zn133   1.966   .     S
O120   Zn136   1.936   .     S
O121   Zn134   1.939   .     S
O122   Zn136   1.947   .     S
O123   Zn135   1.939   .     S
O124   Zn133   1.932   .     S
O125   Zn133   1.924   .     S
O126   Zn136   1.930   .     S
O127   Zn134   1.937   .     S
O128   Zn135   1.946   .     S
O129   Zn136   1.941   .     S
O130   Zn133   1.935   .     S
O131   Zn134   1.936   .     S
O132   Zn135   1.927   .     S
C137   O195    1.264   .     A
C137   O197    1.268   .     A
C137   C143    1.438   .     S
C138   C160    1.419   .     A
C138   C152    1.404   .     A
C138   Cl164   1.780   .     S
C139   H165    1.084   .     S
C139   C151    1.386   .     A
C139   C152    1.396   .     A
C140   O198    1.277   .     A
C140   O196    1.289   .     A
C140   C142    1.464   .     S
C141   C159    1.421   .     A
C141   C153    1.422   .     A
C141   C150    1.481   .     S
C142   C7      1.361   1_655 S
C142   N51     1.431   1_655 S
C144   C147    1.450   .     S
C144   C349    1.331   .     S
C144   H380    1.088   .     S
C145   C146    1.435   .     S
C145   C552    1.331   1_545 S
C145   H586    1.086   1_545 S
C146   O199    1.279   .     A
C146   O193    1.279   .     A
C147   O194    1.275   .     A
C147   O200    1.274   .     A
C148   C153    1.401   .     A
C148   C157    1.385   .     A
C148   H182    1.081   .     S
C149   O189    1.270   .     A
C149   C152    1.448   .     S
C149   O191    1.277   .     A
C150   O192    1.289   .     A
C150   O190    1.282   .     A
C151   H180    1.084   .     S
C151   C773    1.398   1_554 S
C153   N186    1.431   .     S
C154   H166    1.110   .     S
C154   H167    1.111   .     S
C154   N185    1.448   .     S
C154   H32     1.111   1_655 S
C155   H171    1.111   .     S
C155   H172    1.111   .     S
C155   N186    1.448   .     S
C155   H170    1.110   .     S
C156   H174    1.110   .     S
C156   H177    1.111   .     S
C156   N187    1.446   .     S
C156   H175    1.111   .     S
C157   C158    1.407   .     A
C157   H793    1.078   .     S
C158   C159    1.420   .     A
C158   C772    1.423   .     S
C159   C163    1.411   .     A
C160   C770    1.423   1_554 S
C160   C773    1.422   1_554 S
C161   C162    1.391   .     A
C161   C772    1.422   .     S
C161   C763    1.398   .     S
C162   C163    1.384   .     A
C162   H179    1.083   .     S
C163   H183    1.081   .     S
H169   N186    1.031   .     S
H173   N187    1.031   .     S
H176   C552    1.088   1_545 S
H178   C349    1.086   .     S
H181   C769    1.078   1_554 S
H184   N185    1.032   .     S
N185   C7      1.432   1_655 S
O188   Zn202   1.942   .     S
O188   Zn203   1.943   .     S
O188   Zn201   1.966   .     S
O188   Zn204   1.936   .     S
O189   Zn202   1.939   .     S
O190   Zn204   1.947   .     S
O191   Zn203   1.939   .     S
O192   Zn201   1.932   .     S
O193   Zn201   1.924   .     S
O194   Zn204   1.930   .     S
O195   Zn202   1.937   .     S
O196   Zn203   1.946   .     S
O197   Zn204   1.941   .     S
O198   Zn201   1.935   .     S
O199   Zn202   1.936   .     S
O200   Zn203   1.927   .     S
C205   O263    1.264   .     A
C205   O265    1.268   .     A
C205   C211    1.438   .     S
C206   C228    1.419   .     A
C206   C220    1.404   .     A
C206   Cl232   1.780   .     S
C207   H233    1.084   .     S
C207   C219    1.386   .     A
C207   C220    1.396   .     A
C208   O266    1.277   .     A
C208   O264    1.289   .     A
C208   C210    1.464   .     S
C209   C227    1.421   .     A
C209   C221    1.422   .     A
C209   C218    1.481   .     S
C210   C279    1.361   .     S
C210   N323    1.431   .     S
C211   C346    1.361   1_455 S
C211   N389    1.432   1_455 S
C212   C215    1.450   .     S
C212   C417    1.331   .     S
C212   H448    1.088   .     S
C213   C214    1.435   .     S
C214   O267    1.279   .     A
C214   O261    1.279   .     A
C215   O262    1.275   .     A
C215   O268    1.274   .     A
C216   C221    1.401   .     A
C216   C225    1.385   .     A
C216   H250    1.081   .     S
C217   O257    1.270   .     A
C217   C220    1.448   .     S
C217   O259    1.277   .     A
C218   O260    1.289   .     A
C218   O258    1.282   .     A
C219   H248    1.084   .     S
C219   C841    1.398   1_554 S
C221   N254    1.431   .     S
C222   H234    1.110   .     S
C222   H235    1.111   .     S
C222   N253    1.448   .     S
C222   H304    1.111   .     S
C223   H239    1.111   .     S
C223   H240    1.111   .     S
C223   N254    1.448   .     S
C223   H238    1.110   .     S
C224   H242    1.110   .     S
C224   H245    1.111   .     S
C224   N255    1.446   .     S
C224   H243    1.111   .     S
C225   C226    1.407   .     A
C225   H861    1.078   .     S
C226   C227    1.420   .     A
C226   C840    1.423   .     S
C227   C231    1.411   .     A
C228   C838    1.423   1_554 S
C228   C841    1.422   1_554 S
C229   C230    1.391   .     A
C229   C840    1.422   .     S
C229   C831    1.398   .     S
C230   C231    1.384   .     A
C230   H247    1.083   .     S
C231   H251    1.081   .     S
H236   C358    1.111   1_455 S
H237   N254    1.031   .     S
H241   N255    1.031   .     S
H246   C417    1.086   .     S
H249   C837    1.078   1_554 S
H252   N253    1.032   .     S
N253   C279    1.432   .     S
N255   C346    1.431   1_455 S
O256   Zn270   1.942   .     S
O256   Zn271   1.943   .     S
O256   Zn269   1.966   .     S
O256   Zn272   1.936   .     S
O257   Zn270   1.939   .     S
O258   Zn272   1.947   .     S
O259   Zn271   1.939   .     S
O260   Zn269   1.932   .     S
O261   Zn269   1.924   .     S
O262   Zn272   1.930   .     S
O263   Zn270   1.937   .     S
O264   Zn271   1.946   .     S
O265   Zn272   1.941   .     S
O266   Zn269   1.935   .     S
O267   Zn270   1.936   .     S
O268   Zn271   1.927   .     S
C273   O331    1.264   .     A
C273   O333    1.268   .     A
C273   C279    1.438   .     S
C274   C296    1.419   .     A
C274   C288    1.404   .     A
C274   Cl300   1.780   .     S
C275   H301    1.084   .     S
C275   C287    1.386   .     A
C275   C288    1.396   .     A
C276   O334    1.277   .     A
C276   O332    1.289   .     A
C276   C278    1.464   .     S
C277   C295    1.421   .     A
C277   C289    1.422   .     A
C277   C286    1.481   .     S
C278   C347    1.361   .     S
C278   N391    1.431   .     S
C280   C283    1.450   .     S
C280   C485    1.331   .     S
C280   H516    1.088   .     S
C281   C282    1.435   .     S
C282   O335    1.279   .     A
C282   O329    1.279   .     A
C283   O330    1.275   .     A
C283   O336    1.274   .     A
C284   C289    1.401   .     A
C284   C293    1.385   .     A
C284   H318    1.081   .     S
C285   O325    1.270   .     A
C285   C288    1.448   .     S
C285   O327    1.277   .     A
C286   O328    1.289   .     A
C286   O326    1.282   .     A
C287   H316    1.084   .     S
C287   C909    1.398   1_554 S
C289   N322    1.431   .     S
C290   H302    1.110   .     S
C290   H303    1.111   .     S
C290   N321    1.448   .     S
C290   H372    1.111   .     S
C291   H307    1.111   .     S
C291   H308    1.111   .     S
C291   N322    1.448   .     S
C291   H306    1.110   .     S
C292   H310    1.110   .     S
C292   H313    1.111   .     S
C292   N323    1.446   .     S
C292   H311    1.111   .     S
C293   C294    1.407   .     A
C293   H929    1.078   .     S
C294   C295    1.420   .     A
C294   C908    1.423   .     S
C295   C299    1.411   .     A
C296   C906    1.423   1_554 S
C296   C909    1.422   1_554 S
C297   C298    1.391   .     A
C297   C908    1.422   .     S
C297   C899    1.398   .     S
C298   C299    1.384   .     A
C298   H315    1.083   .     S
C299   H319    1.081   .     S
H305   N322    1.031   .     S
H309   N323    1.031   .     S
H314   C485    1.086   .     S
H317   C905    1.078   1_554 S
H320   N321    1.032   .     S
N321   C347    1.432   .     S
O324   Zn338   1.942   .     S
O324   Zn339   1.943   .     S
O324   Zn337   1.966   .     S
O324   Zn340   1.936   .     S
O325   Zn338   1.939   .     S
O326   Zn340   1.947   .     S
O327   Zn339   1.939   .     S
O328   Zn337   1.932   .     S
O329   Zn337   1.924   .     S
O330   Zn340   1.930   .     S
O331   Zn338   1.937   .     S
O332   Zn339   1.946   .     S
O333   Zn340   1.941   .     S
O334   Zn337   1.935   .     S
O335   Zn338   1.936   .     S
O336   Zn339   1.927   .     S
C341   O399    1.264   .     A
C341   O401    1.268   .     A
C341   C347    1.438   .     S
C342   C364    1.419   .     A
C342   C356    1.404   .     A
C342   Cl368   1.780   .     S
C343   H369    1.084   .     S
C343   C355    1.386   .     A
C343   C356    1.396   .     A
C344   O402    1.277   .     A
C344   O400    1.289   .     A
C344   C346    1.464   .     S
C345   C363    1.421   .     A
C345   C357    1.422   .     A
C345   C354    1.481   .     S
C346   C211    1.361   1_655 S
C346   N255    1.431   1_655 S
C348   C351    1.450   .     S
C348   C553    1.331   .     S
C348   H584    1.088   .     S
C349   C350    1.435   .     S
C350   O403    1.279   .     A
C350   O397    1.279   .     A
C351   O398    1.275   .     A
C351   O404    1.274   .     A
C352   C357    1.401   .     A
C352   C361    1.385   .     A
C352   H386    1.081   .     S
C353   O393    1.270   .     A
C353   C356    1.448   .     S
C353   O395    1.277   .     A
C354   O396    1.289   .     A
C354   O394    1.282   .     A
C355   H384    1.084   .     S
C355   C977    1.398   1_554 S
C357   N390    1.431   .     S
C358   H370    1.110   .     S
C358   H371    1.111   .     S
C358   N389    1.448   .     S
C358   H236    1.111   1_655 S
C359   H375    1.111   .     S
C359   H376    1.111   .     S
C359   N390    1.448   .     S
C359   H374    1.110   .     S
C360   H378    1.110   .     S
C360   H381    1.111   .     S
C360   N391    1.446   .     S
C360   H379    1.111   .     S
C361   C362    1.407   .     A
C361   H997    1.078   .     S
C362   C363    1.420   .     A
C362   C976    1.423   .     S
C363   C367    1.411   .     A
C364   C974    1.423   1_554 S
C364   C977    1.422   1_554 S
C365   C366    1.391   .     A
C365   C976    1.422   .     S
C365   C967    1.398   .     S
C366   C367    1.384   .     A
C366   H383    1.083   .     S
C367   H387    1.081   .     S
H373   N390    1.031   .     S
H377   N391    1.031   .     S
H382   C553    1.086   .     S
H385   C973    1.078   1_554 S
H388   N389    1.032   .     S
N389   C211    1.432   1_655 S
O392   Zn406   1.942   .     S
O392   Zn407   1.943   .     S
O392   Zn405   1.966   .     S
O392   Zn408   1.936   .     S
O393   Zn406   1.939   .     S
O394   Zn408   1.947   .     S
O395   Zn407   1.939   .     S
O396   Zn405   1.932   .     S
O397   Zn405   1.924   .     S
O398   Zn408   1.930   .     S
O399   Zn406   1.937   .     S
O400   Zn407   1.946   .     S
O401   Zn408   1.941   .     S
O402   Zn405   1.935   .     S
O403   Zn406   1.936   .     S
O404   Zn407   1.927   .     S
C409   O467    1.264   .     A
C409   O469    1.268   .     A
C409   C415    1.438   .     S
C410   C432    1.419   .     A
C410   C424    1.404   .     A
C410   Cl436   1.780   .     S
C411   H437    1.084   .     S
C411   C423    1.386   .     A
C411   C424    1.396   .     A
C412   O470    1.277   .     A
C412   O468    1.289   .     A
C412   C414    1.464   .     S
C413   C431    1.421   .     A
C413   C425    1.422   .     A
C413   C422    1.481   .     S
C414   C483    1.361   .     S
C414   N527    1.431   .     S
C415   C550    1.361   1_455 S
C415   N593    1.432   1_455 S
C416   C419    1.450   .     S
C416   C9      1.331   1_565 S
C416   H40     1.088   1_565 S
C417   C418    1.435   .     S
C418   O471    1.279   .     A
C418   O465    1.279   .     A
C419   O466    1.275   .     A
C419   O472    1.274   .     A
C420   C425    1.401   .     A
C420   C429    1.385   .     A
C420   H454    1.081   .     S
C421   O461    1.270   .     A
C421   C424    1.448   .     S
C421   O463    1.277   .     A
C422   O464    1.289   .     A
C422   O462    1.282   .     A
C423   H452    1.084   .     S
C423   C1045   1.398   1_554 S
C425   N458    1.431   .     S
C426   H438    1.110   .     S
C426   H439    1.111   .     S
C426   N457    1.448   .     S
C426   H508    1.111   .     S
C427   H443    1.111   .     S
C427   H444    1.111   .     S
C427   N458    1.448   .     S
C427   H442    1.110   .     S
C428   H446    1.110   .     S
C428   H449    1.111   .     S
C428   N459    1.446   .     S
C428   H447    1.111   .     S
C429   C430    1.407   .     A
C429   H1065   1.078   .     S
C430   C431    1.420   .     A
C430   C1044   1.423   .     S
C431   C435    1.411   .     A
C432   C1042   1.423   1_554 S
C432   C1045   1.422   1_554 S
C433   C434    1.391   .     A
C433   C1044   1.422   .     S
C433   C1035   1.398   .     S
C434   C435    1.384   .     A
C434   H451    1.083   .     S
C435   H455    1.081   .     S
H440   C562    1.111   1_455 S
H441   N458    1.031   .     S
H445   N459    1.031   .     S
H450   C9      1.086   1_565 S
H453   C1041   1.078   1_554 S
H456   N457    1.032   .     S
N457   C483    1.432   .     S
N459   C550    1.431   1_455 S
O460   Zn474   1.942   .     S
O460   Zn475   1.943   .     S
O460   Zn473   1.966   .     S
O460   Zn476   1.936   .     S
O461   Zn474   1.939   .     S
O462   Zn476   1.947   .     S
O463   Zn475   1.939   .     S
O464   Zn473   1.932   .     S
O465   Zn473   1.924   .     S
O466   Zn476   1.930   .     S
O467   Zn474   1.937   .     S
O468   Zn475   1.946   .     S
O469   Zn476   1.941   .     S
O470   Zn473   1.935   .     S
O471   Zn474   1.936   .     S
O472   Zn475   1.927   .     S
C477   O535    1.264   .     A
C477   O537    1.268   .     A
C477   C483    1.438   .     S
C478   C500    1.419   .     A
C478   C492    1.404   .     A
C478   Cl504   1.780   .     S
C479   H505    1.084   .     S
C479   C491    1.386   .     A
C479   C492    1.396   .     A
C480   O538    1.277   .     A
C480   O536    1.289   .     A
C480   C482    1.464   .     S
C481   C499    1.421   .     A
C481   C493    1.422   .     A
C481   C490    1.481   .     S
C482   C551    1.361   .     S
C482   N595    1.431   .     S
C484   C487    1.450   .     S
C484   C77     1.331   1_565 S
C484   H108    1.088   1_565 S
C485   C486    1.435   .     S
C486   O539    1.279   .     A
C486   O533    1.279   .     A
C487   O534    1.275   .     A
C487   O540    1.274   .     A
C488   C493    1.401   .     A
C488   C497    1.385   .     A
C488   H522    1.081   .     S
C489   O529    1.270   .     A
C489   C492    1.448   .     S
C489   O531    1.277   .     A
C490   O532    1.289   .     A
C490   O530    1.282   .     A
C491   H520    1.084   .     S
C491   C1113   1.398   1_554 S
C493   N526    1.431   .     S
C494   H506    1.110   .     S
C494   H507    1.111   .     S
C494   N525    1.448   .     S
C494   H576    1.111   .     S
C495   H511    1.111   .     S
C495   H512    1.111   .     S
C495   N526    1.448   .     S
C495   H510    1.110   .     S
C496   H514    1.110   .     S
C496   H517    1.111   .     S
C496   N527    1.446   .     S
C496   H515    1.111   .     S
C497   C498    1.407   .     A
C497   H1133   1.078   .     S
C498   C499    1.420   .     A
C498   C1112   1.423   .     S
C499   C503    1.411   .     A
C500   C1110   1.423   1_554 S
C500   C1113   1.422   1_554 S
C501   C502    1.391   .     A
C501   C1112   1.422   .     S
C501   C1103   1.398   .     S
C502   C503    1.384   .     A
C502   H519    1.083   .     S
C503   H523    1.081   .     S
H509   N526    1.031   .     S
H513   N527    1.031   .     S
H518   C77     1.086   1_565 S
H521   C1109   1.078   1_554 S
H524   N525    1.032   .     S
N525   C551    1.432   .     S
O528   Zn542   1.942   .     S
O528   Zn543   1.943   .     S
O528   Zn541   1.966   .     S
O528   Zn544   1.936   .     S
O529   Zn542   1.939   .     S
O530   Zn544   1.947   .     S
O531   Zn543   1.939   .     S
O532   Zn541   1.932   .     S
O533   Zn541   1.924   .     S
O534   Zn544   1.930   .     S
O535   Zn542   1.937   .     S
O536   Zn543   1.946   .     S
O537   Zn544   1.941   .     S
O538   Zn541   1.935   .     S
O539   Zn542   1.936   .     S
O540   Zn543   1.927   .     S
C545   O603    1.264   .     A
C545   O605    1.268   .     A
C545   C551    1.438   .     S
C546   C568    1.419   .     A
C546   C560    1.404   .     A
C546   Cl572   1.780   .     S
C547   H573    1.084   .     S
C547   C559    1.386   .     A
C547   C560    1.396   .     A
C548   O606    1.277   .     A
C548   O604    1.289   .     A
C548   C550    1.464   .     S
C549   C567    1.421   .     A
C549   C561    1.422   .     A
C549   C558    1.481   .     S
C550   C415    1.361   1_655 S
C550   N459    1.431   1_655 S
C552   C555    1.450   .     S
C552   C145    1.331   1_565 S
C552   H176    1.088   1_565 S
C553   C554    1.435   .     S
C554   O607    1.279   .     A
C554   O601    1.279   .     A
C555   O602    1.275   .     A
C555   O608    1.274   .     A
C556   C561    1.401   .     A
C556   C565    1.385   .     A
C556   H590    1.081   .     S
C557   O597    1.270   .     A
C557   C560    1.448   .     S
C557   O599    1.277   .     A
C558   O600    1.289   .     A
C558   O598    1.282   .     A
C559   H588    1.084   .     S
C559   C1181   1.398   1_554 S
C561   N594    1.431   .     S
C562   H574    1.110   .     S
C562   H575    1.111   .     S
C562   N593    1.448   .     S
C562   H440    1.111   1_655 S
C563   H579    1.111   .     S
C563   H580    1.111   .     S
C563   N594    1.448   .     S
C563   H578    1.110   .     S
C564   H582    1.110   .     S
C564   H585    1.111   .     S
C564   N595    1.446   .     S
C564   H583    1.111   .     S
C565   C566    1.407   .     A
C565   H1201   1.078   .     S
C566   C567    1.420   .     A
C566   C1180   1.423   .     S
C567   C571    1.411   .     A
C568   C1178   1.423   1_554 S
C568   C1181   1.422   1_554 S
C569   C570    1.391   .     A
C569   C1180   1.422   .     S
C569   C1171   1.398   .     S
C570   C571    1.384   .     A
C570   H587    1.083   .     S
C571   H591    1.081   .     S
H577   N594    1.031   .     S
H581   N595    1.031   .     S
H586   C145    1.086   1_565 S
H589   C1177   1.078   1_554 S
H592   N593    1.032   .     S
N593   C415    1.432   1_655 S
O596   Zn610   1.942   .     S
O596   Zn611   1.943   .     S
O596   Zn609   1.966   .     S
O596   Zn612   1.936   .     S
O597   Zn610   1.939   .     S
O598   Zn612   1.947   .     S
O599   Zn611   1.939   .     S
O600   Zn609   1.932   .     S
O601   Zn609   1.924   .     S
O602   Zn612   1.930   .     S
O603   Zn610   1.937   .     S
O604   Zn611   1.946   .     S
O605   Zn612   1.941   .     S
O606   Zn609   1.935   .     S
O607   Zn610   1.936   .     S
O608   Zn611   1.927   .     S
C613   O671    1.264   .     A
C613   O673    1.268   .     A
C613   C619    1.438   .     S
C614   C636    1.419   .     A
C614   C628    1.404   .     A
C614   Cl640   1.780   .     S
C615   H641    1.084   .     S
C615   C627    1.386   .     A
C615   C628    1.396   .     A
C616   O674    1.277   .     A
C616   O672    1.289   .     A
C616   C618    1.464   .     S
C617   C635    1.421   .     A
C617   C629    1.422   .     A
C617   C626    1.481   .     S
C618   C687    1.361   .     S
C618   N731    1.431   .     S
C619   C754    1.361   1_455 S
C619   N797    1.432   1_455 S
C620   C623    1.450   .     S
C620   C825    1.331   .     S
C620   H856    1.088   .     S
C621   C622    1.435   .     S
C621   C1028   1.331   1_545 S
C621   H1062   1.086   1_545 S
C622   O675    1.279   .     A
C622   O669    1.279   .     A
C623   O670    1.275   .     A
C623   O676    1.274   .     A
C624   C629    1.401   .     A
C624   C633    1.385   .     A
C624   H658    1.081   .     S
C625   O665    1.270   .     A
C625   C628    1.448   .     S
C625   O667    1.277   .     A
C626   O668    1.289   .     A
C626   O666    1.282   .     A
C627   H656    1.084   .     S
C629   N662    1.431   .     S
C630   H642    1.110   .     S
C630   H643    1.111   .     S
C630   N661    1.448   .     S
C630   H712    1.111   .     S
C631   H647    1.111   .     S
C631   H648    1.111   .     S
C631   N662    1.448   .     S
C631   H646    1.110   .     S
C632   H650    1.110   .     S
C632   H653    1.111   .     S
C632   N663    1.446   .     S
C632   H651    1.111   .     S
C633   C634    1.407   .     A
C633   H45     1.078   1_556 S
C634   C635    1.420   .     A
C634   C24     1.423   1_556 S
C635   C639    1.411   .     A
C637   C638    1.391   .     A
C637   C24     1.422   1_556 S
C637   C15     1.398   1_556 S
C638   C639    1.384   .     A
C638   H655    1.083   .     S
C639   H659    1.081   .     S
H644   C766    1.111   1_455 S
H645   N662    1.031   .     S
H649   N663    1.031   .     S
H652   C1028   1.088   1_545 S
H654   C825    1.086   .     S
H660   N661    1.032   .     S
N661   C687    1.432   .     S
N663   C754    1.431   1_455 S
O664   Zn678   1.942   .     S
O664   Zn679   1.943   .     S
O664   Zn677   1.966   .     S
O664   Zn680   1.936   .     S
O665   Zn678   1.939   .     S
O666   Zn680   1.947   .     S
O667   Zn679   1.939   .     S
O668   Zn677   1.932   .     S
O669   Zn677   1.924   .     S
O670   Zn680   1.930   .     S
O671   Zn678   1.937   .     S
O672   Zn679   1.946   .     S
O673   Zn680   1.941   .     S
O674   Zn677   1.935   .     S
O675   Zn678   1.936   .     S
O676   Zn679   1.927   .     S
C681   O739    1.264   .     A
C681   O741    1.268   .     A
C681   C687    1.438   .     S
C682   C704    1.419   .     A
C682   C696    1.404   .     A
C682   Cl708   1.780   .     S
C683   H709    1.084   .     S
C683   C695    1.386   .     A
C683   C696    1.396   .     A
C684   O742    1.277   .     A
C684   O740    1.289   .     A
C684   C686    1.464   .     S
C685   C703    1.421   .     A
C685   C697    1.422   .     A
C685   C694    1.481   .     S
C686   C755    1.361   .     S
C686   N799    1.431   .     S
C688   C691    1.450   .     S
C688   C893    1.331   .     S
C688   H924    1.088   .     S
C689   C690    1.435   .     S
C689   C1096   1.331   1_545 S
C689   H1130   1.086   1_545 S
C690   O743    1.279   .     A
C690   O737    1.279   .     A
C691   O738    1.275   .     A
C691   O744    1.274   .     A
C692   C697    1.401   .     A
C692   C701    1.385   .     A
C692   H726    1.081   .     S
C693   O733    1.270   .     A
C693   C696    1.448   .     S
C693   O735    1.277   .     A
C694   O736    1.289   .     A
C694   O734    1.282   .     A
C695   H724    1.084   .     S
C697   N730    1.431   .     S
C698   H710    1.110   .     S
C698   H711    1.111   .     S
C698   N729    1.448   .     S
C698   H780    1.111   .     S
C699   H715    1.111   .     S
C699   H716    1.111   .     S
C699   N730    1.448   .     S
C699   H714    1.110   .     S
C700   H718    1.110   .     S
C700   H721    1.111   .     S
C700   N731    1.446   .     S
C700   H719    1.111   .     S
C701   C702    1.407   .     A
C701   H113    1.078   1_556 S
C702   C703    1.420   .     A
C702   C92     1.423   1_556 S
C703   C707    1.411   .     A
C705   C706    1.391   .     A
C705   C92     1.422   1_556 S
C705   C83     1.398   1_556 S
C706   C707    1.384   .     A
C706   H723    1.083   .     S
C707   H727    1.081   .     S
H713   N730    1.031   .     S
H717   N731    1.031   .     S
H720   C1096   1.088   1_545 S
H722   C893    1.086   .     S
H728   N729    1.032   .     S
N729   C755    1.432   .     S
O732   Zn746   1.942   .     S
O732   Zn747   1.943   .     S
O732   Zn745   1.966   .     S
O732   Zn748   1.936   .     S
O733   Zn746   1.939   .     S
O734   Zn748   1.947   .     S
O735   Zn747   1.939   .     S
O736   Zn745   1.932   .     S
O737   Zn745   1.924   .     S
O738   Zn748   1.930   .     S
O739   Zn746   1.937   .     S
O740   Zn747   1.946   .     S
O741   Zn748   1.941   .     S
O742   Zn745   1.935   .     S
O743   Zn746   1.936   .     S
O744   Zn747   1.927   .     S
C749   O807    1.264   .     A
C749   O809    1.268   .     A
C749   C755    1.438   .     S
C750   C772    1.419   .     A
C750   C764    1.404   .     A
C750   Cl776   1.780   .     S
C751   H777    1.084   .     S
C751   C763    1.386   .     A
C751   C764    1.396   .     A
C752   O810    1.277   .     A
C752   O808    1.289   .     A
C752   C754    1.464   .     S
C753   C771    1.421   .     A
C753   C765    1.422   .     A
C753   C762    1.481   .     S
C754   C619    1.361   1_655 S
C754   N663    1.431   1_655 S
C756   C759    1.450   .     S
C756   C961    1.331   .     S
C756   H992    1.088   .     S
C757   C758    1.435   .     S
C757   C1164   1.331   1_545 S
C757   H1198   1.086   1_545 S
C758   O811    1.279   .     A
C758   O805    1.279   .     A
C759   O806    1.275   .     A
C759   O812    1.274   .     A
C760   C765    1.401   .     A
C760   C769    1.385   .     A
C760   H794    1.081   .     S
C761   O801    1.270   .     A
C761   C764    1.448   .     S
C761   O803    1.277   .     A
C762   O804    1.289   .     A
C762   O802    1.282   .     A
C763   H792    1.084   .     S
C765   N798    1.431   .     S
C766   H778    1.110   .     S
C766   H779    1.111   .     S
C766   N797    1.448   .     S
C766   H644    1.111   1_655 S
C767   H783    1.111   .     S
C767   H784    1.111   .     S
C767   N798    1.448   .     S
C767   H782    1.110   .     S
C768   H786    1.110   .     S
C768   H789    1.111   .     S
C768   N799    1.446   .     S
C768   H787    1.111   .     S
C769   C770    1.407   .     A
C769   H181    1.078   1_556 S
C770   C771    1.420   .     A
C770   C160    1.423   1_556 S
C771   C775    1.411   .     A
C773   C774    1.391   .     A
C773   C160    1.422   1_556 S
C773   C151    1.398   1_556 S
C774   C775    1.384   .     A
C774   H791    1.083   .     S
C775   H795    1.081   .     S
H781   N798    1.031   .     S
H785   N799    1.031   .     S
H788   C1164   1.088   1_545 S
H790   C961    1.086   .     S
H796   N797    1.032   .     S
N797   C619    1.432   1_655 S
O800   Zn814   1.942   .     S
O800   Zn815   1.943   .     S
O800   Zn813   1.966   .     S
O800   Zn816   1.936   .     S
O801   Zn814   1.939   .     S
O802   Zn816   1.947   .     S
O803   Zn815   1.939   .     S
O804   Zn813   1.932   .     S
O805   Zn813   1.924   .     S
O806   Zn816   1.930   .     S
O807   Zn814   1.937   .     S
O808   Zn815   1.946   .     S
O809   Zn816   1.941   .     S
O810   Zn813   1.935   .     S
O811   Zn814   1.936   .     S
O812   Zn815   1.927   .     S
C817   O875    1.264   .     A
C817   O877    1.268   .     A
C817   C823    1.438   .     S
C818   C840    1.419   .     A
C818   C832    1.404   .     A
C818   Cl844   1.780   .     S
C819   H845    1.084   .     S
C819   C831    1.386   .     A
C819   C832    1.396   .     A
C820   O878    1.277   .     A
C820   O876    1.289   .     A
C820   C822    1.464   .     S
C821   C839    1.421   .     A
C821   C833    1.422   .     A
C821   C830    1.481   .     S
C822   C891    1.361   .     S
C822   N935    1.431   .     S
C823   C958    1.361   1_455 S
C823   N1001   1.432   1_455 S
C824   C827    1.450   .     S
C824   C1029   1.331   .     S
C824   H1060   1.088   .     S
C825   C826    1.435   .     S
C826   O879    1.279   .     A
C826   O873    1.279   .     A
C827   O874    1.275   .     A
C827   O880    1.274   .     A
C828   C833    1.401   .     A
C828   C837    1.385   .     A
C828   H862    1.081   .     S
C829   O869    1.270   .     A
C829   C832    1.448   .     S
C829   O871    1.277   .     A
C830   O872    1.289   .     A
C830   O870    1.282   .     A
C831   H860    1.084   .     S
C833   N866    1.431   .     S
C834   H846    1.110   .     S
C834   H847    1.111   .     S
C834   N865    1.448   .     S
C834   H916    1.111   .     S
C835   H851    1.111   .     S
C835   H852    1.111   .     S
C835   N866    1.448   .     S
C835   H850    1.110   .     S
C836   H854    1.110   .     S
C836   H857    1.111   .     S
C836   N867    1.446   .     S
C836   H855    1.111   .     S
C837   C838    1.407   .     A
C837   H249    1.078   1_556 S
C838   C839    1.420   .     A
C838   C228    1.423   1_556 S
C839   C843    1.411   .     A
C841   C842    1.391   .     A
C841   C228    1.422   1_556 S
C841   C219    1.398   1_556 S
C842   C843    1.384   .     A
C842   H859    1.083   .     S
C843   H863    1.081   .     S
H848   C970    1.111   1_455 S
H849   N866    1.031   .     S
H853   N867    1.031   .     S
H858   C1029   1.086   .     S
H864   N865    1.032   .     S
N865   C891    1.432   .     S
N867   C958    1.431   1_455 S
O868   Zn882   1.942   .     S
O868   Zn883   1.943   .     S
O868   Zn881   1.966   .     S
O868   Zn884   1.936   .     S
O869   Zn882   1.939   .     S
O870   Zn884   1.947   .     S
O871   Zn883   1.939   .     S
O872   Zn881   1.932   .     S
O873   Zn881   1.924   .     S
O874   Zn884   1.930   .     S
O875   Zn882   1.937   .     S
O876   Zn883   1.946   .     S
O877   Zn884   1.941   .     S
O878   Zn881   1.935   .     S
O879   Zn882   1.936   .     S
O880   Zn883   1.927   .     S
C885   O943    1.264   .     A
C885   O945    1.268   .     A
C885   C891    1.438   .     S
C886   C908    1.419   .     A
C886   C900    1.404   .     A
C886   Cl912   1.780   .     S
C887   H913    1.084   .     S
C887   C899    1.386   .     A
C887   C900    1.396   .     A
C888   O946    1.277   .     A
C888   O944    1.289   .     A
C888   C890    1.464   .     S
C889   C907    1.421   .     A
C889   C901    1.422   .     A
C889   C898    1.481   .     S
C890   C959    1.361   .     S
C890   N1003   1.431   .     S
C892   C895    1.450   .     S
C892   C1097   1.331   .     S
C892   H1128   1.088   .     S
C893   C894    1.435   .     S
C894   O947    1.279   .     A
C894   O941    1.279   .     A
C895   O942    1.275   .     A
C895   O948    1.274   .     A
C896   C901    1.401   .     A
C896   C905    1.385   .     A
C896   H930    1.081   .     S
C897   O937    1.270   .     A
C897   C900    1.448   .     S
C897   O939    1.277   .     A
C898   O940    1.289   .     A
C898   O938    1.282   .     A
C899   H928    1.084   .     S
C901   N934    1.431   .     S
C902   H914    1.110   .     S
C902   H915    1.111   .     S
C902   N933    1.448   .     S
C902   H984    1.111   .     S
C903   H919    1.111   .     S
C903   H920    1.111   .     S
C903   N934    1.448   .     S
C903   H918    1.110   .     S
C904   H922    1.110   .     S
C904   H925    1.111   .     S
C904   N935    1.446   .     S
C904   H923    1.111   .     S
C905   C906    1.407   .     A
C905   H317    1.078   1_556 S
C906   C907    1.420   .     A
C906   C296    1.423   1_556 S
C907   C911    1.411   .     A
C909   C910    1.391   .     A
C909   C296    1.422   1_556 S
C909   C287    1.398   1_556 S
C910   C911    1.384   .     A
C910   H927    1.083   .     S
C911   H931    1.081   .     S
H917   N934    1.031   .     S
H921   N935    1.031   .     S
H926   C1097   1.086   .     S
H932   N933    1.032   .     S
N933   C959    1.432   .     S
O936   Zn950   1.942   .     S
O936   Zn951   1.943   .     S
O936   Zn949   1.966   .     S
O936   Zn952   1.936   .     S
O937   Zn950   1.939   .     S
O938   Zn952   1.947   .     S
O939   Zn951   1.939   .     S
O940   Zn949   1.932   .     S
O941   Zn949   1.924   .     S
O942   Zn952   1.930   .     S
O943   Zn950   1.937   .     S
O944   Zn951   1.946   .     S
O945   Zn952   1.941   .     S
O946   Zn949   1.935   .     S
O947   Zn950   1.936   .     S
O948   Zn951   1.927   .     S
C953   O1011   1.264   .     A
C953   O1013   1.268   .     A
C953   C959    1.438   .     S
C954   C976    1.419   .     A
C954   C968    1.404   .     A
C954   Cl980   1.780   .     S
C955   H981    1.084   .     S
C955   C967    1.386   .     A
C955   C968    1.396   .     A
C956   O1014   1.277   .     A
C956   O1012   1.289   .     A
C956   C958    1.464   .     S
C957   C975    1.421   .     A
C957   C969    1.422   .     A
C957   C966    1.481   .     S
C958   C823    1.361   1_655 S
C958   N867    1.431   1_655 S
C960   C963    1.450   .     S
C960   C1165   1.331   .     S
C960   H1196   1.088   .     S
C961   C962    1.435   .     S
C962   O1015   1.279   .     A
C962   O1009   1.279   .     A
C963   O1010   1.275   .     A
C963   O1016   1.274   .     A
C964   C969    1.401   .     A
C964   C973    1.385   .     A
C964   H998    1.081   .     S
C965   O1005   1.270   .     A
C965   C968    1.448   .     S
C965   O1007   1.277   .     A
C966   O1008   1.289   .     A
C966   O1006   1.282   .     A
C967   H996    1.084   .     S
C969   N1002   1.431   .     S
C970   H982    1.110   .     S
C970   H983    1.111   .     S
C970   N1001   1.448   .     S
C970   H848    1.111   1_655 S
C971   H987    1.111   .     S
C971   H988    1.111   .     S
C971   N1002   1.448   .     S
C971   H986    1.110   .     S
C972   H990    1.110   .     S
C972   H993    1.111   .     S
C972   N1003   1.446   .     S
C972   H991    1.111   .     S
C973   C974    1.407   .     A
C973   H385    1.078   1_556 S
C974   C975    1.420   .     A
C974   C364    1.423   1_556 S
C975   C979    1.411   .     A
C977   C978    1.391   .     A
C977   C364    1.422   1_556 S
C977   C355    1.398   1_556 S
C978   C979    1.384   .     A
C978   H995    1.083   .     S
C979   H999    1.081   .     S
H985   N1002   1.031   .     S
H989   N1003   1.031   .     S
H994   C1165   1.086   .     S
H1000  N1001   1.032   .     S
N1001  C823    1.432   1_655 S
O1004  Zn1018  1.942   .     S
O1004  Zn1019  1.943   .     S
O1004  Zn1017  1.966   .     S
O1004  Zn1020  1.936   .     S
O1005  Zn1018  1.939   .     S
O1006  Zn1020  1.947   .     S
O1007  Zn1019  1.939   .     S
O1008  Zn1017  1.932   .     S
O1009  Zn1017  1.924   .     S
O1010  Zn1020  1.930   .     S
O1011  Zn1018  1.937   .     S
O1012  Zn1019  1.946   .     S
O1013  Zn1020  1.941   .     S
O1014  Zn1017  1.935   .     S
O1015  Zn1018  1.936   .     S
O1016  Zn1019  1.927   .     S
C1021  O1079   1.264   .     A
C1021  O1081   1.268   .     A
C1021  C1027   1.438   .     S
C1022  C1044   1.419   .     A
C1022  C1036   1.404   .     A
C1022  Cl1048  1.780   .     S
C1023  H1049   1.084   .     S
C1023  C1035   1.386   .     A
C1023  C1036   1.396   .     A
C1024  O1082   1.277   .     A
C1024  O1080   1.289   .     A
C1024  C1026   1.464   .     S
C1025  C1043   1.421   .     A
C1025  C1037   1.422   .     A
C1025  C1034   1.481   .     S
C1026  C1095   1.361   .     S
C1026  N1139   1.431   .     S
C1027  C1162   1.361   1_455 S
C1027  N1205   1.432   1_455 S
C1028  C1031   1.450   .     S
C1028  C621    1.331   1_565 S
C1028  H652    1.088   1_565 S
C1029  C1030   1.435   .     S
C1030  O1083   1.279   .     A
C1030  O1077   1.279   .     A
C1031  O1078   1.275   .     A
C1031  O1084   1.274   .     A
C1032  C1037   1.401   .     A
C1032  C1041   1.385   .     A
C1032  H1066   1.081   .     S
C1033  O1073   1.270   .     A
C1033  C1036   1.448   .     S
C1033  O1075   1.277   .     A
C1034  O1076   1.289   .     A
C1034  O1074   1.282   .     A
C1035  H1064   1.084   .     S
C1037  N1070   1.431   .     S
C1038  H1050   1.110   .     S
C1038  H1051   1.111   .     S
C1038  N1069   1.448   .     S
C1038  H1120   1.111   .     S
C1039  H1055   1.111   .     S
C1039  H1056   1.111   .     S
C1039  N1070   1.448   .     S
C1039  H1054   1.110   .     S
C1040  H1058   1.110   .     S
C1040  H1061   1.111   .     S
C1040  N1071   1.446   .     S
C1040  H1059   1.111   .     S
C1041  C1042   1.407   .     A
C1041  H453    1.078   1_556 S
C1042  C1043   1.420   .     A
C1042  C432    1.423   1_556 S
C1043  C1047   1.411   .     A
C1045  C1046   1.391   .     A
C1045  C432    1.422   1_556 S
C1045  C423    1.398   1_556 S
C1046  C1047   1.384   .     A
C1046  H1063   1.083   .     S
C1047  H1067   1.081   .     S
H1052  C1174   1.111   1_455 S
H1053  N1070   1.031   .     S
H1057  N1071   1.031   .     S
H1062  C621    1.086   1_565 S
H1068  N1069   1.032   .     S
N1069  C1095   1.432   .     S
N1071  C1162   1.431   1_455 S
O1072  Zn1086  1.942   .     S
O1072  Zn1087  1.943   .     S
O1072  Zn1085  1.966   .     S
O1072  Zn1088  1.936   .     S
O1073  Zn1086  1.939   .     S
O1074  Zn1088  1.947   .     S
O1075  Zn1087  1.939   .     S
O1076  Zn1085  1.932   .     S
O1077  Zn1085  1.924   .     S
O1078  Zn1088  1.930   .     S
O1079  Zn1086  1.937   .     S
O1080  Zn1087  1.946   .     S
O1081  Zn1088  1.941   .     S
O1082  Zn1085  1.935   .     S
O1083  Zn1086  1.936   .     S
O1084  Zn1087  1.927   .     S
C1089  O1147   1.264   .     A
C1089  O1149   1.268   .     A
C1089  C1095   1.438   .     S
C1090  C1112   1.419   .     A
C1090  C1104   1.404   .     A
C1090  Cl1116  1.780   .     S
C1091  H1117   1.084   .     S
C1091  C1103   1.386   .     A
C1091  C1104   1.396   .     A
C1092  O1150   1.277   .     A
C1092  O1148   1.289   .     A
C1092  C1094   1.464   .     S
C1093  C1111   1.421   .     A
C1093  C1105   1.422   .     A
C1093  C1102   1.481   .     S
C1094  C1163   1.361   .     S
C1094  N1207   1.431   .     S
C1096  C1099   1.450   .     S
C1096  C689    1.331   1_565 S
C1096  H720    1.088   1_565 S
C1097  C1098   1.435   .     S
C1098  O1151   1.279   .     A
C1098  O1145   1.279   .     A
C1099  O1146   1.275   .     A
C1099  O1152   1.274   .     A
C1100  C1105   1.401   .     A
C1100  C1109   1.385   .     A
C1100  H1134   1.081   .     S
C1101  O1141   1.270   .     A
C1101  C1104   1.448   .     S
C1101  O1143   1.277   .     A
C1102  O1144   1.289   .     A
C1102  O1142   1.282   .     A
C1103  H1132   1.084   .     S
C1105  N1138   1.431   .     S
C1106  H1118   1.110   .     S
C1106  H1119   1.111   .     S
C1106  N1137   1.448   .     S
C1106  H1188   1.111   .     S
C1107  H1123   1.111   .     S
C1107  H1124   1.111   .     S
C1107  N1138   1.448   .     S
C1107  H1122   1.110   .     S
C1108  H1126   1.110   .     S
C1108  H1129   1.111   .     S
C1108  N1139   1.446   .     S
C1108  H1127   1.111   .     S
C1109  C1110   1.407   .     A
C1109  H521    1.078   1_556 S
C1110  C1111   1.420   .     A
C1110  C500    1.423   1_556 S
C1111  C1115   1.411   .     A
C1113  C1114   1.391   .     A
C1113  C500    1.422   1_556 S
C1113  C491    1.398   1_556 S
C1114  C1115   1.384   .     A
C1114  H1131   1.083   .     S
C1115  H1135   1.081   .     S
H1121  N1138   1.031   .     S
H1125  N1139   1.031   .     S
H1130  C689    1.086   1_565 S
H1136  N1137   1.032   .     S
N1137  C1163   1.432   .     S
O1140  Zn1154  1.942   .     S
O1140  Zn1155  1.943   .     S
O1140  Zn1153  1.966   .     S
O1140  Zn1156  1.936   .     S
O1141  Zn1154  1.939   .     S
O1142  Zn1156  1.947   .     S
O1143  Zn1155  1.939   .     S
O1144  Zn1153  1.932   .     S
O1145  Zn1153  1.924   .     S
O1146  Zn1156  1.930   .     S
O1147  Zn1154  1.937   .     S
O1148  Zn1155  1.946   .     S
O1149  Zn1156  1.941   .     S
O1150  Zn1153  1.935   .     S
O1151  Zn1154  1.936   .     S
O1152  Zn1155  1.927   .     S
C1157  O1215   1.264   .     A
C1157  O1217   1.268   .     A
C1157  C1163   1.438   .     S
C1158  C1180   1.419   .     A
C1158  C1172   1.404   .     A
C1158  Cl1184  1.780   .     S
C1159  H1185   1.084   .     S
C1159  C1171   1.386   .     A
C1159  C1172   1.396   .     A
C1160  O1218   1.277   .     A
C1160  O1216   1.289   .     A
C1160  C1162   1.464   .     S
C1161  C1179   1.421   .     A
C1161  C1173   1.422   .     A
C1161  C1170   1.481   .     S
C1162  C1027   1.361   1_655 S
C1162  N1071   1.431   1_655 S
C1164  C1167   1.450   .     S
C1164  C757    1.331   1_565 S
C1164  H788    1.088   1_565 S
C1165  C1166   1.435   .     S
C1166  O1219   1.279   .     A
C1166  O1213   1.279   .     A
C1167  O1214   1.275   .     A
C1167  O1220   1.274   .     A
C1168  C1173   1.401   .     A
C1168  C1177   1.385   .     A
C1168  H1202   1.081   .     S
C1169  O1209   1.270   .     A
C1169  C1172   1.448   .     S
C1169  O1211   1.277   .     A
C1170  O1212   1.289   .     A
C1170  O1210   1.282   .     A
C1171  H1200   1.084   .     S
C1173  N1206   1.431   .     S
C1174  H1186   1.110   .     S
C1174  H1187   1.111   .     S
C1174  N1205   1.448   .     S
C1174  H1052   1.111   1_655 S
C1175  H1191   1.111   .     S
C1175  H1192   1.111   .     S
C1175  N1206   1.448   .     S
C1175  H1190   1.110   .     S
C1176  H1194   1.110   .     S
C1176  H1197   1.111   .     S
C1176  N1207   1.446   .     S
C1176  H1195   1.111   .     S
C1177  C1178   1.407   .     A
C1177  H589    1.078   1_556 S
C1178  C1179   1.420   .     A
C1178  C568    1.423   1_556 S
C1179  C1183   1.411   .     A
C1181  C1182   1.391   .     A
C1181  C568    1.422   1_556 S
C1181  C559    1.398   1_556 S
C1182  C1183   1.384   .     A
C1182  H1199   1.083   .     S
C1183  H1203   1.081   .     S
H1189  N1206   1.031   .     S
H1193  N1207   1.031   .     S
H1198  C757    1.086   1_565 S
H1204  N1205   1.032   .     S
N1205  C1027   1.432   1_655 S
O1208  Zn1222  1.942   .     S
O1208  Zn1223  1.943   .     S
O1208  Zn1221  1.966   .     S
O1208  Zn1224  1.936   .     S
O1209  Zn1222  1.939   .     S
O1210  Zn1224  1.947   .     S
O1211  Zn1223  1.939   .     S
O1212  Zn1221  1.932   .     S
O1213  Zn1221  1.924   .     S
O1214  Zn1224  1.930   .     S
O1215  Zn1222  1.937   .     S
O1216  Zn1223  1.946   .     S
O1217  Zn1224  1.941   .     S
O1218  Zn1221  1.935   .     S
O1219  Zn1222  1.936   .     S
O1220  Zn1223  1.927   .     S
