data_str_m1_o1_o2_pcu_sym.108
_audit_creation_date              2020-01-03
_audit_creation_method            'Materials Studio'
_symmetry_space_group_name_H-M    'P1'
_symmetry_Int_Tables_number       1
_symmetry_cell_setting            triclinic
loop_
_symmetry_equiv_pos_as_xyz
  x,y,z
_cell_length_a                    36.6757
_cell_length_b                    36.6091
_cell_length_c                    34.4928
_cell_angle_alpha                 90.0401
_cell_angle_beta                  90.0314
_cell_angle_gamma                 89.8109
loop_
_atom_site_label
_atom_site_type_symbol
_atom_site_fract_x
_atom_site_fract_y
_atom_site_fract_z
_atom_site_U_iso_or_equiv
_atom_site_adp_type
_atom_site_occupancy
C1     C     0.22075   0.01477   0.04160   0.00000  Uiso   1.00
C2     C     0.02871   0.26442   0.45859   0.00000  Uiso   1.00
C3     C     0.34797   0.40196   0.74999   0.00000  Uiso   1.00
C4     C     0.40210   0.15177   0.24941   0.00000  Uiso   1.00
C5     C     0.09837   0.34782   0.75082   0.00000  Uiso   1.00
C6     C     0.34839   0.40221   0.24990   0.00000  Uiso   1.00
C7     C     0.15199   0.09802   0.74995   0.00000  Uiso   1.00
C8     C     0.09807   0.15188   0.75005   0.00000  Uiso   1.00
C9     C     0.40224   0.34831   0.25016   0.00000  Uiso   1.00
C10    C     0.15200   0.40178   0.75077   0.00000  Uiso   1.00
C11    C     0.34811   0.09823   0.24962   0.00000  Uiso   1.00
C12    C     0.40186   0.34821   0.75000   0.00000  Uiso   1.00
C13    C     0.23538   0.47085   0.54147   0.00000  Uiso   1.00
C14    C     0.09799   0.15198   0.25001   0.00000  Uiso   1.00
C15    C     0.34824   0.09798   0.74910   0.00000  Uiso   1.00
C16    C     0.15206   0.40171   0.24956   0.00000  Uiso   1.00
C17    C     0.24995   0.49939   0.10249   0.00000  Uiso   1.00
C18    C     0.25003   0.49949   0.89752   0.00000  Uiso   1.00
C19    C     0.49978   0.24993   0.10243   0.00000  Uiso   1.00
C20    C     0.00016   0.25001   0.89755   0.00000  Uiso   1.00
C21    C     0.49990   0.24913   0.60246   0.00000  Uiso   1.00
C22    C     0.00003   0.24893   0.39750   0.00000  Uiso   1.00
C23    C     0.25061   0.49999   0.60247   0.00000  Uiso   1.00
C24    C     0.23555   0.02945   0.45841   0.00000  Uiso   1.00
C25    C     0.25074   0.00011   0.39752   0.00000  Uiso   1.00
C26    C     0.19688   0.06697   0.01659   0.00000  Uiso   1.00
C27    C     0.30219   0.06655   0.98520   0.00000  Uiso   1.00
C28    C     0.42995   0.18761   0.03310   0.00000  Uiso   1.00
C29    C     0.42706   0.29800   0.97934   0.00000  Uiso   1.00
C30    C     0.30939   0.42755   0.03194   0.00000  Uiso   1.00
C31    C     0.19914   0.42724   0.97749   0.00000  Uiso   1.00
C32    C     0.07100   0.30024   0.02090   0.00000  Uiso   1.00
C33    C     0.07204   0.19030   0.96760   0.00000  Uiso   1.00
C34    C     0.44505   0.31481   0.51606   0.00000  Uiso   1.00
C35    C     0.02873   0.23132   0.54207   0.00000  Uiso   1.00
C36    C     0.05076   0.31673   0.48493   0.00000  Uiso   1.00
C37    C     0.18370   0.44782   0.51486   0.00000  Uiso   1.00
C38    C     0.18347   0.05354   0.48334   0.00000  Uiso   1.00
C39    C     0.05139   0.17697   0.52182   0.00000  Uiso   1.00
C40    C     0.44170   0.17547   0.46640   0.00000  Uiso   1.00
C41    C     0.32288   0.05122   0.52289   0.00000  Uiso   1.00
C42    C     0.32262   0.44085   0.46824   0.00000  Uiso   1.00
C43    C     0.09662   0.46228   0.27628   0.00000  Uiso   1.00
C44    C     0.39780   0.03256   0.72616   0.00000  Uiso   1.00
C45    C     0.11707   0.17662   0.16550   0.00000  Uiso   1.00
C46    C     0.47181   0.22976   0.45787   0.00000  Uiso   1.00
C47    C     0.43178   0.38059   0.83288   0.00000  Uiso   1.00
C48    C     0.36516   0.07106   0.16255   0.00000  Uiso   1.00
C49    C     0.09670   0.45535   0.79973   0.00000  Uiso   1.00
C50    C     0.36199   0.29250   0.19746   0.00000  Uiso   1.00
C51    C     0.12597   0.19783   0.81683   0.00000  Uiso   1.00
C52    C     0.20197   0.13362   0.81254   0.00000  Uiso   1.00
C53    C     0.30040   0.36855   0.18862   0.00000  Uiso   1.00
C54    C     0.03874   0.40277   0.72068   0.00000  Uiso   1.00
C55    C     0.42669   0.13594   0.16070   0.00000  Uiso   1.00
C56    C     0.32271   0.38212   0.83408   0.00000  Uiso   1.00
C57    C     0.26832   0.02875   0.54208   0.00000  Uiso   1.00
C58    C     0.11886   0.06741   0.16775   0.00000  Uiso   1.00
C59    C     0.46566   0.10461   0.72124   0.00000  Uiso   1.00
C60    C     0.04606   0.40226   0.19729   0.00000  Uiso   1.00
C61    C     0.34740   0.21147   0.77917   0.00000  Uiso   1.00
C62    C     0.14808   0.28191   0.23002   0.00000  Uiso   1.00
C63    C     0.36772   0.42731   0.66588   0.00000  Uiso   1.00
C64    C     0.18247   0.13119   0.33236   0.00000  Uiso   1.00
C65    C     0.14512   0.28428   0.77910   0.00000  Uiso   1.00
C66    C     0.43225   0.12770   0.33076   0.00000  Uiso   1.00
C67    C     0.11653   0.04784   0.68745   0.00000  Uiso   1.00
C68    C     0.26886   0.47147   0.45810   0.00000  Uiso   1.00
C69    C     0.38361   0.45891   0.30214   0.00000  Uiso   1.00
C70    C     0.45829   0.39062   0.30091   0.00000  Uiso   1.00
C71    C     0.05205   0.12375   0.68342   0.00000  Uiso   1.00
C72    C     0.32401   0.12458   0.33660   0.00000  Uiso   1.00
C73    C     0.21718   0.35201   0.77391   0.00000  Uiso   1.00
C74    C     0.07367   0.13295   0.33476   0.00000  Uiso   1.00
C75    C     0.36960   0.31812   0.66709   0.00000  Uiso   1.00
C76    C     0.21566   0.35278   0.22498   0.00000  Uiso   1.00
C77    C     0.29503   0.15337   0.69990   0.00000  Uiso   1.00
C78    C     0.22053   0.01426   0.08202   0.00000  Uiso   1.00
C79    C     0.27937   0.01438   0.91803   0.00000  Uiso   1.00
C80    C     0.48386   0.22088   0.08222   0.00000  Uiso   1.00
C81    C     0.27919   0.01483   0.95847   0.00000  Uiso   1.00
C82    C     0.48338   0.27852   0.91789   0.00000  Uiso   1.00
C83    C     0.27914   0.48351   0.08246   0.00000  Uiso   1.00
C84    C     0.22092   0.48371   0.91756   0.00000  Uiso   1.00
C85    C     0.01555   0.27888   0.08208   0.00000  Uiso   1.00
C86    C     0.01696   0.22138   0.91775   0.00000  Uiso   1.00
C87    C     0.47017   0.26335   0.58190   0.00000  Uiso   1.00
C88    C     0.02902   0.26421   0.41817   0.00000  Uiso   1.00
C89    C     0.23577   0.47063   0.58191   0.00000  Uiso   1.00
C90    C     0.23599   0.02964   0.41799   0.00000  Uiso   1.00
C91    C     0.02926   0.23352   0.58246   0.00000  Uiso   1.00
C92    C     0.48236   0.22121   0.04155   0.00000  Uiso   1.00
C93    C     0.47130   0.23222   0.41731   0.00000  Uiso   1.00
C94    C     0.26641   0.02917   0.58250   0.00000  Uiso   1.00
C95    C     0.26664   0.47090   0.41755   0.00000  Uiso   1.00
C96    C     0.24984   0.49812   0.02136   0.00000  Uiso   1.00
C97    C     0.25016   0.49824   0.97869   0.00000  Uiso   1.00
C98    C     0.49973   0.24967   0.02131   0.00000  Uiso   1.00
C99    C     0.49990   0.24967   0.97866   0.00000  Uiso   1.00
C100   C     0.49956   0.24709   0.52130   0.00000  Uiso   1.00
C101   C     0.00002   0.24708   0.47862   0.00000  Uiso   1.00
C102   C     0.25198   0.49994   0.52131   0.00000  Uiso   1.00
C103   C     0.48204   0.27788   0.95832   0.00000  Uiso   1.00
C104   C     0.25215   0.00030   0.47865   0.00000  Uiso   1.00
C105   C     0.25006   0.00002   0.35521   0.00000  Uiso   1.00
C106   C     0.25005   0.49999   0.64479   0.00000  Uiso   1.00
C107   C     0.00001   0.24989   0.35518   0.00000  Uiso   1.00
C108   C     0.49998   0.24992   0.64480   0.00000  Uiso   1.00
C109   C     0.00003   0.25001   0.85521   0.00000  Uiso   1.00
C110   C     0.49998   0.24998   0.14478   0.00000  Uiso   1.00
C111   C     0.25001   0.49997   0.85519   0.00000  Uiso   1.00
C112   C     0.24999   0.49997   0.14482   0.00000  Uiso   1.00
C113   C     0.17994   0.07006   0.25002   0.00000  Uiso   1.00
C114   C     0.27860   0.48134   0.04190   0.00000  Uiso   1.00
C115   C     0.31998   0.42999   0.75000   0.00000  Uiso   1.00
C116   C     0.42981   0.18013   0.24961   0.00000  Uiso   1.00
C117   C     0.07008   0.32000   0.75012   0.00000  Uiso   1.00
C118   C     0.32006   0.43003   0.24998   0.00000  Uiso   1.00
C119   C     0.18002   0.06999   0.74998   0.00000  Uiso   1.00
C120   C     0.06985   0.32023   0.25017   0.00000  Uiso   1.00
C121   C     0.43001   0.17991   0.74992   0.00000  Uiso   1.00
C122   C     0.17980   0.43010   0.74983   0.00000  Uiso   1.00
C123   C     0.31996   0.07017   0.24983   0.00000  Uiso   1.00
C124   C     0.42995   0.32007   0.75001   0.00000  Uiso   1.00
C125   C     0.22138   0.48186   0.95797   0.00000  Uiso   1.00
C126   C     0.06999   0.17999   0.25000   0.00000  Uiso   1.00
C127   C     0.31990   0.07020   0.75011   0.00000  Uiso   1.00
C128   C     0.17997   0.42993   0.24999   0.00000  Uiso   1.00
C129   C     0.07001   0.17997   0.75002   0.00000  Uiso   1.00
C130   C     0.43017   0.32015   0.25018   0.00000  Uiso   1.00
C131   C     0.11538   0.41172   0.24378   0.00000  Uiso   1.00
C132   C     0.38506   0.08777   0.75385   0.00000  Uiso   1.00
C133   C     0.10927   0.13643   0.21473   0.00000  Uiso   1.00
C134   C     0.39185   0.36511   0.78514   0.00000  Uiso   1.00
C135   C     0.36205   0.11094   0.21399   0.00000  Uiso   1.00
C136   C     0.01674   0.27832   0.04165   0.00000  Uiso   1.00
C137   C     0.11531   0.41157   0.75718   0.00000  Uiso   1.00
C138   C     0.36602   0.33875   0.24169   0.00000  Uiso   1.00
C139   C     0.13303   0.15995   0.76465   0.00000  Uiso   1.00
C140   C     0.16039   0.13326   0.76340   0.00000  Uiso   1.00
C141   C     0.33933   0.36601   0.24009   0.00000  Uiso   1.00
C142   C     0.08831   0.38471   0.75515   0.00000  Uiso   1.00
C143   C     0.38882   0.13820   0.21389   0.00000  Uiso   1.00
C144   C     0.36323   0.39043   0.78532   0.00000  Uiso   1.00
C145   C     0.13464   0.10785   0.21495   0.00000  Uiso   1.00
C146   C     0.41209   0.11453   0.75324   0.00000  Uiso   1.00
C147   C     0.01828   0.22171   0.95842   0.00000  Uiso   1.00
C148   C     0.08859   0.38468   0.24164   0.00000  Uiso   1.00
C149   C     0.36540   0.16175   0.74478   0.00000  Uiso   1.00
C150   C     0.13477   0.33801   0.25555   0.00000  Uiso   1.00
C151   C     0.35954   0.38672   0.71467   0.00000  Uiso   1.00
C152   C     0.14215   0.11540   0.28510   0.00000  Uiso   1.00
C153   C     0.13537   0.33784   0.74686   0.00000  Uiso   1.00
C154   C     0.38916   0.13805   0.28486   0.00000  Uiso   1.00
C155   C     0.11681   0.08951   0.73658   0.00000  Uiso   1.00
C156   C     0.38477   0.41183   0.25826   0.00000  Uiso   1.00
C157   C     0.41189   0.38486   0.25751   0.00000  Uiso   1.00
C158   C     0.47021   0.26337   0.54144   0.00000  Uiso   1.00
C159   C     0.09008   0.11684   0.73544   0.00000  Uiso   1.00
C160   C     0.36082   0.11251   0.28501   0.00000  Uiso   1.00
C161   C     0.16213   0.36486   0.74615   0.00000  Uiso   1.00
C162   C     0.11357   0.14076   0.28531   0.00000  Uiso   1.00
C163   C     0.38494   0.35815   0.71486   0.00000  Uiso   1.00
C164   C     0.16174   0.36476   0.25514   0.00000  Uiso   1.00
C165   C     0.33855   0.13475   0.74265   0.00000  Uiso   1.00
C166   C     0.09811   0.34806   0.24931   0.00000  Uiso   1.00
C167   C     0.40220   0.15161   0.74925   0.00000  Uiso   1.00
C168   C     0.15184   0.09819   0.25002   0.00000  Uiso   1.00
H169   H     0.19768   0.02634   0.09734   0.00000  Uiso   1.00
H170   H     0.05156   0.27686   0.40302   0.00000  Uiso   1.00
H171   H     0.41807   0.12926   0.13071   0.00000  Uiso   1.00
H172   H     0.29926   0.38139   0.81360   0.00000  Uiso   1.00
H173   H     0.33274   0.35393   0.83996   0.00000  Uiso   1.00
H174   H     0.31264   0.39360   0.86187   0.00000  Uiso   1.00
H175   H     0.12981   0.05184   0.14270   0.00000  Uiso   1.00
H176   H     0.11176   0.04726   0.19071   0.00000  Uiso   1.00
H177   H     0.09391   0.08191   0.15776   0.00000  Uiso   1.00
H178   H     0.48719   0.08329   0.72111   0.00000  Uiso   1.00
H179   H     0.47894   0.13145   0.71682   0.00000  Uiso   1.00
H180   H     0.44730   0.09887   0.69618   0.00000  Uiso   1.00
H181   H     0.22372   0.44779   0.59716   0.00000  Uiso   1.00
H182   H     0.05953   0.42807   0.18842   0.00000  Uiso   1.00
H183   H     0.05509   0.37942   0.17818   0.00000  Uiso   1.00
H184   H     0.01630   0.40589   0.19290   0.00000  Uiso   1.00
H185   H     0.34005   0.24080   0.77682   0.00000  Uiso   1.00
H186   H     0.32365   0.19698   0.79197   0.00000  Uiso   1.00
H187   H     0.37143   0.20939   0.79880   0.00000  Uiso   1.00
H188   H     0.12522   0.28633   0.20927   0.00000  Uiso   1.00
H189   H     0.14824   0.25247   0.23760   0.00000  Uiso   1.00
H190   H     0.17445   0.28797   0.21574   0.00000  Uiso   1.00
H191   H     0.36840   0.45082   0.68636   0.00000  Uiso   1.00
H192   H     0.22395   0.05254   0.40268   0.00000  Uiso   1.00
H193   H     0.39588   0.41733   0.65999   0.00000  Uiso   1.00
H194   H     0.35622   0.43736   0.63811   0.00000  Uiso   1.00
H195   H     0.19800   0.12020   0.35741   0.00000  Uiso   1.00
H196   H     0.20260   0.13834   0.30943   0.00000  Uiso   1.00
H197   H     0.16797   0.15616   0.34237   0.00000  Uiso   1.00
H198   H     0.16642   0.26274   0.77940   0.00000  Uiso   1.00
H199   H     0.11832   0.27098   0.78349   0.00000  Uiso   1.00
H200   H     0.15077   0.30278   0.80410   0.00000  Uiso   1.00
H201   H     0.42274   0.09926   0.33585   0.00000  Uiso   1.00
H202   H     0.45458   0.12792   0.30891   0.00000  Uiso   1.00
H203   H     0.05221   0.22207   0.59815   0.00000  Uiso   1.00
H204   H     0.44370   0.13803   0.35844   0.00000  Uiso   1.00
H205   H     0.11328   0.01830   0.68121   0.00000  Uiso   1.00
H206   H     0.09755   0.06290   0.66812   0.00000  Uiso   1.00
H207   H     0.14523   0.05513   0.68052   0.00000  Uiso   1.00
H208   H     0.40310   0.47968   0.31294   0.00000  Uiso   1.00
H209   H     0.35639   0.47215   0.30071   0.00000  Uiso   1.00
H210   H     0.38310   0.43631   0.32382   0.00000  Uiso   1.00
H211   H     0.48779   0.39671   0.30358   0.00000  Uiso   1.00
H212   H     0.44338   0.41022   0.31974   0.00000  Uiso   1.00
H213   H     0.45412   0.36221   0.31142   0.00000  Uiso   1.00
H214   H     0.44882   0.22055   0.40121   0.00000  Uiso   1.00
H215   H     0.03325   0.10629   0.66640   0.00000  Uiso   1.00
H216   H     0.03947   0.15130   0.68533   0.00000  Uiso   1.00
H217   H     0.07809   0.12543   0.66680   0.00000  Uiso   1.00
H218   H     0.31013   0.11157   0.36157   0.00000  Uiso   1.00
H219   H     0.33913   0.14860   0.34785   0.00000  Uiso   1.00
H220   H     0.30244   0.13364   0.31594   0.00000  Uiso   1.00
H221   H     0.21416   0.37669   0.79251   0.00000  Uiso   1.00
H222   H     0.24663   0.34892   0.76729   0.00000  Uiso   1.00
H223   H     0.20864   0.32734   0.79013   0.00000  Uiso   1.00
H224   H     0.05000   0.13182   0.31458   0.00000  Uiso   1.00
H225   H     0.27821   0.05189   0.59822   0.00000  Uiso   1.00
H226   H     0.08388   0.10489   0.34099   0.00000  Uiso   1.00
H227   H     0.06385   0.14481   0.36247   0.00000  Uiso   1.00
H228   H     0.38080   0.30275   0.64203   0.00000  Uiso   1.00
H229   H     0.36226   0.29779   0.68979   0.00000  Uiso   1.00
H230   H     0.34477   0.33272   0.65695   0.00000  Uiso   1.00
H231   H     0.23706   0.33141   0.22668   0.00000  Uiso   1.00
H232   H     0.22896   0.37935   0.21906   0.00000  Uiso   1.00
H233   H     0.19772   0.34563   0.19999   0.00000  Uiso   1.00
H234   H     0.30826   0.17942   0.69141   0.00000  Uiso   1.00
H235   H     0.30365   0.13102   0.67993   0.00000  Uiso   1.00
H236   H     0.27789   0.44798   0.40166   0.00000  Uiso   1.00
H237   H     0.26518   0.15706   0.69636   0.00000  Uiso   1.00
H238   H     0.21845   0.07162   0.99457   0.00000  Uiso   1.00
H239   H     0.20363   0.08128   0.04419   0.00000  Uiso   1.00
H240   H     0.17135   0.07928   0.00525   0.00000  Uiso   1.00
H241   H     0.30215   0.02642   0.90273   0.00000  Uiso   1.00
H242   H     0.28145   0.06990   0.00839   0.00000  Uiso   1.00
H243   H     0.29386   0.08163   0.95856   0.00000  Uiso   1.00
H244   H     0.32779   0.07911   0.99585   0.00000  Uiso   1.00
H245   H     0.41505   0.21384   0.03771   0.00000  Uiso   1.00
H246   H     0.42918   0.17060   0.05973   0.00000  Uiso   1.00
H247   H     0.41523   0.17242   0.01011   0.00000  Uiso   1.00
H248   H     0.42176   0.27151   0.99410   0.00000  Uiso   1.00
H249   H     0.41489   0.29799   0.94978   0.00000  Uiso   1.00
H250   H     0.41320   0.31969   0.99636   0.00000  Uiso   1.00
H251   H     0.28226   0.41395   0.03214   0.00000  Uiso   1.00
H252   H     0.47220   0.19829   0.09814   0.00000  Uiso   1.00
H253   H     0.32313   0.42417   0.06042   0.00000  Uiso   1.00
H254   H     0.32639   0.41337   0.00997   0.00000  Uiso   1.00
H255   H     0.22546   0.42033   0.99185   0.00000  Uiso   1.00
H256   H     0.19841   0.41578   0.94761   0.00000  Uiso   1.00
H257   H     0.17708   0.41399   0.99433   0.00000  Uiso   1.00
H258   H     0.07749   0.27380   0.00647   0.00000  Uiso   1.00
H259   H     0.08300   0.30098   0.05053   0.00000  Uiso   1.00
H260   H     0.08403   0.32222   0.00373   0.00000  Uiso   1.00
H261   H     0.08575   0.21721   0.96403   0.00000  Uiso   1.00
H262   H     0.07420   0.17396   0.94056   0.00000  Uiso   1.00
H263   H     0.47031   0.30077   0.90244   0.00000  Uiso   1.00
H264   H     0.08697   0.17522   0.99057   0.00000  Uiso   1.00
H265   H     0.46651   0.31983   0.49400   0.00000  Uiso   1.00
H266   H     0.45143   0.32947   0.54354   0.00000  Uiso   1.00
H267   H     0.41923   0.32641   0.50461   0.00000  Uiso   1.00
H268   H     0.02950   0.32012   0.50757   0.00000  Uiso   1.00
H269   H     0.04285   0.33143   0.45791   0.00000  Uiso   1.00
H270   H     0.07601   0.32966   0.49602   0.00000  Uiso   1.00
H271   H     0.18023   0.46874   0.49184   0.00000  Uiso   1.00
H272   H     0.16872   0.45597   0.54163   0.00000  Uiso   1.00
H273   H     0.17119   0.42221   0.50408   0.00000  Uiso   1.00
H274   H     0.30200   0.47222   0.09836   0.00000  Uiso   1.00
H275   H     0.17870   0.03188   0.50527   0.00000  Uiso   1.00
H276   H     0.16922   0.04691   0.45568   0.00000  Uiso   1.00
H277   H     0.17126   0.07913   0.49474   0.00000  Uiso   1.00
H278   H     0.02544   0.17038   0.50663   0.00000  Uiso   1.00
H279   H     0.05143   0.16509   0.55152   0.00000  Uiso   1.00
H280   H     0.07388   0.16387   0.50536   0.00000  Uiso   1.00
H281   H     0.46899   0.16210   0.46456   0.00000  Uiso   1.00
H282   H     0.42696   0.17290   0.43840   0.00000  Uiso   1.00
H283   H     0.42572   0.16044   0.48849   0.00000  Uiso   1.00
H284   H     0.32999   0.02481   0.50874   0.00000  Uiso   1.00
H285   H     0.19823   0.47186   0.90188   0.00000  Uiso   1.00
H286   H     0.33414   0.05217   0.55284   0.00000  Uiso   1.00
H287   H     0.33610   0.07329   0.50601   0.00000  Uiso   1.00
H288   H     0.33609   0.46808   0.46844   0.00000  Uiso   1.00
H289   H     0.32620   0.42739   0.43962   0.00000  Uiso   1.00
H290   H     0.33672   0.42365   0.49010   0.00000  Uiso   1.00
H291   H     0.08934   0.49154   0.27292   0.00000  Uiso   1.00
H292   H     0.07258   0.44812   0.28888   0.00000  Uiso   1.00
H293   H     0.12020   0.46071   0.29656   0.00000  Uiso   1.00
H294   H     0.37317   0.03558   0.70756   0.00000  Uiso   1.00
H295   H     0.40087   0.00307   0.73283   0.00000  Uiso   1.00
H296   H     0.02791   0.30146   0.09751   0.00000  Uiso   1.00
H297   H     0.42244   0.04108   0.70993   0.00000  Uiso   1.00
H298   H     0.11797   0.20028   0.18578   0.00000  Uiso   1.00
H299   H     0.14516   0.16657   0.15937   0.00000  Uiso   1.00
H300   H     0.10531   0.18650   0.13777   0.00000  Uiso   1.00
H301   H     0.44709   0.36945   0.85800   0.00000  Uiso   1.00
H302   H     0.45210   0.38790   0.81020   0.00000  Uiso   1.00
H303   H     0.41716   0.40548   0.84292   0.00000  Uiso   1.00
H304   H     0.34540   0.04945   0.15453   0.00000  Uiso   1.00
H305   H     0.38632   0.05833   0.18157   0.00000  Uiso   1.00
H306   H     0.37812   0.08023   0.13527   0.00000  Uiso   1.00
H307   H     0.02944   0.19912   0.90185   0.00000  Uiso   1.00
H308   H     0.07059   0.44226   0.80815   0.00000  Uiso   1.00
H309   H     0.11888   0.44664   0.81982   0.00000  Uiso   1.00
H310   H     0.09317   0.48528   0.80318   0.00000  Uiso   1.00
H311   H     0.36085   0.26227   0.19536   0.00000  Uiso   1.00
H312   H     0.33998   0.30360   0.17875   0.00000  Uiso   1.00
H313   H     0.38911   0.30109   0.18624   0.00000  Uiso   1.00
H314   H     0.14331   0.21668   0.83394   0.00000  Uiso   1.00
H315   H     0.09843   0.21032   0.81495   0.00000  Uiso   1.00
H316   H     0.12440   0.17169   0.83333   0.00000  Uiso   1.00
H317   H     0.23147   0.13681   0.81874   0.00000  Uiso   1.00
H318   H     0.44715   0.27515   0.59716   0.00000  Uiso   1.00
H319   H     0.18701   0.15269   0.83187   0.00000  Uiso   1.00
H320   H     0.19463   0.10490   0.81951   0.00000  Uiso   1.00
H321   H     0.28058   0.35029   0.17407   0.00000  Uiso   1.00
H322   H     0.28908   0.39669   0.18767   0.00000  Uiso   1.00
H323   H     0.32604   0.36741   0.17124   0.00000  Uiso   1.00
H324   H     0.00947   0.41016   0.72299   0.00000  Uiso   1.00
H325   H     0.05324   0.42653   0.70786   0.00000  Uiso   1.00
H326   H     0.04081   0.37866   0.70109   0.00000  Uiso   1.00
H327   H     0.43553   0.11021   0.17536   0.00000  Uiso   1.00
H328   H     0.45071   0.15408   0.15809   0.00000  Uiso   1.00
O329   O     0.25000   0.00000   0.25000   0.00000  Uiso   1.00
O330   O     0.25000   0.46964   0.66317   0.00000  Uiso   1.00
O331   O     0.30224   0.14469   0.73903   0.00000  Uiso   1.00
O332   O     0.46964   0.25000   0.33683   0.00000  Uiso   1.00
O333   O     0.03036   0.25000   0.66317   0.00000  Uiso   1.00
O334   O     0.00000   0.21964   0.83683   0.00000  Uiso   1.00
O335   O    -0.00000   0.28036   0.16317   0.00000  Uiso   1.00
O336   O     0.28036   0.00000   0.83683   0.00000  Uiso   1.00
O337   O     0.21964   0.00000   0.16317   0.00000  Uiso   1.00
O338   O    -0.00000   0.28036   0.83683   0.00000  Uiso   1.00
O339   O     0.00000   0.21964   0.16317   0.00000  Uiso   1.00
O340   O     0.21964   0.00000   0.83683   0.00000  Uiso   1.00
O341   O     0.25000   0.00000   0.75000   0.00000  Uiso   1.00
O342   O     0.28036   0.00000   0.16317   0.00000  Uiso   1.00
O343   O     0.20725   0.07307   0.27282   0.00000  Uiso   1.00
O344   O     0.29274   0.42693   0.72718   0.00000  Uiso   1.00
O345   O     0.42693   0.20726   0.27282   0.00000  Uiso   1.00
O346   O     0.07307   0.29275   0.72718   0.00000  Uiso   1.00
O347   O     0.29274   0.42693   0.27282   0.00000  Uiso   1.00
O348   O     0.20725   0.07307   0.72718   0.00000  Uiso   1.00
O349   O     0.07307   0.29275   0.27282   0.00000  Uiso   1.00
O350   O     0.42693   0.20726   0.72718   0.00000  Uiso   1.00
O351   O     0.20725   0.42693   0.72718   0.00000  Uiso   1.00
O352   O     0.00000   0.25000   0.25000   0.00000  Uiso   1.00
O353   O     0.29274   0.07307   0.27282   0.00000  Uiso   1.00
O354   O     0.42693   0.29275   0.72718   0.00000  Uiso   1.00
O355   O     0.07307   0.20726   0.27282   0.00000  Uiso   1.00
O356   O     0.29274   0.07307   0.72718   0.00000  Uiso   1.00
O357   O     0.20725   0.42693   0.27282   0.00000  Uiso   1.00
O358   O     0.07307   0.20726   0.72718   0.00000  Uiso   1.00
O359   O     0.42693   0.29275   0.27282   0.00000  Uiso   1.00
O360   O     0.45725   0.32307   0.77282   0.00000  Uiso   1.00
O361   O     0.04274   0.17693   0.22718   0.00000  Uiso   1.00
O362   O     0.17693   0.45726   0.77282   0.00000  Uiso   1.00
O363   O     0.00000   0.25000   0.75000   0.00000  Uiso   1.00
O364   O     0.32307   0.04275   0.22718   0.00000  Uiso   1.00
O365   O     0.04274   0.17693   0.77282   0.00000  Uiso   1.00
O366   O     0.45725   0.32307   0.22718   0.00000  Uiso   1.00
O367   O     0.32307   0.04275   0.77282   0.00000  Uiso   1.00
O368   O     0.17693   0.45726   0.22718   0.00000  Uiso   1.00
O369   O     0.45725   0.17693   0.22718   0.00000  Uiso   1.00
O370   O     0.04274   0.32307   0.77282   0.00000  Uiso   1.00
O371   O     0.17693   0.04275   0.22718   0.00000  Uiso   1.00
O372   O     0.32307   0.45726   0.77282   0.00000  Uiso   1.00
O373   O     0.04274   0.32307   0.22718   0.00000  Uiso   1.00
O374   O     0.25000   0.46964   0.33683   0.00000  Uiso   1.00
O375   O     0.45725   0.17693   0.77282   0.00000  Uiso   1.00
O376   O     0.32307   0.45726   0.22718   0.00000  Uiso   1.00
O377   O     0.17693   0.04275   0.77282   0.00000  Uiso   1.00
O378   O     0.19112   0.02931   0.02213   0.00000  Uiso   1.00
O379   O     0.30884   0.02926   0.97787   0.00000  Uiso   1.00
O380   O     0.46624   0.19302   0.02079   0.00000  Uiso   1.00
O381   O     0.46464   0.30580   0.97806   0.00000  Uiso   1.00
O382   O     0.30690   0.46480   0.02172   0.00000  Uiso   1.00
O383   O     0.19290   0.46525   0.97731   0.00000  Uiso   1.00
O384   O     0.03311   0.30670   0.02188   0.00000  Uiso   1.00
O385   O     0.25000   0.03036   0.66317   0.00000  Uiso   1.00
O386   O     0.03527   0.19394   0.97912   0.00000  Uiso   1.00
O387   O     0.44021   0.27705   0.52189   0.00000  Uiso   1.00
O388   O     0.05794   0.27943   0.47821   0.00000  Uiso   1.00
O389   O     0.22096   0.44119   0.52200   0.00000  Uiso   1.00
O390   O     0.22110   0.05918   0.47790   0.00000  Uiso   1.00
O391   O     0.05752   0.21494   0.52284   0.00000  Uiso   1.00
O392   O     0.44403   0.21240   0.47792   0.00000  Uiso   1.00
O393   O     0.28492   0.05730   0.52280   0.00000  Uiso   1.00
O394   O     0.28537   0.44312   0.47825   0.00000  Uiso   1.00
O395   O     0.10558   0.44804   0.23949   0.00000  Uiso   1.00
O396   O     0.03036   0.25000   0.33683   0.00000  Uiso   1.00
O397   O     0.39481   0.05188   0.76146   0.00000  Uiso   1.00
O398   O     0.09477   0.14843   0.17993   0.00000  Uiso   1.00
O399   O     0.40718   0.35368   0.81980   0.00000  Uiso   1.00
O400   O     0.34581   0.10058   0.17942   0.00000  Uiso   1.00
O401   O     0.10546   0.44798   0.76065   0.00000  Uiso   1.00
O402   O     0.35628   0.30254   0.23651   0.00000  Uiso   1.00
O403   O     0.14128   0.19411   0.77937   0.00000  Uiso   1.00
O404   O     0.19585   0.14233   0.77323   0.00000  Uiso   1.00
O405   O     0.30469   0.35698   0.22755   0.00000  Uiso   1.00
O406   O     0.05197   0.39465   0.75810   0.00000  Uiso   1.00
O407   O     0.46964   0.25000   0.66317   0.00000  Uiso   1.00
O408   O     0.39811   0.15515   0.17936   0.00000  Uiso   1.00
O409   O     0.35092   0.40464   0.82014   0.00000  Uiso   1.00
O410   O     0.14577   0.09223   0.18032   0.00000  Uiso   1.00
O411   O     0.44807   0.10383   0.75768   0.00000  Uiso   1.00
O412   O     0.05237   0.39455   0.23682   0.00000  Uiso   1.00
O413   O     0.35553   0.19816   0.74178   0.00000  Uiso   1.00
O414   O     0.14434   0.30235   0.26454   0.00000  Uiso   1.00
O415   O     0.34532   0.39900   0.67986   0.00000  Uiso   1.00
O416   O     0.15772   0.10423   0.31973   0.00000  Uiso   1.00
O417   O     0.14600   0.30176   0.74259   0.00000  Uiso   1.00
O418   O     0.25000   0.03036   0.33683   0.00000  Uiso   1.00
O419   O     0.40319   0.15071   0.31959   0.00000  Uiso   1.00
O420   O     0.10783   0.05397   0.72676   0.00000  Uiso   1.00
O421   O     0.39486   0.44778   0.26473   0.00000  Uiso   1.00
O422   O     0.44809   0.39472   0.26172   0.00000  Uiso   1.00
O423   O     0.05595   0.10847   0.72087   0.00000  Uiso   1.00
O424   O     0.34791   0.09876   0.31977   0.00000  Uiso   1.00
O425   O     0.19794   0.35502   0.73859   0.00000  Uiso   1.00
O426   O     0.10164   0.15537   0.32009   0.00000  Uiso   1.00
O427   O     0.39640   0.34282   0.68020   0.00000  Uiso   1.00
O428   O     0.19752   0.35418   0.26106   0.00000  Uiso   1.00
Zn429  Zn    0.20660   0.00000   0.21760   0.00000  Uiso   1.00
Zn430  Zn    0.04340   0.25000   0.28240   0.00000  Uiso   1.00
Zn431  Zn    0.25000   0.45660   0.71760   0.00000  Uiso   1.00
Zn432  Zn    0.25000   0.04340   0.28240   0.00000  Uiso   1.00
Zn433  Zn    0.04340   0.25000   0.71760   0.00000  Uiso   1.00
Zn434  Zn    0.45660   0.25000   0.28240   0.00000  Uiso   1.00
Zn435  Zn    0.25000   0.04340   0.71760   0.00000  Uiso   1.00
Zn436  Zn    0.25000   0.45660   0.28240   0.00000  Uiso   1.00
Zn437  Zn    0.29340   0.00000   0.78240   0.00000  Uiso   1.00
Zn438  Zn   -0.00000   0.20660   0.21760   0.00000  Uiso   1.00
Zn439  Zn    0.00000   0.29340   0.78240   0.00000  Uiso   1.00
Zn440  Zn    0.29340   0.00000   0.21760   0.00000  Uiso   1.00
Zn441  Zn    0.20660   0.00000   0.78240   0.00000  Uiso   1.00
Zn442  Zn    0.00000   0.29340   0.21760   0.00000  Uiso   1.00
Zn443  Zn   -0.00000   0.20660   0.78240   0.00000  Uiso   1.00
Zn444  Zn    0.45660   0.25000   0.71760   0.00000  Uiso   1.00
C445   C     0.72075   0.01477   0.04160   0.00000  Uiso   1.00
C446   C     0.52871   0.26442   0.45859   0.00000  Uiso   1.00
C447   C     0.84797   0.40196   0.74999   0.00000  Uiso   1.00
C448   C     0.90210   0.15177   0.24941   0.00000  Uiso   1.00
C449   C     0.59837   0.34782   0.75082   0.00000  Uiso   1.00
C450   C     0.84839   0.40221   0.24990   0.00000  Uiso   1.00
C451   C     0.65199   0.09802   0.74995   0.00000  Uiso   1.00
C452   C     0.59807   0.15188   0.75005   0.00000  Uiso   1.00
C453   C     0.90224   0.34831   0.25016   0.00000  Uiso   1.00
C454   C     0.65200   0.40178   0.75077   0.00000  Uiso   1.00
C455   C     0.84811   0.09823   0.24962   0.00000  Uiso   1.00
C456   C     0.90186   0.34821   0.75000   0.00000  Uiso   1.00
C457   C     0.73538   0.47085   0.54147   0.00000  Uiso   1.00
C458   C     0.59799   0.15198   0.25001   0.00000  Uiso   1.00
C459   C     0.84824   0.09798   0.74910   0.00000  Uiso   1.00
C460   C     0.65206   0.40171   0.24956   0.00000  Uiso   1.00
C461   C     0.74995   0.49939   0.10249   0.00000  Uiso   1.00
C462   C     0.75003   0.49949   0.89752   0.00000  Uiso   1.00
C463   C     0.99978   0.24993   0.10243   0.00000  Uiso   1.00
C464   C     0.50016   0.25001   0.89755   0.00000  Uiso   1.00
C465   C     0.99990   0.24913   0.60246   0.00000  Uiso   1.00
C466   C     0.50003   0.24893   0.39750   0.00000  Uiso   1.00
C467   C     0.75061   0.49999   0.60247   0.00000  Uiso   1.00
C468   C     0.73555   0.02945   0.45841   0.00000  Uiso   1.00
C469   C     0.75074   0.00011   0.39752   0.00000  Uiso   1.00
C470   C     0.69688   0.06697   0.01659   0.00000  Uiso   1.00
C471   C     0.80219   0.06655   0.98520   0.00000  Uiso   1.00
C472   C     0.92995   0.18761   0.03310   0.00000  Uiso   1.00
C473   C     0.92706   0.29800   0.97934   0.00000  Uiso   1.00
C474   C     0.80939   0.42755   0.03194   0.00000  Uiso   1.00
C475   C     0.69914   0.42724   0.97749   0.00000  Uiso   1.00
C476   C     0.57100   0.30024   0.02090   0.00000  Uiso   1.00
C477   C     0.57204   0.19030   0.96760   0.00000  Uiso   1.00
C478   C     0.94505   0.31481   0.51606   0.00000  Uiso   1.00
C479   C     0.52873   0.23132   0.54207   0.00000  Uiso   1.00
C480   C     0.55076   0.31673   0.48493   0.00000  Uiso   1.00
C481   C     0.68370   0.44782   0.51486   0.00000  Uiso   1.00
C482   C     0.68347   0.05354   0.48334   0.00000  Uiso   1.00
C483   C     0.55139   0.17697   0.52182   0.00000  Uiso   1.00
C484   C     0.94170   0.17547   0.46640   0.00000  Uiso   1.00
C485   C     0.82288   0.05122   0.52289   0.00000  Uiso   1.00
C486   C     0.82262   0.44085   0.46824   0.00000  Uiso   1.00
C487   C     0.59662   0.46228   0.27628   0.00000  Uiso   1.00
C488   C     0.89780   0.03256   0.72616   0.00000  Uiso   1.00
C489   C     0.61707   0.17662   0.16550   0.00000  Uiso   1.00
C490   C     0.97181   0.22976   0.45787   0.00000  Uiso   1.00
C491   C     0.93178   0.38059   0.83288   0.00000  Uiso   1.00
C492   C     0.86516   0.07106   0.16255   0.00000  Uiso   1.00
C493   C     0.59670   0.45535   0.79973   0.00000  Uiso   1.00
C494   C     0.86199   0.29250   0.19746   0.00000  Uiso   1.00
C495   C     0.62597   0.19783   0.81683   0.00000  Uiso   1.00
C496   C     0.70197   0.13362   0.81254   0.00000  Uiso   1.00
C497   C     0.80040   0.36855   0.18862   0.00000  Uiso   1.00
C498   C     0.53874   0.40277   0.72068   0.00000  Uiso   1.00
C499   C     0.92669   0.13594   0.16070   0.00000  Uiso   1.00
C500   C     0.82271   0.38212   0.83408   0.00000  Uiso   1.00
C501   C     0.76832   0.02875   0.54208   0.00000  Uiso   1.00
C502   C     0.61886   0.06741   0.16775   0.00000  Uiso   1.00
C503   C     0.96566   0.10461   0.72124   0.00000  Uiso   1.00
C504   C     0.54606   0.40226   0.19729   0.00000  Uiso   1.00
C505   C     0.84740   0.21147   0.77917   0.00000  Uiso   1.00
C506   C     0.64808   0.28191   0.23002   0.00000  Uiso   1.00
C507   C     0.86772   0.42731   0.66588   0.00000  Uiso   1.00
C508   C     0.68247   0.13119   0.33236   0.00000  Uiso   1.00
C509   C     0.64512   0.28428   0.77910   0.00000  Uiso   1.00
C510   C     0.93225   0.12770   0.33076   0.00000  Uiso   1.00
C511   C     0.61653   0.04784   0.68745   0.00000  Uiso   1.00
C512   C     0.76886   0.47147   0.45810   0.00000  Uiso   1.00
C513   C     0.88361   0.45891   0.30214   0.00000  Uiso   1.00
C514   C     0.95829   0.39062   0.30091   0.00000  Uiso   1.00
C515   C     0.55205   0.12375   0.68342   0.00000  Uiso   1.00
C516   C     0.82401   0.12458   0.33660   0.00000  Uiso   1.00
C517   C     0.71718   0.35201   0.77391   0.00000  Uiso   1.00
C518   C     0.57367   0.13295   0.33476   0.00000  Uiso   1.00
C519   C     0.86960   0.31812   0.66709   0.00000  Uiso   1.00
C520   C     0.71566   0.35278   0.22498   0.00000  Uiso   1.00
C521   C     0.79503   0.15337   0.69990   0.00000  Uiso   1.00
C522   C     0.72053   0.01426   0.08202   0.00000  Uiso   1.00
C523   C     0.77937   0.01438   0.91803   0.00000  Uiso   1.00
C524   C     0.98386   0.22088   0.08222   0.00000  Uiso   1.00
C525   C     0.77919   0.01483   0.95847   0.00000  Uiso   1.00
C526   C     0.98338   0.27852   0.91789   0.00000  Uiso   1.00
C527   C     0.77914   0.48351   0.08246   0.00000  Uiso   1.00
C528   C     0.72092   0.48371   0.91756   0.00000  Uiso   1.00
C529   C     0.51555   0.27888   0.08208   0.00000  Uiso   1.00
C530   C     0.51696   0.22138   0.91775   0.00000  Uiso   1.00
C531   C     0.97017   0.26335   0.58190   0.00000  Uiso   1.00
C532   C     0.52902   0.26421   0.41817   0.00000  Uiso   1.00
C533   C     0.73577   0.47063   0.58191   0.00000  Uiso   1.00
C534   C     0.73599   0.02964   0.41799   0.00000  Uiso   1.00
C535   C     0.52926   0.23352   0.58246   0.00000  Uiso   1.00
C536   C     0.98236   0.22121   0.04155   0.00000  Uiso   1.00
C537   C     0.97130   0.23222   0.41731   0.00000  Uiso   1.00
C538   C     0.76641   0.02917   0.58250   0.00000  Uiso   1.00
C539   C     0.76664   0.47090   0.41755   0.00000  Uiso   1.00
C540   C     0.74984   0.49812   0.02136   0.00000  Uiso   1.00
C541   C     0.75016   0.49824   0.97869   0.00000  Uiso   1.00
C542   C     0.99973   0.24967   0.02131   0.00000  Uiso   1.00
C543   C     0.99990   0.24967   0.97866   0.00000  Uiso   1.00
C544   C     0.99956   0.24709   0.52130   0.00000  Uiso   1.00
C545   C     0.50002   0.24708   0.47862   0.00000  Uiso   1.00
C546   C     0.75198   0.49994   0.52131   0.00000  Uiso   1.00
C547   C     0.98204   0.27788   0.95832   0.00000  Uiso   1.00
C548   C     0.75215   0.00030   0.47865   0.00000  Uiso   1.00
C549   C     0.75006   0.00002   0.35521   0.00000  Uiso   1.00
C550   C     0.75005   0.49999   0.64479   0.00000  Uiso   1.00
C551   C     0.50001   0.24989   0.35518   0.00000  Uiso   1.00
C552   C     0.99998   0.24992   0.64480   0.00000  Uiso   1.00
C553   C     0.50003   0.25001   0.85521   0.00000  Uiso   1.00
C554   C     0.99998   0.24998   0.14478   0.00000  Uiso   1.00
C555   C     0.75001   0.49997   0.85519   0.00000  Uiso   1.00
C556   C     0.74999   0.49997   0.14482   0.00000  Uiso   1.00
C557   C     0.67994   0.07006   0.25002   0.00000  Uiso   1.00
C558   C     0.77860   0.48134   0.04190   0.00000  Uiso   1.00
C559   C     0.81998   0.42999   0.75000   0.00000  Uiso   1.00
C560   C     0.92981   0.18013   0.24961   0.00000  Uiso   1.00
C561   C     0.57008   0.32000   0.75012   0.00000  Uiso   1.00
C562   C     0.82006   0.43003   0.24998   0.00000  Uiso   1.00
C563   C     0.68002   0.06999   0.74998   0.00000  Uiso   1.00
C564   C     0.56985   0.32023   0.25017   0.00000  Uiso   1.00
C565   C     0.93001   0.17991   0.74992   0.00000  Uiso   1.00
C566   C     0.67980   0.43010   0.74983   0.00000  Uiso   1.00
C567   C     0.81996   0.07017   0.24983   0.00000  Uiso   1.00
C568   C     0.92995   0.32007   0.75001   0.00000  Uiso   1.00
C569   C     0.72138   0.48186   0.95797   0.00000  Uiso   1.00
C570   C     0.56999   0.17999   0.25000   0.00000  Uiso   1.00
C571   C     0.81990   0.07020   0.75011   0.00000  Uiso   1.00
C572   C     0.67997   0.42993   0.24999   0.00000  Uiso   1.00
C573   C     0.57001   0.17997   0.75002   0.00000  Uiso   1.00
C574   C     0.93017   0.32015   0.25018   0.00000  Uiso   1.00
C575   C     0.61538   0.41172   0.24378   0.00000  Uiso   1.00
C576   C     0.88506   0.08777   0.75385   0.00000  Uiso   1.00
C577   C     0.60927   0.13643   0.21473   0.00000  Uiso   1.00
C578   C     0.89185   0.36511   0.78514   0.00000  Uiso   1.00
C579   C     0.86205   0.11094   0.21399   0.00000  Uiso   1.00
C580   C     0.51674   0.27832   0.04165   0.00000  Uiso   1.00
C581   C     0.61531   0.41157   0.75718   0.00000  Uiso   1.00
C582   C     0.86602   0.33875   0.24169   0.00000  Uiso   1.00
C583   C     0.63303   0.15995   0.76465   0.00000  Uiso   1.00
C584   C     0.66039   0.13326   0.76340   0.00000  Uiso   1.00
C585   C     0.83933   0.36601   0.24009   0.00000  Uiso   1.00
C586   C     0.58831   0.38471   0.75515   0.00000  Uiso   1.00
C587   C     0.88882   0.13820   0.21389   0.00000  Uiso   1.00
C588   C     0.86323   0.39043   0.78532   0.00000  Uiso   1.00
C589   C     0.63464   0.10785   0.21495   0.00000  Uiso   1.00
C590   C     0.91209   0.11453   0.75324   0.00000  Uiso   1.00
C591   C     0.51828   0.22171   0.95842   0.00000  Uiso   1.00
C592   C     0.58859   0.38468   0.24164   0.00000  Uiso   1.00
C593   C     0.86540   0.16175   0.74478   0.00000  Uiso   1.00
C594   C     0.63477   0.33801   0.25555   0.00000  Uiso   1.00
C595   C     0.85954   0.38672   0.71467   0.00000  Uiso   1.00
C596   C     0.64215   0.11540   0.28510   0.00000  Uiso   1.00
C597   C     0.63537   0.33784   0.74686   0.00000  Uiso   1.00
C598   C     0.88916   0.13805   0.28486   0.00000  Uiso   1.00
C599   C     0.61681   0.08951   0.73658   0.00000  Uiso   1.00
C600   C     0.88477   0.41183   0.25826   0.00000  Uiso   1.00
C601   C     0.91189   0.38486   0.25751   0.00000  Uiso   1.00
C602   C     0.97021   0.26337   0.54144   0.00000  Uiso   1.00
C603   C     0.59008   0.11684   0.73544   0.00000  Uiso   1.00
C604   C     0.86082   0.11251   0.28501   0.00000  Uiso   1.00
C605   C     0.66213   0.36486   0.74615   0.00000  Uiso   1.00
C606   C     0.61357   0.14076   0.28531   0.00000  Uiso   1.00
C607   C     0.88494   0.35815   0.71486   0.00000  Uiso   1.00
C608   C     0.66174   0.36476   0.25514   0.00000  Uiso   1.00
C609   C     0.83855   0.13475   0.74265   0.00000  Uiso   1.00
C610   C     0.59811   0.34806   0.24931   0.00000  Uiso   1.00
C611   C     0.90220   0.15161   0.74925   0.00000  Uiso   1.00
C612   C     0.65184   0.09819   0.25002   0.00000  Uiso   1.00
H613   H     0.69768   0.02634   0.09734   0.00000  Uiso   1.00
H614   H     0.55156   0.27686   0.40302   0.00000  Uiso   1.00
H615   H     0.91807   0.12926   0.13071   0.00000  Uiso   1.00
H616   H     0.79926   0.38139   0.81360   0.00000  Uiso   1.00
H617   H     0.83274   0.35393   0.83996   0.00000  Uiso   1.00
H618   H     0.81264   0.39360   0.86187   0.00000  Uiso   1.00
H619   H     0.62981   0.05184   0.14270   0.00000  Uiso   1.00
H620   H     0.61176   0.04726   0.19071   0.00000  Uiso   1.00
H621   H     0.59391   0.08191   0.15776   0.00000  Uiso   1.00
H622   H     0.98719   0.08329   0.72111   0.00000  Uiso   1.00
H623   H     0.97894   0.13145   0.71682   0.00000  Uiso   1.00
H624   H     0.94730   0.09887   0.69618   0.00000  Uiso   1.00
H625   H     0.72372   0.44779   0.59716   0.00000  Uiso   1.00
H626   H     0.55953   0.42807   0.18842   0.00000  Uiso   1.00
H627   H     0.55509   0.37942   0.17818   0.00000  Uiso   1.00
H628   H     0.51630   0.40589   0.19290   0.00000  Uiso   1.00
H629   H     0.84005   0.24080   0.77682   0.00000  Uiso   1.00
H630   H     0.82365   0.19698   0.79197   0.00000  Uiso   1.00
H631   H     0.87143   0.20939   0.79880   0.00000  Uiso   1.00
H632   H     0.62522   0.28633   0.20927   0.00000  Uiso   1.00
H633   H     0.64824   0.25247   0.23760   0.00000  Uiso   1.00
H634   H     0.67445   0.28797   0.21574   0.00000  Uiso   1.00
H635   H     0.86840   0.45082   0.68636   0.00000  Uiso   1.00
H636   H     0.72395   0.05254   0.40268   0.00000  Uiso   1.00
H637   H     0.89588   0.41733   0.65999   0.00000  Uiso   1.00
H638   H     0.85622   0.43736   0.63811   0.00000  Uiso   1.00
H639   H     0.69800   0.12020   0.35741   0.00000  Uiso   1.00
H640   H     0.70260   0.13834   0.30943   0.00000  Uiso   1.00
H641   H     0.66797   0.15616   0.34237   0.00000  Uiso   1.00
H642   H     0.66642   0.26274   0.77940   0.00000  Uiso   1.00
H643   H     0.61832   0.27098   0.78349   0.00000  Uiso   1.00
H644   H     0.65077   0.30278   0.80410   0.00000  Uiso   1.00
H645   H     0.92274   0.09926   0.33585   0.00000  Uiso   1.00
H646   H     0.95458   0.12792   0.30891   0.00000  Uiso   1.00
H647   H     0.55221   0.22207   0.59815   0.00000  Uiso   1.00
H648   H     0.94370   0.13803   0.35844   0.00000  Uiso   1.00
H649   H     0.61328   0.01830   0.68121   0.00000  Uiso   1.00
H650   H     0.59755   0.06290   0.66812   0.00000  Uiso   1.00
H651   H     0.64523   0.05513   0.68052   0.00000  Uiso   1.00
H652   H     0.90310   0.47968   0.31294   0.00000  Uiso   1.00
H653   H     0.85639   0.47215   0.30071   0.00000  Uiso   1.00
H654   H     0.88310   0.43631   0.32382   0.00000  Uiso   1.00
H655   H     0.98779   0.39671   0.30358   0.00000  Uiso   1.00
H656   H     0.94338   0.41022   0.31974   0.00000  Uiso   1.00
H657   H     0.95412   0.36221   0.31142   0.00000  Uiso   1.00
H658   H     0.94882   0.22055   0.40121   0.00000  Uiso   1.00
H659   H     0.53325   0.10629   0.66640   0.00000  Uiso   1.00
H660   H     0.53947   0.15130   0.68533   0.00000  Uiso   1.00
H661   H     0.57809   0.12543   0.66680   0.00000  Uiso   1.00
H662   H     0.81013   0.11157   0.36157   0.00000  Uiso   1.00
H663   H     0.83913   0.14860   0.34785   0.00000  Uiso   1.00
H664   H     0.80244   0.13364   0.31594   0.00000  Uiso   1.00
H665   H     0.71416   0.37669   0.79251   0.00000  Uiso   1.00
H666   H     0.74663   0.34892   0.76729   0.00000  Uiso   1.00
H667   H     0.70864   0.32734   0.79013   0.00000  Uiso   1.00
H668   H     0.55000   0.13182   0.31458   0.00000  Uiso   1.00
H669   H     0.77821   0.05189   0.59822   0.00000  Uiso   1.00
H670   H     0.58388   0.10489   0.34099   0.00000  Uiso   1.00
H671   H     0.56385   0.14481   0.36247   0.00000  Uiso   1.00
H672   H     0.88080   0.30275   0.64203   0.00000  Uiso   1.00
H673   H     0.86226   0.29779   0.68979   0.00000  Uiso   1.00
H674   H     0.84477   0.33272   0.65695   0.00000  Uiso   1.00
H675   H     0.73706   0.33141   0.22668   0.00000  Uiso   1.00
H676   H     0.72896   0.37935   0.21906   0.00000  Uiso   1.00
H677   H     0.69772   0.34563   0.19999   0.00000  Uiso   1.00
H678   H     0.80826   0.17942   0.69141   0.00000  Uiso   1.00
H679   H     0.80365   0.13102   0.67993   0.00000  Uiso   1.00
H680   H     0.77789   0.44798   0.40166   0.00000  Uiso   1.00
H681   H     0.76518   0.15706   0.69636   0.00000  Uiso   1.00
H682   H     0.71845   0.07162   0.99457   0.00000  Uiso   1.00
H683   H     0.70363   0.08128   0.04419   0.00000  Uiso   1.00
H684   H     0.67135   0.07928   0.00525   0.00000  Uiso   1.00
H685   H     0.80215   0.02642   0.90273   0.00000  Uiso   1.00
H686   H     0.78145   0.06990   0.00839   0.00000  Uiso   1.00
H687   H     0.79386   0.08163   0.95856   0.00000  Uiso   1.00
H688   H     0.82779   0.07911   0.99585   0.00000  Uiso   1.00
H689   H     0.91505   0.21384   0.03771   0.00000  Uiso   1.00
H690   H     0.92918   0.17060   0.05973   0.00000  Uiso   1.00
H691   H     0.91523   0.17242   0.01011   0.00000  Uiso   1.00
H692   H     0.92176   0.27151   0.99410   0.00000  Uiso   1.00
H693   H     0.91489   0.29799   0.94978   0.00000  Uiso   1.00
H694   H     0.91320   0.31969   0.99636   0.00000  Uiso   1.00
H695   H     0.78226   0.41395   0.03214   0.00000  Uiso   1.00
H696   H     0.97220   0.19829   0.09814   0.00000  Uiso   1.00
H697   H     0.82313   0.42417   0.06042   0.00000  Uiso   1.00
H698   H     0.82639   0.41337   0.00997   0.00000  Uiso   1.00
H699   H     0.72546   0.42033   0.99185   0.00000  Uiso   1.00
H700   H     0.69841   0.41578   0.94761   0.00000  Uiso   1.00
H701   H     0.67708   0.41399   0.99433   0.00000  Uiso   1.00
H702   H     0.57749   0.27380   0.00647   0.00000  Uiso   1.00
H703   H     0.58300   0.30098   0.05053   0.00000  Uiso   1.00
H704   H     0.58403   0.32222   0.00373   0.00000  Uiso   1.00
H705   H     0.58575   0.21721   0.96403   0.00000  Uiso   1.00
H706   H     0.57420   0.17396   0.94056   0.00000  Uiso   1.00
H707   H     0.97031   0.30077   0.90244   0.00000  Uiso   1.00
H708   H     0.58697   0.17522   0.99057   0.00000  Uiso   1.00
H709   H     0.96651   0.31983   0.49400   0.00000  Uiso   1.00
H710   H     0.95143   0.32947   0.54354   0.00000  Uiso   1.00
H711   H     0.91923   0.32641   0.50461   0.00000  Uiso   1.00
H712   H     0.52950   0.32012   0.50757   0.00000  Uiso   1.00
H713   H     0.54285   0.33143   0.45791   0.00000  Uiso   1.00
H714   H     0.57601   0.32966   0.49602   0.00000  Uiso   1.00
H715   H     0.68023   0.46874   0.49184   0.00000  Uiso   1.00
H716   H     0.66872   0.45597   0.54163   0.00000  Uiso   1.00
H717   H     0.67119   0.42221   0.50408   0.00000  Uiso   1.00
H718   H     0.80200   0.47222   0.09836   0.00000  Uiso   1.00
H719   H     0.67870   0.03188   0.50527   0.00000  Uiso   1.00
H720   H     0.66922   0.04691   0.45568   0.00000  Uiso   1.00
H721   H     0.67126   0.07913   0.49474   0.00000  Uiso   1.00
H722   H     0.52544   0.17038   0.50663   0.00000  Uiso   1.00
H723   H     0.55143   0.16509   0.55152   0.00000  Uiso   1.00
H724   H     0.57388   0.16387   0.50536   0.00000  Uiso   1.00
H725   H     0.96899   0.16210   0.46456   0.00000  Uiso   1.00
H726   H     0.92696   0.17290   0.43840   0.00000  Uiso   1.00
H727   H     0.92572   0.16044   0.48849   0.00000  Uiso   1.00
H728   H     0.82999   0.02481   0.50874   0.00000  Uiso   1.00
H729   H     0.69823   0.47186   0.90188   0.00000  Uiso   1.00
H730   H     0.83414   0.05217   0.55284   0.00000  Uiso   1.00
H731   H     0.83610   0.07329   0.50601   0.00000  Uiso   1.00
H732   H     0.83609   0.46808   0.46844   0.00000  Uiso   1.00
H733   H     0.82620   0.42739   0.43962   0.00000  Uiso   1.00
H734   H     0.83672   0.42365   0.49010   0.00000  Uiso   1.00
H735   H     0.58934   0.49154   0.27292   0.00000  Uiso   1.00
H736   H     0.57258   0.44812   0.28888   0.00000  Uiso   1.00
H737   H     0.62020   0.46071   0.29656   0.00000  Uiso   1.00
H738   H     0.87317   0.03558   0.70756   0.00000  Uiso   1.00
H739   H     0.90087   0.00307   0.73283   0.00000  Uiso   1.00
H740   H     0.52791   0.30146   0.09751   0.00000  Uiso   1.00
H741   H     0.92244   0.04108   0.70993   0.00000  Uiso   1.00
H742   H     0.61797   0.20028   0.18578   0.00000  Uiso   1.00
H743   H     0.64516   0.16657   0.15937   0.00000  Uiso   1.00
H744   H     0.60531   0.18650   0.13777   0.00000  Uiso   1.00
H745   H     0.94709   0.36945   0.85800   0.00000  Uiso   1.00
H746   H     0.95210   0.38790   0.81020   0.00000  Uiso   1.00
H747   H     0.91716   0.40548   0.84292   0.00000  Uiso   1.00
H748   H     0.84540   0.04945   0.15453   0.00000  Uiso   1.00
H749   H     0.88632   0.05833   0.18157   0.00000  Uiso   1.00
H750   H     0.87812   0.08023   0.13527   0.00000  Uiso   1.00
H751   H     0.52944   0.19912   0.90185   0.00000  Uiso   1.00
H752   H     0.57059   0.44226   0.80815   0.00000  Uiso   1.00
H753   H     0.61888   0.44664   0.81982   0.00000  Uiso   1.00
H754   H     0.59317   0.48528   0.80318   0.00000  Uiso   1.00
H755   H     0.86085   0.26227   0.19536   0.00000  Uiso   1.00
H756   H     0.83998   0.30360   0.17875   0.00000  Uiso   1.00
H757   H     0.88911   0.30109   0.18624   0.00000  Uiso   1.00
H758   H     0.64331   0.21668   0.83394   0.00000  Uiso   1.00
H759   H     0.59843   0.21032   0.81495   0.00000  Uiso   1.00
H760   H     0.62440   0.17169   0.83333   0.00000  Uiso   1.00
H761   H     0.73147   0.13681   0.81874   0.00000  Uiso   1.00
H762   H     0.94715   0.27515   0.59716   0.00000  Uiso   1.00
H763   H     0.68701   0.15269   0.83187   0.00000  Uiso   1.00
H764   H     0.69463   0.10490   0.81951   0.00000  Uiso   1.00
H765   H     0.78058   0.35029   0.17407   0.00000  Uiso   1.00
H766   H     0.78908   0.39669   0.18767   0.00000  Uiso   1.00
H767   H     0.82604   0.36741   0.17124   0.00000  Uiso   1.00
H768   H     0.50947   0.41016   0.72299   0.00000  Uiso   1.00
H769   H     0.55324   0.42653   0.70786   0.00000  Uiso   1.00
H770   H     0.54081   0.37866   0.70109   0.00000  Uiso   1.00
H771   H     0.93553   0.11021   0.17536   0.00000  Uiso   1.00
H772   H     0.95071   0.15408   0.15809   0.00000  Uiso   1.00
O773   O     0.75000   0.00000   0.25000   0.00000  Uiso   1.00
O774   O     0.75000   0.46964   0.66317   0.00000  Uiso   1.00
O775   O     0.80224   0.14469   0.73903   0.00000  Uiso   1.00
O776   O     0.96964   0.25000   0.33683   0.00000  Uiso   1.00
O777   O     0.53036   0.25000   0.66317   0.00000  Uiso   1.00
O778   O     0.50000   0.21964   0.83683   0.00000  Uiso   1.00
O779   O     0.50000   0.28036   0.16317   0.00000  Uiso   1.00
O780   O     0.78036   0.00000   0.83683   0.00000  Uiso   1.00
O781   O     0.71964   0.00000   0.16317   0.00000  Uiso   1.00
O782   O     0.50000   0.28036   0.83683   0.00000  Uiso   1.00
O783   O     0.50000   0.21964   0.16317   0.00000  Uiso   1.00
O784   O     0.71964   0.00000   0.83683   0.00000  Uiso   1.00
O785   O     0.75000   0.00000   0.75000   0.00000  Uiso   1.00
O786   O     0.78036   0.00000   0.16317   0.00000  Uiso   1.00
O787   O     0.70725   0.07307   0.27282   0.00000  Uiso   1.00
O788   O     0.79274   0.42693   0.72718   0.00000  Uiso   1.00
O789   O     0.92693   0.20726   0.27282   0.00000  Uiso   1.00
O790   O     0.57307   0.29275   0.72718   0.00000  Uiso   1.00
O791   O     0.79274   0.42693   0.27282   0.00000  Uiso   1.00
O792   O     0.70725   0.07307   0.72718   0.00000  Uiso   1.00
O793   O     0.57307   0.29275   0.27282   0.00000  Uiso   1.00
O794   O     0.92693   0.20726   0.72718   0.00000  Uiso   1.00
O795   O     0.70725   0.42693   0.72718   0.00000  Uiso   1.00
O796   O     0.50000   0.25000   0.25000   0.00000  Uiso   1.00
O797   O     0.79274   0.07307   0.27282   0.00000  Uiso   1.00
O798   O     0.92693   0.29275   0.72718   0.00000  Uiso   1.00
O799   O     0.57307   0.20726   0.27282   0.00000  Uiso   1.00
O800   O     0.79274   0.07307   0.72718   0.00000  Uiso   1.00
O801   O     0.70725   0.42693   0.27282   0.00000  Uiso   1.00
O802   O     0.57307   0.20726   0.72718   0.00000  Uiso   1.00
O803   O     0.92693   0.29275   0.27282   0.00000  Uiso   1.00
O804   O     0.95725   0.32307   0.77282   0.00000  Uiso   1.00
O805   O     0.54274   0.17693   0.22718   0.00000  Uiso   1.00
O806   O     0.67693   0.45726   0.77282   0.00000  Uiso   1.00
O807   O     0.50000   0.25000   0.75000   0.00000  Uiso   1.00
O808   O     0.82307   0.04275   0.22718   0.00000  Uiso   1.00
O809   O     0.54274   0.17693   0.77282   0.00000  Uiso   1.00
O810   O     0.95725   0.32307   0.22718   0.00000  Uiso   1.00
O811   O     0.82307   0.04275   0.77282   0.00000  Uiso   1.00
O812   O     0.67693   0.45726   0.22718   0.00000  Uiso   1.00
O813   O     0.95725   0.17693   0.22718   0.00000  Uiso   1.00
O814   O     0.54274   0.32307   0.77282   0.00000  Uiso   1.00
O815   O     0.67693   0.04275   0.22718   0.00000  Uiso   1.00
O816   O     0.82307   0.45726   0.77282   0.00000  Uiso   1.00
O817   O     0.54274   0.32307   0.22718   0.00000  Uiso   1.00
O818   O     0.75000   0.46964   0.33683   0.00000  Uiso   1.00
O819   O     0.95725   0.17693   0.77282   0.00000  Uiso   1.00
O820   O     0.82307   0.45726   0.22718   0.00000  Uiso   1.00
O821   O     0.67693   0.04275   0.77282   0.00000  Uiso   1.00
O822   O     0.69112   0.02931   0.02213   0.00000  Uiso   1.00
O823   O     0.80884   0.02926   0.97787   0.00000  Uiso   1.00
O824   O     0.96624   0.19302   0.02079   0.00000  Uiso   1.00
O825   O     0.96464   0.30580   0.97806   0.00000  Uiso   1.00
O826   O     0.80690   0.46480   0.02172   0.00000  Uiso   1.00
O827   O     0.69290   0.46525   0.97731   0.00000  Uiso   1.00
O828   O     0.53311   0.30670   0.02188   0.00000  Uiso   1.00
O829   O     0.75000   0.03036   0.66317   0.00000  Uiso   1.00
O830   O     0.53527   0.19394   0.97912   0.00000  Uiso   1.00
O831   O     0.94021   0.27705   0.52189   0.00000  Uiso   1.00
O832   O     0.55794   0.27943   0.47821   0.00000  Uiso   1.00
O833   O     0.72096   0.44119   0.52200   0.00000  Uiso   1.00
O834   O     0.72110   0.05918   0.47790   0.00000  Uiso   1.00
O835   O     0.55752   0.21494   0.52284   0.00000  Uiso   1.00
O836   O     0.94403   0.21240   0.47792   0.00000  Uiso   1.00
O837   O     0.78492   0.05730   0.52280   0.00000  Uiso   1.00
O838   O     0.78537   0.44312   0.47825   0.00000  Uiso   1.00
O839   O     0.60558   0.44804   0.23949   0.00000  Uiso   1.00
O840   O     0.53036   0.25000   0.33683   0.00000  Uiso   1.00
O841   O     0.89481   0.05188   0.76146   0.00000  Uiso   1.00
O842   O     0.59477   0.14843   0.17993   0.00000  Uiso   1.00
O843   O     0.90718   0.35368   0.81980   0.00000  Uiso   1.00
O844   O     0.84581   0.10058   0.17942   0.00000  Uiso   1.00
O845   O     0.60546   0.44798   0.76065   0.00000  Uiso   1.00
O846   O     0.85628   0.30254   0.23651   0.00000  Uiso   1.00
O847   O     0.64128   0.19411   0.77937   0.00000  Uiso   1.00
O848   O     0.69585   0.14233   0.77323   0.00000  Uiso   1.00
O849   O     0.80469   0.35698   0.22755   0.00000  Uiso   1.00
O850   O     0.55197   0.39465   0.75810   0.00000  Uiso   1.00
O851   O     0.96964   0.25000   0.66317   0.00000  Uiso   1.00
O852   O     0.89811   0.15515   0.17936   0.00000  Uiso   1.00
O853   O     0.85092   0.40464   0.82014   0.00000  Uiso   1.00
O854   O     0.64577   0.09223   0.18032   0.00000  Uiso   1.00
O855   O     0.94807   0.10383   0.75768   0.00000  Uiso   1.00
O856   O     0.55237   0.39455   0.23682   0.00000  Uiso   1.00
O857   O     0.85553   0.19816   0.74178   0.00000  Uiso   1.00
O858   O     0.64434   0.30235   0.26454   0.00000  Uiso   1.00
O859   O     0.84532   0.39900   0.67986   0.00000  Uiso   1.00
O860   O     0.65772   0.10423   0.31973   0.00000  Uiso   1.00
O861   O     0.64600   0.30176   0.74259   0.00000  Uiso   1.00
O862   O     0.75000   0.03036   0.33683   0.00000  Uiso   1.00
O863   O     0.90319   0.15071   0.31959   0.00000  Uiso   1.00
O864   O     0.60783   0.05397   0.72676   0.00000  Uiso   1.00
O865   O     0.89486   0.44778   0.26473   0.00000  Uiso   1.00
O866   O     0.94809   0.39472   0.26172   0.00000  Uiso   1.00
O867   O     0.55595   0.10847   0.72087   0.00000  Uiso   1.00
O868   O     0.84791   0.09876   0.31977   0.00000  Uiso   1.00
O869   O     0.69794   0.35502   0.73859   0.00000  Uiso   1.00
O870   O     0.60164   0.15537   0.32009   0.00000  Uiso   1.00
O871   O     0.89640   0.34282   0.68020   0.00000  Uiso   1.00
O872   O     0.69752   0.35418   0.26106   0.00000  Uiso   1.00
Zn873  Zn    0.70660   0.00000   0.21760   0.00000  Uiso   1.00
Zn874  Zn    0.54340   0.25000   0.28240   0.00000  Uiso   1.00
Zn875  Zn    0.75000   0.45660   0.71760   0.00000  Uiso   1.00
Zn876  Zn    0.75000   0.04340   0.28240   0.00000  Uiso   1.00
Zn877  Zn    0.54340   0.25000   0.71760   0.00000  Uiso   1.00
Zn878  Zn    0.95660   0.25000   0.28240   0.00000  Uiso   1.00
Zn879  Zn    0.75000   0.04340   0.71760   0.00000  Uiso   1.00
Zn880  Zn    0.75000   0.45660   0.28240   0.00000  Uiso   1.00
Zn881  Zn    0.79340   0.00000   0.78240   0.00000  Uiso   1.00
Zn882  Zn    0.50000   0.20660   0.21760   0.00000  Uiso   1.00
Zn883  Zn    0.50000   0.29340   0.78240   0.00000  Uiso   1.00
Zn884  Zn    0.79340   0.00000   0.21760   0.00000  Uiso   1.00
Zn885  Zn    0.70660   0.00000   0.78240   0.00000  Uiso   1.00
Zn886  Zn    0.50000   0.29340   0.21760   0.00000  Uiso   1.00
Zn887  Zn    0.50000   0.20660   0.78240   0.00000  Uiso   1.00
Zn888  Zn    0.95660   0.25000   0.71760   0.00000  Uiso   1.00
C889   C     0.22075   0.51477   0.04160   0.00000  Uiso   1.00
C890   C     0.02871   0.76442   0.45859   0.00000  Uiso   1.00
C891   C     0.34797   0.90196   0.74999   0.00000  Uiso   1.00
C892   C     0.40210   0.65177   0.24941   0.00000  Uiso   1.00
C893   C     0.09837   0.84782   0.75082   0.00000  Uiso   1.00
C894   C     0.34839   0.90221   0.24990   0.00000  Uiso   1.00
C895   C     0.15199   0.59802   0.74995   0.00000  Uiso   1.00
C896   C     0.09807   0.65188   0.75005   0.00000  Uiso   1.00
C897   C     0.40224   0.84831   0.25016   0.00000  Uiso   1.00
C898   C     0.15200   0.90178   0.75077   0.00000  Uiso   1.00
C899   C     0.34811   0.59823   0.24962   0.00000  Uiso   1.00
C900   C     0.40186   0.84821   0.75000   0.00000  Uiso   1.00
C901   C     0.23538   0.97085   0.54147   0.00000  Uiso   1.00
C902   C     0.09799   0.65198   0.25001   0.00000  Uiso   1.00
C903   C     0.34824   0.59798   0.74910   0.00000  Uiso   1.00
C904   C     0.15206   0.90171   0.24956   0.00000  Uiso   1.00
C905   C     0.24995   0.99939   0.10249   0.00000  Uiso   1.00
C906   C     0.25003   0.99949   0.89752   0.00000  Uiso   1.00
C907   C     0.49978   0.74993   0.10243   0.00000  Uiso   1.00
C908   C     0.00016   0.75001   0.89755   0.00000  Uiso   1.00
C909   C     0.49990   0.74913   0.60246   0.00000  Uiso   1.00
C910   C     0.00003   0.74893   0.39750   0.00000  Uiso   1.00
C911   C     0.25061   0.99999   0.60247   0.00000  Uiso   1.00
C912   C     0.23555   0.52945   0.45841   0.00000  Uiso   1.00
C913   C     0.25074   0.50011   0.39752   0.00000  Uiso   1.00
C914   C     0.19688   0.56697   0.01659   0.00000  Uiso   1.00
C915   C     0.30219   0.56655   0.98520   0.00000  Uiso   1.00
C916   C     0.42995   0.68761   0.03310   0.00000  Uiso   1.00
C917   C     0.42706   0.79800   0.97934   0.00000  Uiso   1.00
C918   C     0.30939   0.92755   0.03194   0.00000  Uiso   1.00
C919   C     0.19914   0.92724   0.97749   0.00000  Uiso   1.00
C920   C     0.07100   0.80024   0.02090   0.00000  Uiso   1.00
C921   C     0.07204   0.69030   0.96760   0.00000  Uiso   1.00
C922   C     0.44505   0.81481   0.51606   0.00000  Uiso   1.00
C923   C     0.02873   0.73132   0.54207   0.00000  Uiso   1.00
C924   C     0.05076   0.81673   0.48493   0.00000  Uiso   1.00
C925   C     0.18370   0.94782   0.51486   0.00000  Uiso   1.00
C926   C     0.18347   0.55354   0.48334   0.00000  Uiso   1.00
C927   C     0.05139   0.67697   0.52182   0.00000  Uiso   1.00
C928   C     0.44170   0.67547   0.46640   0.00000  Uiso   1.00
C929   C     0.32288   0.55122   0.52289   0.00000  Uiso   1.00
C930   C     0.32262   0.94085   0.46824   0.00000  Uiso   1.00
C931   C     0.09662   0.96228   0.27628   0.00000  Uiso   1.00
C932   C     0.39780   0.53256   0.72616   0.00000  Uiso   1.00
C933   C     0.11707   0.67662   0.16550   0.00000  Uiso   1.00
C934   C     0.47181   0.72976   0.45787   0.00000  Uiso   1.00
C935   C     0.43178   0.88059   0.83288   0.00000  Uiso   1.00
C936   C     0.36516   0.57106   0.16255   0.00000  Uiso   1.00
C937   C     0.09670   0.95535   0.79973   0.00000  Uiso   1.00
C938   C     0.36199   0.79250   0.19746   0.00000  Uiso   1.00
C939   C     0.12597   0.69783   0.81683   0.00000  Uiso   1.00
C940   C     0.20197   0.63362   0.81254   0.00000  Uiso   1.00
C941   C     0.30040   0.86855   0.18862   0.00000  Uiso   1.00
C942   C     0.03874   0.90277   0.72068   0.00000  Uiso   1.00
C943   C     0.42669   0.63594   0.16070   0.00000  Uiso   1.00
C944   C     0.32271   0.88212   0.83408   0.00000  Uiso   1.00
C945   C     0.26832   0.52875   0.54208   0.00000  Uiso   1.00
C946   C     0.11886   0.56741   0.16775   0.00000  Uiso   1.00
C947   C     0.46566   0.60461   0.72124   0.00000  Uiso   1.00
C948   C     0.04606   0.90226   0.19729   0.00000  Uiso   1.00
C949   C     0.34740   0.71147   0.77917   0.00000  Uiso   1.00
C950   C     0.14808   0.78191   0.23002   0.00000  Uiso   1.00
C951   C     0.36772   0.92731   0.66588   0.00000  Uiso   1.00
C952   C     0.18247   0.63119   0.33236   0.00000  Uiso   1.00
C953   C     0.14512   0.78428   0.77910   0.00000  Uiso   1.00
C954   C     0.43225   0.62770   0.33076   0.00000  Uiso   1.00
C955   C     0.11653   0.54784   0.68745   0.00000  Uiso   1.00
C956   C     0.26886   0.97147   0.45810   0.00000  Uiso   1.00
C957   C     0.38361   0.95891   0.30214   0.00000  Uiso   1.00
C958   C     0.45829   0.89062   0.30091   0.00000  Uiso   1.00
C959   C     0.05205   0.62375   0.68342   0.00000  Uiso   1.00
C960   C     0.32401   0.62458   0.33660   0.00000  Uiso   1.00
C961   C     0.21718   0.85201   0.77391   0.00000  Uiso   1.00
C962   C     0.07367   0.63295   0.33476   0.00000  Uiso   1.00
C963   C     0.36960   0.81812   0.66709   0.00000  Uiso   1.00
C964   C     0.21566   0.85278   0.22498   0.00000  Uiso   1.00
C965   C     0.29503   0.65337   0.69990   0.00000  Uiso   1.00
C966   C     0.22053   0.51426   0.08202   0.00000  Uiso   1.00
C967   C     0.27937   0.51438   0.91803   0.00000  Uiso   1.00
C968   C     0.48386   0.72088   0.08222   0.00000  Uiso   1.00
C969   C     0.27919   0.51483   0.95847   0.00000  Uiso   1.00
C970   C     0.48338   0.77852   0.91789   0.00000  Uiso   1.00
C971   C     0.27914   0.98351   0.08246   0.00000  Uiso   1.00
C972   C     0.22092   0.98371   0.91756   0.00000  Uiso   1.00
C973   C     0.01555   0.77888   0.08208   0.00000  Uiso   1.00
C974   C     0.01696   0.72138   0.91775   0.00000  Uiso   1.00
C975   C     0.47017   0.76335   0.58190   0.00000  Uiso   1.00
C976   C     0.02902   0.76421   0.41817   0.00000  Uiso   1.00
C977   C     0.23577   0.97063   0.58191   0.00000  Uiso   1.00
C978   C     0.23599   0.52964   0.41799   0.00000  Uiso   1.00
C979   C     0.02926   0.73352   0.58246   0.00000  Uiso   1.00
C980   C     0.48236   0.72121   0.04155   0.00000  Uiso   1.00
C981   C     0.47130   0.73222   0.41731   0.00000  Uiso   1.00
C982   C     0.26641   0.52917   0.58250   0.00000  Uiso   1.00
C983   C     0.26664   0.97090   0.41755   0.00000  Uiso   1.00
C984   C     0.24984   0.99812   0.02136   0.00000  Uiso   1.00
C985   C     0.25016   0.99824   0.97869   0.00000  Uiso   1.00
C986   C     0.49973   0.74967   0.02131   0.00000  Uiso   1.00
C987   C     0.49990   0.74967   0.97866   0.00000  Uiso   1.00
C988   C     0.49956   0.74709   0.52130   0.00000  Uiso   1.00
C989   C     0.00002   0.74708   0.47862   0.00000  Uiso   1.00
C990   C     0.25198   0.99994   0.52131   0.00000  Uiso   1.00
C991   C     0.48204   0.77788   0.95832   0.00000  Uiso   1.00
C992   C     0.25215   0.50030   0.47865   0.00000  Uiso   1.00
C993   C     0.25006   0.50002   0.35521   0.00000  Uiso   1.00
C994   C     0.25005   0.99999   0.64479   0.00000  Uiso   1.00
C995   C     0.00001   0.74989   0.35518   0.00000  Uiso   1.00
C996   C     0.49998   0.74992   0.64480   0.00000  Uiso   1.00
C997   C     0.00003   0.75001   0.85521   0.00000  Uiso   1.00
C998   C     0.49998   0.74998   0.14478   0.00000  Uiso   1.00
C999   C     0.25001   0.99997   0.85519   0.00000  Uiso   1.00
C1000  C     0.24999   0.99997   0.14482   0.00000  Uiso   1.00
C1001  C     0.17994   0.57006   0.25002   0.00000  Uiso   1.00
C1002  C     0.27860   0.98134   0.04190   0.00000  Uiso   1.00
C1003  C     0.31998   0.92999   0.75000   0.00000  Uiso   1.00
C1004  C     0.42981   0.68013   0.24961   0.00000  Uiso   1.00
C1005  C     0.07008   0.82000   0.75012   0.00000  Uiso   1.00
C1006  C     0.32006   0.93003   0.24998   0.00000  Uiso   1.00
C1007  C     0.18002   0.56999   0.74998   0.00000  Uiso   1.00
C1008  C     0.06985   0.82023   0.25017   0.00000  Uiso   1.00
C1009  C     0.43001   0.67991   0.74992   0.00000  Uiso   1.00
C1010  C     0.17980   0.93010   0.74983   0.00000  Uiso   1.00
C1011  C     0.31996   0.57017   0.24983   0.00000  Uiso   1.00
C1012  C     0.42995   0.82007   0.75001   0.00000  Uiso   1.00
C1013  C     0.22138   0.98186   0.95797   0.00000  Uiso   1.00
C1014  C     0.06999   0.67999   0.25000   0.00000  Uiso   1.00
C1015  C     0.31990   0.57020   0.75011   0.00000  Uiso   1.00
C1016  C     0.17997   0.92993   0.24999   0.00000  Uiso   1.00
C1017  C     0.07001   0.67997   0.75002   0.00000  Uiso   1.00
C1018  C     0.43017   0.82015   0.25018   0.00000  Uiso   1.00
C1019  C     0.11538   0.91172   0.24378   0.00000  Uiso   1.00
C1020  C     0.38506   0.58777   0.75385   0.00000  Uiso   1.00
C1021  C     0.10927   0.63643   0.21473   0.00000  Uiso   1.00
C1022  C     0.39185   0.86511   0.78514   0.00000  Uiso   1.00
C1023  C     0.36205   0.61094   0.21399   0.00000  Uiso   1.00
C1024  C     0.01674   0.77832   0.04165   0.00000  Uiso   1.00
C1025  C     0.11531   0.91157   0.75718   0.00000  Uiso   1.00
C1026  C     0.36602   0.83875   0.24169   0.00000  Uiso   1.00
C1027  C     0.13303   0.65995   0.76465   0.00000  Uiso   1.00
C1028  C     0.16039   0.63326   0.76340   0.00000  Uiso   1.00
C1029  C     0.33933   0.86601   0.24009   0.00000  Uiso   1.00
C1030  C     0.08831   0.88471   0.75515   0.00000  Uiso   1.00
C1031  C     0.38882   0.63820   0.21389   0.00000  Uiso   1.00
C1032  C     0.36323   0.89043   0.78532   0.00000  Uiso   1.00
C1033  C     0.13464   0.60785   0.21495   0.00000  Uiso   1.00
C1034  C     0.41209   0.61453   0.75324   0.00000  Uiso   1.00
C1035  C     0.01828   0.72171   0.95842   0.00000  Uiso   1.00
C1036  C     0.08859   0.88468   0.24164   0.00000  Uiso   1.00
C1037  C     0.36540   0.66175   0.74478   0.00000  Uiso   1.00
C1038  C     0.13477   0.83801   0.25555   0.00000  Uiso   1.00
C1039  C     0.35954   0.88672   0.71467   0.00000  Uiso   1.00
C1040  C     0.14215   0.61540   0.28510   0.00000  Uiso   1.00
C1041  C     0.13537   0.83784   0.74686   0.00000  Uiso   1.00
C1042  C     0.38916   0.63805   0.28486   0.00000  Uiso   1.00
C1043  C     0.11681   0.58951   0.73658   0.00000  Uiso   1.00
C1044  C     0.38477   0.91183   0.25826   0.00000  Uiso   1.00
C1045  C     0.41189   0.88486   0.25751   0.00000  Uiso   1.00
C1046  C     0.47021   0.76337   0.54144   0.00000  Uiso   1.00
C1047  C     0.09008   0.61684   0.73544   0.00000  Uiso   1.00
C1048  C     0.36082   0.61251   0.28501   0.00000  Uiso   1.00
C1049  C     0.16213   0.86486   0.74615   0.00000  Uiso   1.00
C1050  C     0.11357   0.64076   0.28531   0.00000  Uiso   1.00
C1051  C     0.38494   0.85815   0.71486   0.00000  Uiso   1.00
C1052  C     0.16174   0.86476   0.25514   0.00000  Uiso   1.00
C1053  C     0.33855   0.63475   0.74265   0.00000  Uiso   1.00
C1054  C     0.09811   0.84806   0.24931   0.00000  Uiso   1.00
C1055  C     0.40220   0.65161   0.74925   0.00000  Uiso   1.00
C1056  C     0.15184   0.59819   0.25002   0.00000  Uiso   1.00
H1057  H     0.19768   0.52634   0.09734   0.00000  Uiso   1.00
H1058  H     0.05156   0.77686   0.40302   0.00000  Uiso   1.00
H1059  H     0.41807   0.62926   0.13071   0.00000  Uiso   1.00
H1060  H     0.29926   0.88139   0.81360   0.00000  Uiso   1.00
H1061  H     0.33274   0.85393   0.83996   0.00000  Uiso   1.00
H1062  H     0.31264   0.89360   0.86187   0.00000  Uiso   1.00
H1063  H     0.12981   0.55184   0.14270   0.00000  Uiso   1.00
H1064  H     0.11176   0.54726   0.19071   0.00000  Uiso   1.00
H1065  H     0.09391   0.58191   0.15776   0.00000  Uiso   1.00
H1066  H     0.48719   0.58329   0.72111   0.00000  Uiso   1.00
H1067  H     0.47894   0.63145   0.71682   0.00000  Uiso   1.00
H1068  H     0.44730   0.59887   0.69618   0.00000  Uiso   1.00
H1069  H     0.22372   0.94779   0.59716   0.00000  Uiso   1.00
H1070  H     0.05953   0.92807   0.18842   0.00000  Uiso   1.00
H1071  H     0.05509   0.87942   0.17818   0.00000  Uiso   1.00
H1072  H     0.01630   0.90589   0.19290   0.00000  Uiso   1.00
H1073  H     0.34005   0.74080   0.77682   0.00000  Uiso   1.00
H1074  H     0.32365   0.69698   0.79197   0.00000  Uiso   1.00
H1075  H     0.37143   0.70939   0.79880   0.00000  Uiso   1.00
H1076  H     0.12522   0.78633   0.20927   0.00000  Uiso   1.00
H1077  H     0.14824   0.75247   0.23760   0.00000  Uiso   1.00
H1078  H     0.17445   0.78797   0.21574   0.00000  Uiso   1.00
H1079  H     0.36840   0.95082   0.68636   0.00000  Uiso   1.00
H1080  H     0.22395   0.55254   0.40268   0.00000  Uiso   1.00
H1081  H     0.39588   0.91733   0.65999   0.00000  Uiso   1.00
H1082  H     0.35622   0.93736   0.63811   0.00000  Uiso   1.00
H1083  H     0.19800   0.62020   0.35741   0.00000  Uiso   1.00
H1084  H     0.20260   0.63834   0.30943   0.00000  Uiso   1.00
H1085  H     0.16797   0.65616   0.34237   0.00000  Uiso   1.00
H1086  H     0.16642   0.76274   0.77940   0.00000  Uiso   1.00
H1087  H     0.11832   0.77098   0.78349   0.00000  Uiso   1.00
H1088  H     0.15077   0.80278   0.80410   0.00000  Uiso   1.00
H1089  H     0.42274   0.59926   0.33585   0.00000  Uiso   1.00
H1090  H     0.45458   0.62792   0.30891   0.00000  Uiso   1.00
H1091  H     0.05221   0.72207   0.59815   0.00000  Uiso   1.00
H1092  H     0.44370   0.63803   0.35844   0.00000  Uiso   1.00
H1093  H     0.11328   0.51830   0.68121   0.00000  Uiso   1.00
H1094  H     0.09755   0.56290   0.66812   0.00000  Uiso   1.00
H1095  H     0.14523   0.55513   0.68052   0.00000  Uiso   1.00
H1096  H     0.40310   0.97968   0.31294   0.00000  Uiso   1.00
H1097  H     0.35639   0.97215   0.30071   0.00000  Uiso   1.00
H1098  H     0.38310   0.93631   0.32382   0.00000  Uiso   1.00
H1099  H     0.48779   0.89671   0.30358   0.00000  Uiso   1.00
H1100  H     0.44338   0.91022   0.31974   0.00000  Uiso   1.00
H1101  H     0.45412   0.86221   0.31142   0.00000  Uiso   1.00
H1102  H     0.44882   0.72055   0.40121   0.00000  Uiso   1.00
H1103  H     0.03325   0.60629   0.66640   0.00000  Uiso   1.00
H1104  H     0.03947   0.65130   0.68533   0.00000  Uiso   1.00
H1105  H     0.07809   0.62543   0.66680   0.00000  Uiso   1.00
H1106  H     0.31013   0.61157   0.36157   0.00000  Uiso   1.00
H1107  H     0.33913   0.64860   0.34785   0.00000  Uiso   1.00
H1108  H     0.30244   0.63364   0.31594   0.00000  Uiso   1.00
H1109  H     0.21416   0.87669   0.79251   0.00000  Uiso   1.00
H1110  H     0.24663   0.84892   0.76729   0.00000  Uiso   1.00
H1111  H     0.20864   0.82734   0.79013   0.00000  Uiso   1.00
H1112  H     0.05000   0.63182   0.31458   0.00000  Uiso   1.00
H1113  H     0.27821   0.55189   0.59822   0.00000  Uiso   1.00
H1114  H     0.08388   0.60489   0.34099   0.00000  Uiso   1.00
H1115  H     0.06385   0.64481   0.36247   0.00000  Uiso   1.00
H1116  H     0.38080   0.80275   0.64203   0.00000  Uiso   1.00
H1117  H     0.36226   0.79779   0.68979   0.00000  Uiso   1.00
H1118  H     0.34477   0.83272   0.65695   0.00000  Uiso   1.00
H1119  H     0.23706   0.83141   0.22668   0.00000  Uiso   1.00
H1120  H     0.22896   0.87935   0.21906   0.00000  Uiso   1.00
H1121  H     0.19772   0.84563   0.19999   0.00000  Uiso   1.00
H1122  H     0.30826   0.67942   0.69141   0.00000  Uiso   1.00
H1123  H     0.30365   0.63102   0.67993   0.00000  Uiso   1.00
H1124  H     0.27789   0.94798   0.40166   0.00000  Uiso   1.00
H1125  H     0.26518   0.65706   0.69636   0.00000  Uiso   1.00
H1126  H     0.21845   0.57162   0.99457   0.00000  Uiso   1.00
H1127  H     0.20363   0.58128   0.04419   0.00000  Uiso   1.00
H1128  H     0.17135   0.57928   0.00525   0.00000  Uiso   1.00
H1129  H     0.30215   0.52642   0.90273   0.00000  Uiso   1.00
H1130  H     0.28145   0.56990   0.00839   0.00000  Uiso   1.00
H1131  H     0.29386   0.58163   0.95856   0.00000  Uiso   1.00
H1132  H     0.32779   0.57911   0.99585   0.00000  Uiso   1.00
H1133  H     0.41505   0.71384   0.03771   0.00000  Uiso   1.00
H1134  H     0.42918   0.67060   0.05973   0.00000  Uiso   1.00
H1135  H     0.41523   0.67242   0.01011   0.00000  Uiso   1.00
H1136  H     0.42176   0.77151   0.99410   0.00000  Uiso   1.00
H1137  H     0.41489   0.79799   0.94978   0.00000  Uiso   1.00
H1138  H     0.41320   0.81969   0.99636   0.00000  Uiso   1.00
H1139  H     0.28226   0.91395   0.03214   0.00000  Uiso   1.00
H1140  H     0.47220   0.69829   0.09814   0.00000  Uiso   1.00
H1141  H     0.32313   0.92417   0.06042   0.00000  Uiso   1.00
H1142  H     0.32639   0.91337   0.00997   0.00000  Uiso   1.00
H1143  H     0.22546   0.92033   0.99185   0.00000  Uiso   1.00
H1144  H     0.19841   0.91578   0.94761   0.00000  Uiso   1.00
H1145  H     0.17708   0.91399   0.99433   0.00000  Uiso   1.00
H1146  H     0.07749   0.77380   0.00647   0.00000  Uiso   1.00
H1147  H     0.08300   0.80098   0.05053   0.00000  Uiso   1.00
H1148  H     0.08403   0.82222   0.00373   0.00000  Uiso   1.00
H1149  H     0.08575   0.71721   0.96403   0.00000  Uiso   1.00
H1150  H     0.07420   0.67396   0.94056   0.00000  Uiso   1.00
H1151  H     0.47031   0.80077   0.90244   0.00000  Uiso   1.00
H1152  H     0.08697   0.67522   0.99057   0.00000  Uiso   1.00
H1153  H     0.46651   0.81983   0.49400   0.00000  Uiso   1.00
H1154  H     0.45143   0.82947   0.54354   0.00000  Uiso   1.00
H1155  H     0.41923   0.82641   0.50461   0.00000  Uiso   1.00
H1156  H     0.02950   0.82012   0.50757   0.00000  Uiso   1.00
H1157  H     0.04285   0.83143   0.45791   0.00000  Uiso   1.00
H1158  H     0.07601   0.82966   0.49602   0.00000  Uiso   1.00
H1159  H     0.18023   0.96874   0.49184   0.00000  Uiso   1.00
H1160  H     0.16872   0.95597   0.54163   0.00000  Uiso   1.00
H1161  H     0.17119   0.92221   0.50408   0.00000  Uiso   1.00
H1162  H     0.30200   0.97222   0.09836   0.00000  Uiso   1.00
H1163  H     0.17870   0.53188   0.50527   0.00000  Uiso   1.00
H1164  H     0.16922   0.54691   0.45568   0.00000  Uiso   1.00
H1165  H     0.17126   0.57913   0.49474   0.00000  Uiso   1.00
H1166  H     0.02544   0.67038   0.50663   0.00000  Uiso   1.00
H1167  H     0.05143   0.66509   0.55152   0.00000  Uiso   1.00
H1168  H     0.07388   0.66387   0.50536   0.00000  Uiso   1.00
H1169  H     0.46899   0.66210   0.46456   0.00000  Uiso   1.00
H1170  H     0.42696   0.67290   0.43840   0.00000  Uiso   1.00
H1171  H     0.42572   0.66044   0.48849   0.00000  Uiso   1.00
H1172  H     0.32999   0.52481   0.50874   0.00000  Uiso   1.00
H1173  H     0.19823   0.97186   0.90188   0.00000  Uiso   1.00
H1174  H     0.33414   0.55217   0.55284   0.00000  Uiso   1.00
H1175  H     0.33610   0.57329   0.50601   0.00000  Uiso   1.00
H1176  H     0.33609   0.96808   0.46844   0.00000  Uiso   1.00
H1177  H     0.32620   0.92739   0.43962   0.00000  Uiso   1.00
H1178  H     0.33672   0.92365   0.49010   0.00000  Uiso   1.00
H1179  H     0.08934   0.99154   0.27292   0.00000  Uiso   1.00
H1180  H     0.07258   0.94812   0.28888   0.00000  Uiso   1.00
H1181  H     0.12020   0.96071   0.29656   0.00000  Uiso   1.00
H1182  H     0.37317   0.53558   0.70756   0.00000  Uiso   1.00
H1183  H     0.40087   0.50307   0.73283   0.00000  Uiso   1.00
H1184  H     0.02791   0.80146   0.09751   0.00000  Uiso   1.00
H1185  H     0.42244   0.54108   0.70993   0.00000  Uiso   1.00
H1186  H     0.11797   0.70028   0.18578   0.00000  Uiso   1.00
H1187  H     0.14516   0.66657   0.15937   0.00000  Uiso   1.00
H1188  H     0.10531   0.68650   0.13777   0.00000  Uiso   1.00
H1189  H     0.44709   0.86945   0.85800   0.00000  Uiso   1.00
H1190  H     0.45210   0.88790   0.81020   0.00000  Uiso   1.00
H1191  H     0.41716   0.90548   0.84292   0.00000  Uiso   1.00
H1192  H     0.34540   0.54945   0.15453   0.00000  Uiso   1.00
H1193  H     0.38632   0.55833   0.18157   0.00000  Uiso   1.00
H1194  H     0.37812   0.58023   0.13527   0.00000  Uiso   1.00
H1195  H     0.02944   0.69912   0.90185   0.00000  Uiso   1.00
H1196  H     0.07059   0.94226   0.80815   0.00000  Uiso   1.00
H1197  H     0.11888   0.94664   0.81982   0.00000  Uiso   1.00
H1198  H     0.09317   0.98528   0.80318   0.00000  Uiso   1.00
H1199  H     0.36085   0.76227   0.19536   0.00000  Uiso   1.00
H1200  H     0.33998   0.80360   0.17875   0.00000  Uiso   1.00
H1201  H     0.38911   0.80109   0.18624   0.00000  Uiso   1.00
H1202  H     0.14331   0.71668   0.83394   0.00000  Uiso   1.00
H1203  H     0.09843   0.71032   0.81495   0.00000  Uiso   1.00
H1204  H     0.12440   0.67169   0.83333   0.00000  Uiso   1.00
H1205  H     0.23147   0.63681   0.81874   0.00000  Uiso   1.00
H1206  H     0.44715   0.77515   0.59716   0.00000  Uiso   1.00
H1207  H     0.18701   0.65269   0.83187   0.00000  Uiso   1.00
H1208  H     0.19463   0.60490   0.81951   0.00000  Uiso   1.00
H1209  H     0.28058   0.85029   0.17407   0.00000  Uiso   1.00
H1210  H     0.28908   0.89669   0.18767   0.00000  Uiso   1.00
H1211  H     0.32604   0.86741   0.17124   0.00000  Uiso   1.00
H1212  H     0.00947   0.91016   0.72299   0.00000  Uiso   1.00
H1213  H     0.05324   0.92653   0.70786   0.00000  Uiso   1.00
H1214  H     0.04081   0.87866   0.70109   0.00000  Uiso   1.00
H1215  H     0.43553   0.61021   0.17536   0.00000  Uiso   1.00
H1216  H     0.45071   0.65408   0.15809   0.00000  Uiso   1.00
O1217  O     0.25000   0.50000   0.25000   0.00000  Uiso   1.00
O1218  O     0.25000   0.96964   0.66317   0.00000  Uiso   1.00
O1219  O     0.30224   0.64469   0.73903   0.00000  Uiso   1.00
O1220  O     0.46964   0.75000   0.33683   0.00000  Uiso   1.00
O1221  O     0.03036   0.75000   0.66317   0.00000  Uiso   1.00
O1222  O     0.00000   0.71964   0.83683   0.00000  Uiso   1.00
O1223  O    -0.00000   0.78036   0.16317   0.00000  Uiso   1.00
O1224  O     0.28036   0.50000   0.83683   0.00000  Uiso   1.00
O1225  O     0.21964   0.50000   0.16317   0.00000  Uiso   1.00
O1226  O    -0.00000   0.78036   0.83683   0.00000  Uiso   1.00
O1227  O     0.00000   0.71964   0.16317   0.00000  Uiso   1.00
O1228  O     0.21964   0.50000   0.83683   0.00000  Uiso   1.00
O1229  O     0.25000   0.50000   0.75000   0.00000  Uiso   1.00
O1230  O     0.28036   0.50000   0.16317   0.00000  Uiso   1.00
O1231  O     0.20725   0.57307   0.27282   0.00000  Uiso   1.00
O1232  O     0.29274   0.92693   0.72718   0.00000  Uiso   1.00
O1233  O     0.42693   0.70726   0.27282   0.00000  Uiso   1.00
O1234  O     0.07307   0.79275   0.72718   0.00000  Uiso   1.00
O1235  O     0.29274   0.92693   0.27282   0.00000  Uiso   1.00
O1236  O     0.20725   0.57307   0.72718   0.00000  Uiso   1.00
O1237  O     0.07307   0.79275   0.27282   0.00000  Uiso   1.00
O1238  O     0.42693   0.70726   0.72718   0.00000  Uiso   1.00
O1239  O     0.20725   0.92693   0.72718   0.00000  Uiso   1.00
O1240  O     0.00000   0.75000   0.25000   0.00000  Uiso   1.00
O1241  O     0.29274   0.57307   0.27282   0.00000  Uiso   1.00
O1242  O     0.42693   0.79275   0.72718   0.00000  Uiso   1.00
O1243  O     0.07307   0.70726   0.27282   0.00000  Uiso   1.00
O1244  O     0.29274   0.57307   0.72718   0.00000  Uiso   1.00
O1245  O     0.20725   0.92693   0.27282   0.00000  Uiso   1.00
O1246  O     0.07307   0.70726   0.72718   0.00000  Uiso   1.00
O1247  O     0.42693   0.79275   0.27282   0.00000  Uiso   1.00
O1248  O     0.45725   0.82307   0.77282   0.00000  Uiso   1.00
O1249  O     0.04274   0.67693   0.22718   0.00000  Uiso   1.00
O1250  O     0.17693   0.95726   0.77282   0.00000  Uiso   1.00
O1251  O     0.00000   0.75000   0.75000   0.00000  Uiso   1.00
O1252  O     0.32307   0.54275   0.22718   0.00000  Uiso   1.00
O1253  O     0.04274   0.67693   0.77282   0.00000  Uiso   1.00
O1254  O     0.45725   0.82307   0.22718   0.00000  Uiso   1.00
O1255  O     0.32307   0.54275   0.77282   0.00000  Uiso   1.00
O1256  O     0.17693   0.95726   0.22718   0.00000  Uiso   1.00
O1257  O     0.45725   0.67693   0.22718   0.00000  Uiso   1.00
O1258  O     0.04274   0.82307   0.77282   0.00000  Uiso   1.00
O1259  O     0.17693   0.54275   0.22718   0.00000  Uiso   1.00
O1260  O     0.32307   0.95726   0.77282   0.00000  Uiso   1.00
O1261  O     0.04274   0.82307   0.22718   0.00000  Uiso   1.00
O1262  O     0.25000   0.96964   0.33683   0.00000  Uiso   1.00
O1263  O     0.45725   0.67693   0.77282   0.00000  Uiso   1.00
O1264  O     0.32307   0.95726   0.22718   0.00000  Uiso   1.00
O1265  O     0.17693   0.54275   0.77282   0.00000  Uiso   1.00
O1266  O     0.19112   0.52931   0.02213   0.00000  Uiso   1.00
O1267  O     0.30884   0.52926   0.97787   0.00000  Uiso   1.00
O1268  O     0.46624   0.69302   0.02079   0.00000  Uiso   1.00
O1269  O     0.46464   0.80580   0.97806   0.00000  Uiso   1.00
O1270  O     0.30690   0.96480   0.02172   0.00000  Uiso   1.00
O1271  O     0.19290   0.96525   0.97731   0.00000  Uiso   1.00
O1272  O     0.03311   0.80670   0.02188   0.00000  Uiso   1.00
O1273  O     0.25000   0.53036   0.66317   0.00000  Uiso   1.00
O1274  O     0.03527   0.69394   0.97912   0.00000  Uiso   1.00
O1275  O     0.44021   0.77705   0.52189   0.00000  Uiso   1.00
O1276  O     0.05794   0.77943   0.47821   0.00000  Uiso   1.00
O1277  O     0.22096   0.94119   0.52200   0.00000  Uiso   1.00
O1278  O     0.22110   0.55918   0.47790   0.00000  Uiso   1.00
O1279  O     0.05752   0.71494   0.52284   0.00000  Uiso   1.00
O1280  O     0.44403   0.71240   0.47792   0.00000  Uiso   1.00
O1281  O     0.28492   0.55730   0.52280   0.00000  Uiso   1.00
O1282  O     0.28537   0.94312   0.47825   0.00000  Uiso   1.00
O1283  O     0.10558   0.94804   0.23949   0.00000  Uiso   1.00
O1284  O     0.03036   0.75000   0.33683   0.00000  Uiso   1.00
O1285  O     0.39481   0.55188   0.76146   0.00000  Uiso   1.00
O1286  O     0.09477   0.64843   0.17993   0.00000  Uiso   1.00
O1287  O     0.40718   0.85368   0.81980   0.00000  Uiso   1.00
O1288  O     0.34581   0.60058   0.17942   0.00000  Uiso   1.00
O1289  O     0.10546   0.94798   0.76065   0.00000  Uiso   1.00
O1290  O     0.35628   0.80254   0.23651   0.00000  Uiso   1.00
O1291  O     0.14128   0.69411   0.77937   0.00000  Uiso   1.00
O1292  O     0.19585   0.64233   0.77323   0.00000  Uiso   1.00
O1293  O     0.30469   0.85698   0.22755   0.00000  Uiso   1.00
O1294  O     0.05197   0.89465   0.75810   0.00000  Uiso   1.00
O1295  O     0.46964   0.75000   0.66317   0.00000  Uiso   1.00
O1296  O     0.39811   0.65515   0.17936   0.00000  Uiso   1.00
O1297  O     0.35092   0.90464   0.82014   0.00000  Uiso   1.00
O1298  O     0.14577   0.59223   0.18032   0.00000  Uiso   1.00
O1299  O     0.44807   0.60383   0.75768   0.00000  Uiso   1.00
O1300  O     0.05237   0.89455   0.23682   0.00000  Uiso   1.00
O1301  O     0.35553   0.69816   0.74178   0.00000  Uiso   1.00
O1302  O     0.14434   0.80235   0.26454   0.00000  Uiso   1.00
O1303  O     0.34532   0.89900   0.67986   0.00000  Uiso   1.00
O1304  O     0.15772   0.60423   0.31973   0.00000  Uiso   1.00
O1305  O     0.14600   0.80176   0.74259   0.00000  Uiso   1.00
O1306  O     0.25000   0.53036   0.33683   0.00000  Uiso   1.00
O1307  O     0.40319   0.65071   0.31959   0.00000  Uiso   1.00
O1308  O     0.10783   0.55397   0.72676   0.00000  Uiso   1.00
O1309  O     0.39486   0.94778   0.26473   0.00000  Uiso   1.00
O1310  O     0.44809   0.89472   0.26172   0.00000  Uiso   1.00
O1311  O     0.05595   0.60847   0.72087   0.00000  Uiso   1.00
O1312  O     0.34791   0.59876   0.31977   0.00000  Uiso   1.00
O1313  O     0.19794   0.85502   0.73859   0.00000  Uiso   1.00
O1314  O     0.10164   0.65537   0.32009   0.00000  Uiso   1.00
O1315  O     0.39640   0.84282   0.68020   0.00000  Uiso   1.00
O1316  O     0.19752   0.85418   0.26106   0.00000  Uiso   1.00
Zn1317 Zn    0.20660   0.50000   0.21760   0.00000  Uiso   1.00
Zn1318 Zn    0.04340   0.75000   0.28240   0.00000  Uiso   1.00
Zn1319 Zn    0.25000   0.95660   0.71760   0.00000  Uiso   1.00
Zn1320 Zn    0.25000   0.54340   0.28240   0.00000  Uiso   1.00
Zn1321 Zn    0.04340   0.75000   0.71760   0.00000  Uiso   1.00
Zn1322 Zn    0.45660   0.75000   0.28240   0.00000  Uiso   1.00
Zn1323 Zn    0.25000   0.54340   0.71760   0.00000  Uiso   1.00
Zn1324 Zn    0.25000   0.95660   0.28240   0.00000  Uiso   1.00
Zn1325 Zn    0.29340   0.50000   0.78240   0.00000  Uiso   1.00
Zn1326 Zn   -0.00000   0.70660   0.21760   0.00000  Uiso   1.00
Zn1327 Zn    0.00000   0.79340   0.78240   0.00000  Uiso   1.00
Zn1328 Zn    0.29340   0.50000   0.21760   0.00000  Uiso   1.00
Zn1329 Zn    0.20660   0.50000   0.78240   0.00000  Uiso   1.00
Zn1330 Zn    0.00000   0.79340   0.21760   0.00000  Uiso   1.00
Zn1331 Zn   -0.00000   0.70660   0.78240   0.00000  Uiso   1.00
Zn1332 Zn    0.45660   0.75000   0.71760   0.00000  Uiso   1.00
C1333  C     0.72075   0.51477   0.04160   0.00000  Uiso   1.00
C1334  C     0.52871   0.76442   0.45859   0.00000  Uiso   1.00
C1335  C     0.84797   0.90196   0.74999   0.00000  Uiso   1.00
C1336  C     0.90210   0.65177   0.24941   0.00000  Uiso   1.00
C1337  C     0.59837   0.84782   0.75082   0.00000  Uiso   1.00
C1338  C     0.84839   0.90221   0.24990   0.00000  Uiso   1.00
C1339  C     0.65199   0.59802   0.74995   0.00000  Uiso   1.00
C1340  C     0.59807   0.65188   0.75005   0.00000  Uiso   1.00
C1341  C     0.90224   0.84831   0.25016   0.00000  Uiso   1.00
C1342  C     0.65200   0.90178   0.75077   0.00000  Uiso   1.00
C1343  C     0.84811   0.59823   0.24962   0.00000  Uiso   1.00
C1344  C     0.90186   0.84821   0.75000   0.00000  Uiso   1.00
C1345  C     0.73538   0.97085   0.54147   0.00000  Uiso   1.00
C1346  C     0.59799   0.65198   0.25001   0.00000  Uiso   1.00
C1347  C     0.84824   0.59798   0.74910   0.00000  Uiso   1.00
C1348  C     0.65206   0.90171   0.24956   0.00000  Uiso   1.00
C1349  C     0.74995   0.99939   0.10249   0.00000  Uiso   1.00
C1350  C     0.75003   0.99949   0.89752   0.00000  Uiso   1.00
C1351  C     0.99978   0.74993   0.10243   0.00000  Uiso   1.00
C1352  C     0.50016   0.75001   0.89755   0.00000  Uiso   1.00
C1353  C     0.99990   0.74913   0.60246   0.00000  Uiso   1.00
C1354  C     0.50003   0.74893   0.39750   0.00000  Uiso   1.00
C1355  C     0.75061   0.99999   0.60247   0.00000  Uiso   1.00
C1356  C     0.73555   0.52945   0.45841   0.00000  Uiso   1.00
C1357  C     0.75074   0.50011   0.39752   0.00000  Uiso   1.00
C1358  C     0.69688   0.56697   0.01659   0.00000  Uiso   1.00
C1359  C     0.80219   0.56655   0.98520   0.00000  Uiso   1.00
C1360  C     0.92995   0.68761   0.03310   0.00000  Uiso   1.00
C1361  C     0.92706   0.79800   0.97934   0.00000  Uiso   1.00
C1362  C     0.80939   0.92755   0.03194   0.00000  Uiso   1.00
C1363  C     0.69914   0.92724   0.97749   0.00000  Uiso   1.00
C1364  C     0.57100   0.80024   0.02090   0.00000  Uiso   1.00
C1365  C     0.57204   0.69030   0.96760   0.00000  Uiso   1.00
C1366  C     0.94505   0.81481   0.51606   0.00000  Uiso   1.00
C1367  C     0.52873   0.73132   0.54207   0.00000  Uiso   1.00
C1368  C     0.55076   0.81673   0.48493   0.00000  Uiso   1.00
C1369  C     0.68370   0.94782   0.51486   0.00000  Uiso   1.00
C1370  C     0.68347   0.55354   0.48334   0.00000  Uiso   1.00
C1371  C     0.55139   0.67697   0.52182   0.00000  Uiso   1.00
C1372  C     0.94170   0.67547   0.46640   0.00000  Uiso   1.00
C1373  C     0.82288   0.55122   0.52289   0.00000  Uiso   1.00
C1374  C     0.82262   0.94085   0.46824   0.00000  Uiso   1.00
C1375  C     0.59662   0.96228   0.27628   0.00000  Uiso   1.00
C1376  C     0.89780   0.53256   0.72616   0.00000  Uiso   1.00
C1377  C     0.61707   0.67662   0.16550   0.00000  Uiso   1.00
C1378  C     0.97181   0.72976   0.45787   0.00000  Uiso   1.00
C1379  C     0.93178   0.88059   0.83288   0.00000  Uiso   1.00
C1380  C     0.86516   0.57106   0.16255   0.00000  Uiso   1.00
C1381  C     0.59670   0.95535   0.79973   0.00000  Uiso   1.00
C1382  C     0.86199   0.79250   0.19746   0.00000  Uiso   1.00
C1383  C     0.62597   0.69783   0.81683   0.00000  Uiso   1.00
C1384  C     0.70197   0.63362   0.81254   0.00000  Uiso   1.00
C1385  C     0.80040   0.86855   0.18862   0.00000  Uiso   1.00
C1386  C     0.53874   0.90277   0.72068   0.00000  Uiso   1.00
C1387  C     0.92669   0.63594   0.16070   0.00000  Uiso   1.00
C1388  C     0.82271   0.88212   0.83408   0.00000  Uiso   1.00
C1389  C     0.76832   0.52875   0.54208   0.00000  Uiso   1.00
C1390  C     0.61886   0.56741   0.16775   0.00000  Uiso   1.00
C1391  C     0.96566   0.60461   0.72124   0.00000  Uiso   1.00
C1392  C     0.54606   0.90226   0.19729   0.00000  Uiso   1.00
C1393  C     0.84740   0.71147   0.77917   0.00000  Uiso   1.00
C1394  C     0.64808   0.78191   0.23002   0.00000  Uiso   1.00
C1395  C     0.86772   0.92731   0.66588   0.00000  Uiso   1.00
C1396  C     0.68247   0.63119   0.33236   0.00000  Uiso   1.00
C1397  C     0.64512   0.78428   0.77910   0.00000  Uiso   1.00
C1398  C     0.93225   0.62770   0.33076   0.00000  Uiso   1.00
C1399  C     0.61653   0.54784   0.68745   0.00000  Uiso   1.00
C1400  C     0.76886   0.97147   0.45810   0.00000  Uiso   1.00
C1401  C     0.88361   0.95891   0.30214   0.00000  Uiso   1.00
C1402  C     0.95829   0.89062   0.30091   0.00000  Uiso   1.00
C1403  C     0.55205   0.62375   0.68342   0.00000  Uiso   1.00
C1404  C     0.82401   0.62458   0.33660   0.00000  Uiso   1.00
C1405  C     0.71718   0.85201   0.77391   0.00000  Uiso   1.00
C1406  C     0.57367   0.63295   0.33476   0.00000  Uiso   1.00
C1407  C     0.86960   0.81812   0.66709   0.00000  Uiso   1.00
C1408  C     0.71566   0.85278   0.22498   0.00000  Uiso   1.00
C1409  C     0.79503   0.65337   0.69990   0.00000  Uiso   1.00
C1410  C     0.72053   0.51426   0.08202   0.00000  Uiso   1.00
C1411  C     0.77937   0.51438   0.91803   0.00000  Uiso   1.00
C1412  C     0.98386   0.72088   0.08222   0.00000  Uiso   1.00
C1413  C     0.77919   0.51483   0.95847   0.00000  Uiso   1.00
C1414  C     0.98338   0.77852   0.91789   0.00000  Uiso   1.00
C1415  C     0.77914   0.98351   0.08246   0.00000  Uiso   1.00
C1416  C     0.72092   0.98371   0.91756   0.00000  Uiso   1.00
C1417  C     0.51555   0.77888   0.08208   0.00000  Uiso   1.00
C1418  C     0.51696   0.72138   0.91775   0.00000  Uiso   1.00
C1419  C     0.97017   0.76335   0.58190   0.00000  Uiso   1.00
C1420  C     0.52902   0.76421   0.41817   0.00000  Uiso   1.00
C1421  C     0.73577   0.97063   0.58191   0.00000  Uiso   1.00
C1422  C     0.73599   0.52964   0.41799   0.00000  Uiso   1.00
C1423  C     0.52926   0.73352   0.58246   0.00000  Uiso   1.00
C1424  C     0.98236   0.72121   0.04155   0.00000  Uiso   1.00
C1425  C     0.97130   0.73222   0.41731   0.00000  Uiso   1.00
C1426  C     0.76641   0.52917   0.58250   0.00000  Uiso   1.00
C1427  C     0.76664   0.97090   0.41755   0.00000  Uiso   1.00
C1428  C     0.74984   0.99812   0.02136   0.00000  Uiso   1.00
C1429  C     0.75016   0.99824   0.97869   0.00000  Uiso   1.00
C1430  C     0.99973   0.74967   0.02131   0.00000  Uiso   1.00
C1431  C     0.99990   0.74967   0.97866   0.00000  Uiso   1.00
C1432  C     0.99956   0.74709   0.52130   0.00000  Uiso   1.00
C1433  C     0.50002   0.74708   0.47862   0.00000  Uiso   1.00
C1434  C     0.75198   0.99994   0.52131   0.00000  Uiso   1.00
C1435  C     0.98204   0.77788   0.95832   0.00000  Uiso   1.00
C1436  C     0.75215   0.50030   0.47865   0.00000  Uiso   1.00
C1437  C     0.75006   0.50002   0.35521   0.00000  Uiso   1.00
C1438  C     0.75005   0.99999   0.64479   0.00000  Uiso   1.00
C1439  C     0.50001   0.74989   0.35518   0.00000  Uiso   1.00
C1440  C     0.99998   0.74992   0.64480   0.00000  Uiso   1.00
C1441  C     0.50003   0.75001   0.85521   0.00000  Uiso   1.00
C1442  C     0.99998   0.74998   0.14478   0.00000  Uiso   1.00
C1443  C     0.75001   0.99997   0.85519   0.00000  Uiso   1.00
C1444  C     0.74999   0.99997   0.14482   0.00000  Uiso   1.00
C1445  C     0.67994   0.57006   0.25002   0.00000  Uiso   1.00
C1446  C     0.77860   0.98134   0.04190   0.00000  Uiso   1.00
C1447  C     0.81998   0.92999   0.75000   0.00000  Uiso   1.00
C1448  C     0.92981   0.68013   0.24961   0.00000  Uiso   1.00
C1449  C     0.57008   0.82000   0.75012   0.00000  Uiso   1.00
C1450  C     0.82006   0.93003   0.24998   0.00000  Uiso   1.00
C1451  C     0.68002   0.56999   0.74998   0.00000  Uiso   1.00
C1452  C     0.56985   0.82023   0.25017   0.00000  Uiso   1.00
C1453  C     0.93001   0.67991   0.74992   0.00000  Uiso   1.00
C1454  C     0.67980   0.93010   0.74983   0.00000  Uiso   1.00
C1455  C     0.81996   0.57017   0.24983   0.00000  Uiso   1.00
C1456  C     0.92995   0.82007   0.75001   0.00000  Uiso   1.00
C1457  C     0.72138   0.98186   0.95797   0.00000  Uiso   1.00
C1458  C     0.56999   0.67999   0.25000   0.00000  Uiso   1.00
C1459  C     0.81990   0.57020   0.75011   0.00000  Uiso   1.00
C1460  C     0.67997   0.92993   0.24999   0.00000  Uiso   1.00
C1461  C     0.57001   0.67997   0.75002   0.00000  Uiso   1.00
C1462  C     0.93017   0.82015   0.25018   0.00000  Uiso   1.00
C1463  C     0.61538   0.91172   0.24378   0.00000  Uiso   1.00
C1464  C     0.88506   0.58777   0.75385   0.00000  Uiso   1.00
C1465  C     0.60927   0.63643   0.21473   0.00000  Uiso   1.00
C1466  C     0.89185   0.86511   0.78514   0.00000  Uiso   1.00
C1467  C     0.86205   0.61094   0.21399   0.00000  Uiso   1.00
C1468  C     0.51674   0.77832   0.04165   0.00000  Uiso   1.00
C1469  C     0.61531   0.91157   0.75718   0.00000  Uiso   1.00
C1470  C     0.86602   0.83875   0.24169   0.00000  Uiso   1.00
C1471  C     0.63303   0.65995   0.76465   0.00000  Uiso   1.00
C1472  C     0.66039   0.63326   0.76340   0.00000  Uiso   1.00
C1473  C     0.83933   0.86601   0.24009   0.00000  Uiso   1.00
C1474  C     0.58831   0.88471   0.75515   0.00000  Uiso   1.00
C1475  C     0.88882   0.63820   0.21389   0.00000  Uiso   1.00
C1476  C     0.86323   0.89043   0.78532   0.00000  Uiso   1.00
C1477  C     0.63464   0.60785   0.21495   0.00000  Uiso   1.00
C1478  C     0.91209   0.61453   0.75324   0.00000  Uiso   1.00
C1479  C     0.51828   0.72171   0.95842   0.00000  Uiso   1.00
C1480  C     0.58859   0.88468   0.24164   0.00000  Uiso   1.00
C1481  C     0.86540   0.66175   0.74478   0.00000  Uiso   1.00
C1482  C     0.63477   0.83801   0.25555   0.00000  Uiso   1.00
C1483  C     0.85954   0.88672   0.71467   0.00000  Uiso   1.00
C1484  C     0.64215   0.61540   0.28510   0.00000  Uiso   1.00
C1485  C     0.63537   0.83784   0.74686   0.00000  Uiso   1.00
C1486  C     0.88916   0.63805   0.28486   0.00000  Uiso   1.00
C1487  C     0.61681   0.58951   0.73658   0.00000  Uiso   1.00
C1488  C     0.88477   0.91183   0.25826   0.00000  Uiso   1.00
C1489  C     0.91189   0.88486   0.25751   0.00000  Uiso   1.00
C1490  C     0.97021   0.76337   0.54144   0.00000  Uiso   1.00
C1491  C     0.59008   0.61684   0.73544   0.00000  Uiso   1.00
C1492  C     0.86082   0.61251   0.28501   0.00000  Uiso   1.00
C1493  C     0.66213   0.86486   0.74615   0.00000  Uiso   1.00
C1494  C     0.61357   0.64076   0.28531   0.00000  Uiso   1.00
C1495  C     0.88494   0.85815   0.71486   0.00000  Uiso   1.00
C1496  C     0.66174   0.86476   0.25514   0.00000  Uiso   1.00
C1497  C     0.83855   0.63475   0.74265   0.00000  Uiso   1.00
C1498  C     0.59811   0.84806   0.24931   0.00000  Uiso   1.00
C1499  C     0.90220   0.65161   0.74925   0.00000  Uiso   1.00
C1500  C     0.65184   0.59819   0.25002   0.00000  Uiso   1.00
H1501  H     0.69768   0.52634   0.09734   0.00000  Uiso   1.00
H1502  H     0.55156   0.77686   0.40302   0.00000  Uiso   1.00
H1503  H     0.91807   0.62926   0.13071   0.00000  Uiso   1.00
H1504  H     0.79926   0.88139   0.81360   0.00000  Uiso   1.00
H1505  H     0.83274   0.85393   0.83996   0.00000  Uiso   1.00
H1506  H     0.81264   0.89360   0.86187   0.00000  Uiso   1.00
H1507  H     0.62981   0.55184   0.14270   0.00000  Uiso   1.00
H1508  H     0.61176   0.54726   0.19071   0.00000  Uiso   1.00
H1509  H     0.59391   0.58191   0.15776   0.00000  Uiso   1.00
H1510  H     0.98719   0.58329   0.72111   0.00000  Uiso   1.00
H1511  H     0.97894   0.63145   0.71682   0.00000  Uiso   1.00
H1512  H     0.94730   0.59887   0.69618   0.00000  Uiso   1.00
H1513  H     0.72372   0.94779   0.59716   0.00000  Uiso   1.00
H1514  H     0.55953   0.92807   0.18842   0.00000  Uiso   1.00
H1515  H     0.55509   0.87942   0.17818   0.00000  Uiso   1.00
H1516  H     0.51630   0.90589   0.19290   0.00000  Uiso   1.00
H1517  H     0.84005   0.74080   0.77682   0.00000  Uiso   1.00
H1518  H     0.82365   0.69698   0.79197   0.00000  Uiso   1.00
H1519  H     0.87143   0.70939   0.79880   0.00000  Uiso   1.00
H1520  H     0.62522   0.78633   0.20927   0.00000  Uiso   1.00
H1521  H     0.64824   0.75247   0.23760   0.00000  Uiso   1.00
H1522  H     0.67445   0.78797   0.21574   0.00000  Uiso   1.00
H1523  H     0.86840   0.95082   0.68636   0.00000  Uiso   1.00
H1524  H     0.72395   0.55254   0.40268   0.00000  Uiso   1.00
H1525  H     0.89588   0.91733   0.65999   0.00000  Uiso   1.00
H1526  H     0.85622   0.93736   0.63811   0.00000  Uiso   1.00
H1527  H     0.69800   0.62020   0.35741   0.00000  Uiso   1.00
H1528  H     0.70260   0.63834   0.30943   0.00000  Uiso   1.00
H1529  H     0.66797   0.65616   0.34237   0.00000  Uiso   1.00
H1530  H     0.66642   0.76274   0.77940   0.00000  Uiso   1.00
H1531  H     0.61832   0.77098   0.78349   0.00000  Uiso   1.00
H1532  H     0.65077   0.80278   0.80410   0.00000  Uiso   1.00
H1533  H     0.92274   0.59926   0.33585   0.00000  Uiso   1.00
H1534  H     0.95458   0.62792   0.30891   0.00000  Uiso   1.00
H1535  H     0.55221   0.72207   0.59815   0.00000  Uiso   1.00
H1536  H     0.94370   0.63803   0.35844   0.00000  Uiso   1.00
H1537  H     0.61328   0.51830   0.68121   0.00000  Uiso   1.00
H1538  H     0.59755   0.56290   0.66812   0.00000  Uiso   1.00
H1539  H     0.64523   0.55513   0.68052   0.00000  Uiso   1.00
H1540  H     0.90310   0.97968   0.31294   0.00000  Uiso   1.00
H1541  H     0.85639   0.97215   0.30071   0.00000  Uiso   1.00
H1542  H     0.88310   0.93631   0.32382   0.00000  Uiso   1.00
H1543  H     0.98779   0.89671   0.30358   0.00000  Uiso   1.00
H1544  H     0.94338   0.91022   0.31974   0.00000  Uiso   1.00
H1545  H     0.95412   0.86221   0.31142   0.00000  Uiso   1.00
H1546  H     0.94882   0.72055   0.40121   0.00000  Uiso   1.00
H1547  H     0.53325   0.60629   0.66640   0.00000  Uiso   1.00
H1548  H     0.53947   0.65130   0.68533   0.00000  Uiso   1.00
H1549  H     0.57809   0.62543   0.66680   0.00000  Uiso   1.00
H1550  H     0.81013   0.61157   0.36157   0.00000  Uiso   1.00
H1551  H     0.83913   0.64860   0.34785   0.00000  Uiso   1.00
H1552  H     0.80244   0.63364   0.31594   0.00000  Uiso   1.00
H1553  H     0.71416   0.87669   0.79251   0.00000  Uiso   1.00
H1554  H     0.74663   0.84892   0.76729   0.00000  Uiso   1.00
H1555  H     0.70864   0.82734   0.79013   0.00000  Uiso   1.00
H1556  H     0.55000   0.63182   0.31458   0.00000  Uiso   1.00
H1557  H     0.77821   0.55189   0.59822   0.00000  Uiso   1.00
H1558  H     0.58388   0.60489   0.34099   0.00000  Uiso   1.00
H1559  H     0.56385   0.64481   0.36247   0.00000  Uiso   1.00
H1560  H     0.88080   0.80275   0.64203   0.00000  Uiso   1.00
H1561  H     0.86226   0.79779   0.68979   0.00000  Uiso   1.00
H1562  H     0.84477   0.83272   0.65695   0.00000  Uiso   1.00
H1563  H     0.73706   0.83141   0.22668   0.00000  Uiso   1.00
H1564  H     0.72896   0.87935   0.21906   0.00000  Uiso   1.00
H1565  H     0.69772   0.84563   0.19999   0.00000  Uiso   1.00
H1566  H     0.80826   0.67942   0.69141   0.00000  Uiso   1.00
H1567  H     0.80365   0.63102   0.67993   0.00000  Uiso   1.00
H1568  H     0.77789   0.94798   0.40166   0.00000  Uiso   1.00
H1569  H     0.76518   0.65706   0.69636   0.00000  Uiso   1.00
H1570  H     0.71845   0.57162   0.99457   0.00000  Uiso   1.00
H1571  H     0.70363   0.58128   0.04419   0.00000  Uiso   1.00
H1572  H     0.67135   0.57928   0.00525   0.00000  Uiso   1.00
H1573  H     0.80215   0.52642   0.90273   0.00000  Uiso   1.00
H1574  H     0.78145   0.56990   0.00839   0.00000  Uiso   1.00
H1575  H     0.79386   0.58163   0.95856   0.00000  Uiso   1.00
H1576  H     0.82779   0.57911   0.99585   0.00000  Uiso   1.00
H1577  H     0.91505   0.71384   0.03771   0.00000  Uiso   1.00
H1578  H     0.92918   0.67060   0.05973   0.00000  Uiso   1.00
H1579  H     0.91523   0.67242   0.01011   0.00000  Uiso   1.00
H1580  H     0.92176   0.77151   0.99410   0.00000  Uiso   1.00
H1581  H     0.91489   0.79799   0.94978   0.00000  Uiso   1.00
H1582  H     0.91320   0.81969   0.99636   0.00000  Uiso   1.00
H1583  H     0.78226   0.91395   0.03214   0.00000  Uiso   1.00
H1584  H     0.97220   0.69829   0.09814   0.00000  Uiso   1.00
H1585  H     0.82313   0.92417   0.06042   0.00000  Uiso   1.00
H1586  H     0.82639   0.91337   0.00997   0.00000  Uiso   1.00
H1587  H     0.72546   0.92033   0.99185   0.00000  Uiso   1.00
H1588  H     0.69841   0.91578   0.94761   0.00000  Uiso   1.00
H1589  H     0.67708   0.91399   0.99433   0.00000  Uiso   1.00
H1590  H     0.57749   0.77380   0.00647   0.00000  Uiso   1.00
H1591  H     0.58300   0.80098   0.05053   0.00000  Uiso   1.00
H1592  H     0.58403   0.82222   0.00373   0.00000  Uiso   1.00
H1593  H     0.58575   0.71721   0.96403   0.00000  Uiso   1.00
H1594  H     0.57420   0.67396   0.94056   0.00000  Uiso   1.00
H1595  H     0.97031   0.80077   0.90244   0.00000  Uiso   1.00
H1596  H     0.58697   0.67522   0.99057   0.00000  Uiso   1.00
H1597  H     0.96651   0.81983   0.49400   0.00000  Uiso   1.00
H1598  H     0.95143   0.82947   0.54354   0.00000  Uiso   1.00
H1599  H     0.91923   0.82641   0.50461   0.00000  Uiso   1.00
H1600  H     0.52950   0.82012   0.50757   0.00000  Uiso   1.00
H1601  H     0.54285   0.83143   0.45791   0.00000  Uiso   1.00
H1602  H     0.57601   0.82966   0.49602   0.00000  Uiso   1.00
H1603  H     0.68023   0.96874   0.49184   0.00000  Uiso   1.00
H1604  H     0.66872   0.95597   0.54163   0.00000  Uiso   1.00
H1605  H     0.67119   0.92221   0.50408   0.00000  Uiso   1.00
H1606  H     0.80200   0.97222   0.09836   0.00000  Uiso   1.00
H1607  H     0.67870   0.53188   0.50527   0.00000  Uiso   1.00
H1608  H     0.66922   0.54691   0.45568   0.00000  Uiso   1.00
H1609  H     0.67126   0.57913   0.49474   0.00000  Uiso   1.00
H1610  H     0.52544   0.67038   0.50663   0.00000  Uiso   1.00
H1611  H     0.55143   0.66509   0.55152   0.00000  Uiso   1.00
H1612  H     0.57388   0.66387   0.50536   0.00000  Uiso   1.00
H1613  H     0.96899   0.66210   0.46456   0.00000  Uiso   1.00
H1614  H     0.92696   0.67290   0.43840   0.00000  Uiso   1.00
H1615  H     0.92572   0.66044   0.48849   0.00000  Uiso   1.00
H1616  H     0.82999   0.52481   0.50874   0.00000  Uiso   1.00
H1617  H     0.69823   0.97186   0.90188   0.00000  Uiso   1.00
H1618  H     0.83414   0.55217   0.55284   0.00000  Uiso   1.00
H1619  H     0.83610   0.57329   0.50601   0.00000  Uiso   1.00
H1620  H     0.83609   0.96808   0.46844   0.00000  Uiso   1.00
H1621  H     0.82620   0.92739   0.43962   0.00000  Uiso   1.00
H1622  H     0.83672   0.92365   0.49010   0.00000  Uiso   1.00
H1623  H     0.58934   0.99154   0.27292   0.00000  Uiso   1.00
H1624  H     0.57258   0.94812   0.28888   0.00000  Uiso   1.00
H1625  H     0.62020   0.96071   0.29656   0.00000  Uiso   1.00
H1626  H     0.87317   0.53558   0.70756   0.00000  Uiso   1.00
H1627  H     0.90087   0.50307   0.73283   0.00000  Uiso   1.00
H1628  H     0.52791   0.80146   0.09751   0.00000  Uiso   1.00
H1629  H     0.92244   0.54108   0.70993   0.00000  Uiso   1.00
H1630  H     0.61797   0.70028   0.18578   0.00000  Uiso   1.00
H1631  H     0.64516   0.66657   0.15937   0.00000  Uiso   1.00
H1632  H     0.60531   0.68650   0.13777   0.00000  Uiso   1.00
H1633  H     0.94709   0.86945   0.85800   0.00000  Uiso   1.00
H1634  H     0.95210   0.88790   0.81020   0.00000  Uiso   1.00
H1635  H     0.91716   0.90548   0.84292   0.00000  Uiso   1.00
H1636  H     0.84540   0.54945   0.15453   0.00000  Uiso   1.00
H1637  H     0.88632   0.55833   0.18157   0.00000  Uiso   1.00
H1638  H     0.87812   0.58023   0.13527   0.00000  Uiso   1.00
H1639  H     0.52944   0.69912   0.90185   0.00000  Uiso   1.00
H1640  H     0.57059   0.94226   0.80815   0.00000  Uiso   1.00
H1641  H     0.61888   0.94664   0.81982   0.00000  Uiso   1.00
H1642  H     0.59317   0.98528   0.80318   0.00000  Uiso   1.00
H1643  H     0.86085   0.76227   0.19536   0.00000  Uiso   1.00
H1644  H     0.83998   0.80360   0.17875   0.00000  Uiso   1.00
H1645  H     0.88911   0.80109   0.18624   0.00000  Uiso   1.00
H1646  H     0.64331   0.71668   0.83394   0.00000  Uiso   1.00
H1647  H     0.59843   0.71032   0.81495   0.00000  Uiso   1.00
H1648  H     0.62440   0.67169   0.83333   0.00000  Uiso   1.00
H1649  H     0.73147   0.63681   0.81874   0.00000  Uiso   1.00
H1650  H     0.94715   0.77515   0.59716   0.00000  Uiso   1.00
H1651  H     0.68701   0.65269   0.83187   0.00000  Uiso   1.00
H1652  H     0.69463   0.60490   0.81951   0.00000  Uiso   1.00
H1653  H     0.78058   0.85029   0.17407   0.00000  Uiso   1.00
H1654  H     0.78908   0.89669   0.18767   0.00000  Uiso   1.00
H1655  H     0.82604   0.86741   0.17124   0.00000  Uiso   1.00
H1656  H     0.50947   0.91016   0.72299   0.00000  Uiso   1.00
H1657  H     0.55324   0.92653   0.70786   0.00000  Uiso   1.00
H1658  H     0.54081   0.87866   0.70109   0.00000  Uiso   1.00
H1659  H     0.93553   0.61021   0.17536   0.00000  Uiso   1.00
H1660  H     0.95071   0.65408   0.15809   0.00000  Uiso   1.00
O1661  O     0.75000   0.50000   0.25000   0.00000  Uiso   1.00
O1662  O     0.75000   0.96964   0.66317   0.00000  Uiso   1.00
O1663  O     0.80224   0.64469   0.73903   0.00000  Uiso   1.00
O1664  O     0.96964   0.75000   0.33683   0.00000  Uiso   1.00
O1665  O     0.53036   0.75000   0.66317   0.00000  Uiso   1.00
O1666  O     0.50000   0.71964   0.83683   0.00000  Uiso   1.00
O1667  O     0.50000   0.78036   0.16317   0.00000  Uiso   1.00
O1668  O     0.78036   0.50000   0.83683   0.00000  Uiso   1.00
O1669  O     0.71964   0.50000   0.16317   0.00000  Uiso   1.00
O1670  O     0.50000   0.78036   0.83683   0.00000  Uiso   1.00
O1671  O     0.50000   0.71964   0.16317   0.00000  Uiso   1.00
O1672  O     0.71964   0.50000   0.83683   0.00000  Uiso   1.00
O1673  O     0.75000   0.50000   0.75000   0.00000  Uiso   1.00
O1674  O     0.78036   0.50000   0.16317   0.00000  Uiso   1.00
O1675  O     0.70725   0.57307   0.27282   0.00000  Uiso   1.00
O1676  O     0.79274   0.92693   0.72718   0.00000  Uiso   1.00
O1677  O     0.92693   0.70726   0.27282   0.00000  Uiso   1.00
O1678  O     0.57307   0.79275   0.72718   0.00000  Uiso   1.00
O1679  O     0.79274   0.92693   0.27282   0.00000  Uiso   1.00
O1680  O     0.70725   0.57307   0.72718   0.00000  Uiso   1.00
O1681  O     0.57307   0.79275   0.27282   0.00000  Uiso   1.00
O1682  O     0.92693   0.70726   0.72718   0.00000  Uiso   1.00
O1683  O     0.70725   0.92693   0.72718   0.00000  Uiso   1.00
O1684  O     0.50000   0.75000   0.25000   0.00000  Uiso   1.00
O1685  O     0.79274   0.57307   0.27282   0.00000  Uiso   1.00
O1686  O     0.92693   0.79275   0.72718   0.00000  Uiso   1.00
O1687  O     0.57307   0.70726   0.27282   0.00000  Uiso   1.00
O1688  O     0.79274   0.57307   0.72718   0.00000  Uiso   1.00
O1689  O     0.70725   0.92693   0.27282   0.00000  Uiso   1.00
O1690  O     0.57307   0.70726   0.72718   0.00000  Uiso   1.00
O1691  O     0.92693   0.79275   0.27282   0.00000  Uiso   1.00
O1692  O     0.95725   0.82307   0.77282   0.00000  Uiso   1.00
O1693  O     0.54274   0.67693   0.22718   0.00000  Uiso   1.00
O1694  O     0.67693   0.95726   0.77282   0.00000  Uiso   1.00
O1695  O     0.50000   0.75000   0.75000   0.00000  Uiso   1.00
O1696  O     0.82307   0.54275   0.22718   0.00000  Uiso   1.00
O1697  O     0.54274   0.67693   0.77282   0.00000  Uiso   1.00
O1698  O     0.95725   0.82307   0.22718   0.00000  Uiso   1.00
O1699  O     0.82307   0.54275   0.77282   0.00000  Uiso   1.00
O1700  O     0.67693   0.95726   0.22718   0.00000  Uiso   1.00
O1701  O     0.95725   0.67693   0.22718   0.00000  Uiso   1.00
O1702  O     0.54274   0.82307   0.77282   0.00000  Uiso   1.00
O1703  O     0.67693   0.54275   0.22718   0.00000  Uiso   1.00
O1704  O     0.82307   0.95726   0.77282   0.00000  Uiso   1.00
O1705  O     0.54274   0.82307   0.22718   0.00000  Uiso   1.00
O1706  O     0.75000   0.96964   0.33683   0.00000  Uiso   1.00
O1707  O     0.95725   0.67693   0.77282   0.00000  Uiso   1.00
O1708  O     0.82307   0.95726   0.22718   0.00000  Uiso   1.00
O1709  O     0.67693   0.54275   0.77282   0.00000  Uiso   1.00
O1710  O     0.69112   0.52931   0.02213   0.00000  Uiso   1.00
O1711  O     0.80884   0.52926   0.97787   0.00000  Uiso   1.00
O1712  O     0.96624   0.69302   0.02079   0.00000  Uiso   1.00
O1713  O     0.96464   0.80580   0.97806   0.00000  Uiso   1.00
O1714  O     0.80690   0.96480   0.02172   0.00000  Uiso   1.00
O1715  O     0.69290   0.96525   0.97731   0.00000  Uiso   1.00
O1716  O     0.53311   0.80670   0.02188   0.00000  Uiso   1.00
O1717  O     0.75000   0.53036   0.66317   0.00000  Uiso   1.00
O1718  O     0.53527   0.69394   0.97912   0.00000  Uiso   1.00
O1719  O     0.94021   0.77705   0.52189   0.00000  Uiso   1.00
O1720  O     0.55794   0.77943   0.47821   0.00000  Uiso   1.00
O1721  O     0.72096   0.94119   0.52200   0.00000  Uiso   1.00
O1722  O     0.72110   0.55918   0.47790   0.00000  Uiso   1.00
O1723  O     0.55752   0.71494   0.52284   0.00000  Uiso   1.00
O1724  O     0.94403   0.71240   0.47792   0.00000  Uiso   1.00
O1725  O     0.78492   0.55730   0.52280   0.00000  Uiso   1.00
O1726  O     0.78537   0.94312   0.47825   0.00000  Uiso   1.00
O1727  O     0.60558   0.94804   0.23949   0.00000  Uiso   1.00
O1728  O     0.53036   0.75000   0.33683   0.00000  Uiso   1.00
O1729  O     0.89481   0.55188   0.76146   0.00000  Uiso   1.00
O1730  O     0.59477   0.64843   0.17993   0.00000  Uiso   1.00
O1731  O     0.90718   0.85368   0.81980   0.00000  Uiso   1.00
O1732  O     0.84581   0.60058   0.17942   0.00000  Uiso   1.00
O1733  O     0.60546   0.94798   0.76065   0.00000  Uiso   1.00
O1734  O     0.85628   0.80254   0.23651   0.00000  Uiso   1.00
O1735  O     0.64128   0.69411   0.77937   0.00000  Uiso   1.00
O1736  O     0.69585   0.64233   0.77323   0.00000  Uiso   1.00
O1737  O     0.80469   0.85698   0.22755   0.00000  Uiso   1.00
O1738  O     0.55197   0.89465   0.75810   0.00000  Uiso   1.00
O1739  O     0.96964   0.75000   0.66317   0.00000  Uiso   1.00
O1740  O     0.89811   0.65515   0.17936   0.00000  Uiso   1.00
O1741  O     0.85092   0.90464   0.82014   0.00000  Uiso   1.00
O1742  O     0.64577   0.59223   0.18032   0.00000  Uiso   1.00
O1743  O     0.94807   0.60383   0.75768   0.00000  Uiso   1.00
O1744  O     0.55237   0.89455   0.23682   0.00000  Uiso   1.00
O1745  O     0.85553   0.69816   0.74178   0.00000  Uiso   1.00
O1746  O     0.64434   0.80235   0.26454   0.00000  Uiso   1.00
O1747  O     0.84532   0.89900   0.67986   0.00000  Uiso   1.00
O1748  O     0.65772   0.60423   0.31973   0.00000  Uiso   1.00
O1749  O     0.64600   0.80176   0.74259   0.00000  Uiso   1.00
O1750  O     0.75000   0.53036   0.33683   0.00000  Uiso   1.00
O1751  O     0.90319   0.65071   0.31959   0.00000  Uiso   1.00
O1752  O     0.60783   0.55397   0.72676   0.00000  Uiso   1.00
O1753  O     0.89486   0.94778   0.26473   0.00000  Uiso   1.00
O1754  O     0.94809   0.89472   0.26172   0.00000  Uiso   1.00
O1755  O     0.55595   0.60847   0.72087   0.00000  Uiso   1.00
O1756  O     0.84791   0.59876   0.31977   0.00000  Uiso   1.00
O1757  O     0.69794   0.85502   0.73859   0.00000  Uiso   1.00
O1758  O     0.60164   0.65537   0.32009   0.00000  Uiso   1.00
O1759  O     0.89640   0.84282   0.68020   0.00000  Uiso   1.00
O1760  O     0.69752   0.85418   0.26106   0.00000  Uiso   1.00
Zn1761 Zn    0.70660   0.50000   0.21760   0.00000  Uiso   1.00
Zn1762 Zn    0.54340   0.75000   0.28240   0.00000  Uiso   1.00
Zn1763 Zn    0.75000   0.95660   0.71760   0.00000  Uiso   1.00
Zn1764 Zn    0.75000   0.54340   0.28240   0.00000  Uiso   1.00
Zn1765 Zn    0.54340   0.75000   0.71760   0.00000  Uiso   1.00
Zn1766 Zn    0.95660   0.75000   0.28240   0.00000  Uiso   1.00
Zn1767 Zn    0.75000   0.54340   0.71760   0.00000  Uiso   1.00
Zn1768 Zn    0.75000   0.95660   0.28240   0.00000  Uiso   1.00
Zn1769 Zn    0.79340   0.50000   0.78240   0.00000  Uiso   1.00
Zn1770 Zn    0.50000   0.70660   0.21760   0.00000  Uiso   1.00
Zn1771 Zn    0.50000   0.79340   0.78240   0.00000  Uiso   1.00
Zn1772 Zn    0.79340   0.50000   0.21760   0.00000  Uiso   1.00
Zn1773 Zn    0.70660   0.50000   0.78240   0.00000  Uiso   1.00
Zn1774 Zn    0.50000   0.79340   0.21760   0.00000  Uiso   1.00
Zn1775 Zn    0.50000   0.70660   0.78240   0.00000  Uiso   1.00
Zn1776 Zn    0.95660   0.75000   0.71760   0.00000  Uiso   1.00
loop_
_geom_bond_atom_site_label_1
_geom_bond_atom_site_label_2
_geom_bond_distance
_geom_bond_site_symmetry_2
_ccdc_geom_bond_type
C1     O378    1.383   .     S
C1     C78     1.394   .     A
C1     C984    1.412   1_545 S
C2     C88     1.394   .     A
C2     C101    1.412   .     A
C2     O388    1.383   .     S
C3     C144    1.405   .     A
C3     C115    1.449   .     S
C3     C151    1.405   .     A
C4     C154    1.406   .     A
C4     C116    1.455   .     S
C4     C143    1.409   .     A
C5     C142    1.407   .     A
C5     C117    1.456   .     S
C5     C153    1.411   .     A
C6     C141    1.408   .     A
C6     C156    1.411   .     A
C6     C118    1.452   .     S
C7     C119    1.450   .     S
C7     C140    1.406   .     A
C7     C155    1.406   .     A
C8     C129    1.453   .     S
C8     C159    1.409   .     A
C8     C139    1.409   .     A
C9     C138    1.405   .     A
C9     C130    1.451   .     S
C9     C157    1.408   .     A
C10    C122    1.457   .     S
C10    C161    1.409   .     A
C10    C137    1.409   .     A
C11    C160    1.407   .     A
C11    C135    1.411   .     A
C11    C123    1.459   .     S
C12    C163    1.409   .     A
C12    C134    1.409   .     A
C12    C124    1.455   .     S
C13    C102    1.412   .     A
C13    O389    1.383   .     S
C13    C89     1.395   .     A
C14    C126    1.449   .     S
C14    C133    1.405   .     A
C14    C162    1.405   .     A
C15    C132    1.410   .     A
C15    C165    1.409   .     A
C15    C127    1.457   .     S
C16    C164    1.411   .     A
C16    C131    1.407   .     A
C16    C128    1.457   .     S
C17    C83     1.399   .     A
C17    C112    1.460   .     S
C17    C966    1.398   .     S
C18    C84     1.399   .     A
C18    C111    1.460   .     S
C18    C967    1.399   .     S
C19    C80     1.400   .     A
C19    C110    1.461   .     S
C19    C529    1.399   .     S
C20    C86     1.400   .     A
C20    C109    1.460   .     S
C20    C526    1.399   1_455 S
C21    C108    1.461   .     S
C21    C87     1.400   .     A
C21    C535    1.399   .     S
C22    C107    1.460   .     S
C22    C88     1.398   .     A
C22    C537    1.399   1_455 S
C23    C89     1.399   .     A
C23    C106    1.460   .     S
C23    C982    1.399   .     S
C24    C90     1.394   .     A
C24    O390    1.383   .     S
C24    C104    1.412   .     A
C25    C105    1.460   .     S
C25    C90     1.398   .     A
C25    C983    1.399   1_545 S
C26    H239    1.114   .     S
C26    H240    1.109   .     S
C26    O378    1.409   .     S
C26    H238    1.111   1_554 S
C27    H243    1.114   .     S
C27    H244    1.109   .     S
C27    O379    1.409   .     S
C27    H242    1.110   1_556 S
C28    H247    1.109   .     S
C28    H246    1.110   .     S
C28    O380    1.412   .     S
C28    H245    1.115   .     S
C29    H249    1.113   .     S
C29    H248    1.113   .     S
C29    O381    1.409   .     S
C29    H250    1.109   .     S
C30    H253    1.111   .     S
C30    H251    1.114   .     S
C30    O382    1.411   .     S
C30    H254    1.109   .     S
C31    H256    1.113   .     S
C31    H257    1.109   .     S
C31    H255    1.113   .     S
C31    O383    1.409   .     S
C32    O384    1.409   .     S
C32    H258    1.113   .     S
C32    H260    1.109   .     S
C32    H259    1.113   .     S
C33    H264    1.109   .     S
C33    H261    1.115   .     S
C33    O386    1.412   .     S
C33    H262    1.110   .     S
C34    H267    1.109   .     S
C34    H265    1.111   .     S
C34    O387    1.409   .     S
C34    H266    1.114   .     S
C35    O391    1.382   .     S
C35    C91     1.396   .     A
C35    C544    1.410   1_455 S
C36    H268    1.110   .     S
C36    H270    1.109   .     S
C36    O388    1.409   .     S
C36    H269    1.114   .     S
C37    H272    1.114   .     S
C37    H271    1.110   .     S
C37    O389    1.409   .     S
C37    H273    1.109   .     S
C38    H277    1.109   .     S
C38    H275    1.111   .     S
C38    O390    1.409   .     S
C38    H276    1.114   .     S
C39    O391    1.409   .     S
C39    H280    1.109   .     S
C39    H278    1.113   .     S
C39    H279    1.113   .     S
C40    H283    1.109   .     S
C40    O392    1.412   .     S
C40    H282    1.111   .     S
C40    H281    1.114   .     S
C41    O393    1.409   .     S
C41    H287    1.109   .     S
C41    H284    1.113   .     S
C41    H286    1.113   .     S
C42    H290    1.109   .     S
C42    H289    1.111   .     S
C42    O394    1.411   .     S
C42    H288    1.114   .     S
C43    O395    1.410   .     S
C43    H291    1.109   .     S
C43    H292    1.113   .     S
C43    H293    1.113   .     S
C44    H294    1.113   .     S
C44    O397    1.412   .     S
C44    H297    1.109   .     S
C44    H295    1.109   .     S
C45    H298    1.113   .     S
C45    O398    1.410   .     S
C45    H300    1.109   .     S
C45    H299    1.113   .     S
C46    O392    1.388   .     S
C46    C93     1.402   .     A
C46    C545    1.410   .     S
C47    H301    1.109   .     S
C47    H302    1.114   .     S
C47    O399    1.412   .     S
C47    H303    1.111   .     S
C48    H305    1.117   .     S
C48    O400    1.416   .     S
C48    H306    1.107   .     S
C48    H304    1.110   .     S
C49    H308    1.111   .     S
C49    O401    1.412   .     S
C49    H310    1.109   .     S
C49    H309    1.114   .     S
C50    H311    1.110   .     S
C50    H313    1.114   .     S
C50    H312    1.109   .     S
C50    O402    1.411   .     S
C51    H314    1.109   .     S
C51    O403    1.415   .     S
C51    H315    1.109   .     S
C51    H316    1.116   .     S
C52    O404    1.411   .     S
C52    H317    1.109   .     S
C52    H319    1.109   .     S
C52    H320    1.113   .     S
C53    H323    1.116   .     S
C53    H322    1.110   .     S
C53    H321    1.109   .     S
C53    O405    1.417   .     S
C54    H325    1.113   .     S
C54    H326    1.113   .     S
C54    O406    1.410   .     S
C54    H324    1.109   .     S
C55    O408    1.415   .     S
C55    H328    1.109   .     S
C55    H171    1.109   .     S
C55    H327    1.117   .     S
C56    O409    1.410   .     S
C56    H172    1.113   .     S
C56    H173    1.113   .     S
C56    H174    1.109   .     S
C57    O393    1.382   .     S
C57    C94     1.396   .     A
C57    C990    1.410   1_545 S
C58    H175    1.109   .     S
C58    H176    1.114   .     S
C58    O410    1.412   .     S
C58    H177    1.111   .     S
C59    H179    1.109   .     S
C59    H180    1.116   .     S
C59    O411    1.413   .     S
C59    H178    1.109   .     S
C60    H184    1.109   .     S
C60    O412    1.411   .     S
C60    H182    1.111   .     S
C60    H183    1.114   .     S
C61    O413    1.410   .     S
C61    H185    1.109   .     S
C61    H187    1.113   .     S
C61    H186    1.113   .     S
C62    H190    1.108   .     S
C62    H188    1.114   .     S
C62    O414    1.412   .     S
C62    H189    1.109   .     S
C63    O415    1.410   .     S
C63    H194    1.109   .     S
C63    H191    1.113   .     S
C63    H193    1.113   .     S
C64    H195    1.109   .     S
C64    O416    1.412   .     S
C64    H196    1.114   .     S
C64    H197    1.111   .     S
C65    H199    1.109   .     S
C65    H198    1.108   .     S
C65    H200    1.116   .     S
C65    O417    1.413   .     S
C66    H201    1.113   .     S
C66    H204    1.110   .     S
C66    H202    1.113   .     S
C66    O419    1.410   .     S
C67    H205    1.109   .     S
C67    O420    1.411   .     S
C67    H206    1.109   .     S
C67    H207    1.113   .     S
C68    C95     1.401   .     A
C68    O394    1.387   .     S
C68    C992    1.410   .     S
C69    H208    1.109   .     S
C69    H209    1.110   .     S
C69    H210    1.116   .     S
C69    O421    1.414   .     S
C70    O422    1.410   .     S
C70    H212    1.110   .     S
C70    H213    1.113   .     S
C70    H211    1.109   .     S
C71    H216    1.109   .     S
C71    H215    1.109   .     S
C71    H217    1.116   .     S
C71    O423    1.415   .     S
C72    H218    1.109   .     S
C72    H220    1.114   .     S
C72    H219    1.111   .     S
C72    O424    1.412   .     S
C73    H221    1.113   .     S
C73    O425    1.412   .     S
C73    H223    1.109   .     S
C73    H222    1.109   .     S
C74    H224    1.113   .     S
C74    H226    1.113   .     S
C74    O426    1.410   .     S
C74    H227    1.109   .     S
C75    H229    1.114   .     S
C75    O427    1.412   .     S
C75    H230    1.111   .     S
C75    H228    1.109   .     S
C76    H232    1.109   .     S
C76    O428    1.412   .     S
C76    H233    1.116   .     S
C76    H231    1.108   .     S
C77    H235    1.114   .     S
C77    H234    1.111   .     S
C77    H237    1.109   .     S
C77    O331    1.411   .     S
C78    H169    1.084   .     S
C78    C905    1.398   1_545 S
C79    H241    1.084   .     S
C79    C81     1.395   .     A
C79    C906    1.399   1_545 S
C80    C92     1.404   .     A
C80    H252    1.082   .     S
C81    O379    1.383   .     S
C81    C985    1.412   1_545 S
C82    C103    1.396   .     A
C82    H263    1.084   .     S
C82    C464    1.399   .     S
C83    H274    1.083   .     S
C83    C114    1.401   .     A
C84    C125    1.396   .     A
C84    H285    1.084   .     S
C85    H296    1.084   .     S
C85    C136    1.396   .     A
C85    C463    1.399   1_455 S
C86    C147    1.404   .     A
C86    H307    1.083   .     S
C87    H318    1.084   .     S
C87    C158    1.396   .     A
C88    H170    1.084   .     S
C89    H181    1.084   .     S
C90    H192    1.084   .     S
C91    H203    1.084   .     S
C91    C465    1.399   1_455 S
C92    C98     1.409   .     A
C92    O380    1.389   .     S
C93    H214    1.083   .     S
C93    C466    1.399   .     S
C94    H225    1.084   .     S
C94    C911    1.399   1_545 S
C95    H236    1.083   .     S
C95    C913    1.399   .     S
C96    C114    1.410   .     A
C96    C889    1.412   .     S
C96    C97     1.472   1_554 S
C97    C125    1.410   .     A
C97    C96     1.472   1_556 S
C97    C969    1.412   .     S
C98    C99     1.471   1_554 S
C98    C580    1.408   .     S
C99    C103    1.409   .     A
C99    C98     1.471   1_556 S
C99    C591    1.409   .     S
C100   C158    1.412   .     A
C100   C479    1.410   .     S
C100   C545    1.472   .     S
C101   C490    1.410   1_455 S
C101   C544    1.472   1_455 S
C102   C945    1.410   .     S
C102   C992    1.472   .     S
C103   O381    1.382   .     S
C104   C956    1.410   1_545 S
C104   C990    1.472   1_545 S
C105   O418    1.279   .     A
C105   O1262   1.280   1_545 S
C106   O330    1.280   .     A
C106   O1273   1.279   .     S
C107   O396    1.281   .     A
C107   O776    1.281   1_455 S
C108   O407    1.281   .     A
C108   O777    1.281   .     S
C109   O334    1.280   .     A
C109   O338    1.280   .     S
C110   O779    1.280   .     A
C110   O783    1.280   .     S
C111   O1224   1.281   .     S
C111   O1228   1.281   .     S
C112   O1225   1.281   .     S
C112   O1230   1.281   .     S
C113   C168    1.455   .     S
C113   O343    1.278   .     A
C113   O371    1.278   .     A
C114   O382    1.387   .     S
C115   O344    1.276   .     A
C115   O372    1.276   .     A
C116   O345    1.279   .     A
C116   O369    1.275   .     A
C117   O370    1.277   .     A
C117   O346    1.277   .     A
C118   O347    1.280   .     A
C118   O376    1.275   .     A
C119   O348    1.277   .     A
C119   O377    1.277   .     A
C120   O373    1.275   .     A
C120   C166    1.456   .     S
C120   O349    1.279   .     A
C121   O350    1.277   .     A
C121   O375    1.278   .     A
C121   C167    1.456   .     S
C122   O351    1.280   .     A
C122   O362    1.275   .     A
C123   O353    1.279   .     A
C123   O364    1.277   .     A
C124   O354    1.278   .     A
C124   O360    1.278   .     A
C125   O383    1.382   .     S
C126   O355    1.276   .     A
C126   O361    1.277   .     A
C127   O356    1.276   .     A
C127   O367    1.280   .     A
C128   O368    1.277   .     A
C128   O357    1.278   .     A
C129   O365    1.278   .     A
C129   O358    1.278   .     A
C130   O366    1.277   .     A
C130   O359    1.278   .     A
C131   O395    1.384   .     S
C131   C148    1.399   .     A
C132   C146    1.396   .     A
C132   O397    1.386   .     S
C133   C145    1.398   .     A
C133   O398    1.384   .     S
C134   C144    1.398   .     A
C134   O399    1.385   .     S
C135   C143    1.402   .     A
C135   O400    1.386   .     S
C136   O384    1.382   .     S
C136   C542    1.408   1_455 S
C137   O401    1.385   .     S
C137   C142    1.399   .     A
C138   C141    1.397   .     A
C138   O402    1.386   .     S
C139   O403    1.384   .     S
C139   C140    1.399   .     A
C140   O404    1.385   .     S
C141   O405    1.383   .     S
C142   O406    1.384   .     S
C143   O408    1.386   .     S
C144   O409    1.384   .     S
C145   O410    1.385   .     S
C145   C168    1.409   .     A
C146   O411    1.384   .     S
C146   C167    1.411   .     A
C147   O386    1.389   .     S
C147   C543    1.409   1_455 S
C148   O412    1.385   .     S
C148   C166    1.409   .     A
C149   O413    1.384   .     S
C149   C165    1.399   .     A
C149   C167    1.407   .     A
C150   C166    1.409   .     A
C150   O414    1.386   .     S
C150   C164    1.394   .     A
C151   C163    1.398   .     A
C151   O415    1.384   .     S
C152   O416    1.385   .     S
C152   C162    1.398   .     A
C152   C168    1.409   .     A
C153   C161    1.396   .     A
C153   O417    1.384   .     S
C154   C160    1.400   .     A
C154   O419    1.384   .     S
C155   C159    1.399   .     A
C155   O420    1.385   .     S
C156   O421    1.386   .     S
C156   C157    1.399   .     A
C157   O422    1.385   .     S
C158   O387    1.383   .     S
C159   O423    1.384   .     S
C160   O424    1.385   .     S
C161   O425    1.386   .     S
C162   O426    1.384   .     S
C163   O427    1.385   .     S
C164   O428    1.382   .     S
C165   O331    1.385   .     S
H238   C26     1.111   1_556 S
H242   C27     1.110   1_554 S
O329   Zn432   1.942   .     S
O329   Zn429   1.944   .     S
O329   Zn1324  1.943   1_545 S
O329   Zn440   1.945   .     S
O330   Zn431   1.938   .     S
O332   Zn434   1.937   .     S
O332   C551    1.281   .     S
O333   Zn433   1.937   .     S
O333   C552    1.281   1_455 S
O334   Zn443   1.937   .     S
O335   C554    1.280   1_455 A
O335   Zn442   1.937   .     S
O336   Zn437   1.938   .     S
O336   C999    1.281   1_545 S
O337   C1000   1.281   1_545 S
O337   Zn429   1.938   .     S
O338   Zn439   1.938   .     S
O339   C554    1.280   1_455 S
O339   Zn438   1.938   .     S
O340   Zn441   1.937   .     S
O340   C999    1.281   1_545 S
O341   Zn435   1.943   .     S
O341   Zn441   1.945   .     S
O341   Zn437   1.944   .     S
O341   Zn1319  1.942   1_545 S
O342   C1000   1.281   1_545 S
O342   Zn440   1.937   .     S
O343   Zn432   1.933   .     S
O344   Zn431   1.933   .     S
O345   Zn434   1.937   .     S
O346   Zn433   1.937   .     S
O347   Zn436   1.933   .     S
O348   Zn435   1.933   .     S
O349   Zn430   1.938   .     S
O350   Zn444   1.938   .     S
O351   Zn431   1.939   .     S
O352   Zn430   1.944   .     S
O352   Zn442   1.943   .     S
O352   Zn878   1.945   1_455 S
O352   Zn438   1.942   .     S
O353   Zn432   1.939   .     S
O354   Zn444   1.931   .     S
O355   Zn430   1.931   .     S
O356   Zn435   1.938   .     S
O357   Zn436   1.938   .     S
O358   Zn433   1.932   .     S
O359   Zn434   1.932   .     S
O360   Zn883   1.933   .     S
O361   Zn438   1.933   .     S
O362   Zn1329  1.937   .     S
O363   Zn439   1.942   .     S
O363   Zn433   1.945   .     S
O363   Zn443   1.943   .     S
O363   Zn888   1.944   1_455 S
O364   Zn440   1.937   .     S
O365   Zn443   1.933   .     S
O366   Zn886   1.933   .     S
O367   Zn437   1.938   .     S
O368   Zn1317  1.938   .     S
O369   Zn882   1.939   .     S
O370   Zn439   1.939   .     S
O371   Zn429   1.931   .     S
O372   Zn1325  1.931   .     S
O373   Zn442   1.938   .     S
O374   Zn436   1.937   .     S
O374   C993    1.280   .     S
O375   Zn887   1.938   .     S
O376   Zn1328  1.932   .     S
O377   Zn441   1.932   .     S
O385   Zn435   1.937   .     S
O385   C994    1.279   1_545 S
O396   Zn430   1.938   .     S
O407   Zn444   1.938   .     S
O418   Zn432   1.938   .     S
Zn429  O1256   1.938   1_545 S
Zn431  O1229   1.942   .     S
Zn434  O796    1.945   .     S
Zn436  O1217   1.943   .     S
Zn437  O1260   1.931   1_545 S
Zn438  O813    1.939   1_455 S
Zn439  O804    1.933   1_455 S
Zn440  O1264   1.932   1_545 S
Zn441  O1250   1.937   1_545 S
Zn442  O810    1.933   1_455 S
Zn443  O819    1.938   1_455 S
Zn444  O807    1.944   .     S
C445   O822    1.383   .     S
C445   C522    1.394   .     A
C445   C1428   1.412   1_545 S
C446   C532    1.394   .     A
C446   C545    1.412   .     A
C446   O832    1.383   .     S
C447   C588    1.405   .     A
C447   C559    1.449   .     S
C447   C595    1.405   .     A
C448   C598    1.406   .     A
C448   C560    1.455   .     S
C448   C587    1.409   .     A
C449   C586    1.407   .     A
C449   C561    1.456   .     S
C449   C597    1.411   .     A
C450   C585    1.408   .     A
C450   C600    1.411   .     A
C450   C562    1.452   .     S
C451   C563    1.450   .     S
C451   C584    1.406   .     A
C451   C599    1.406   .     A
C452   C573    1.453   .     S
C452   C603    1.409   .     A
C452   C583    1.409   .     A
C453   C582    1.405   .     A
C453   C574    1.451   .     S
C453   C601    1.408   .     A
C454   C566    1.457   .     S
C454   C605    1.409   .     A
C454   C581    1.409   .     A
C455   C604    1.407   .     A
C455   C579    1.411   .     A
C455   C567    1.459   .     S
C456   C607    1.409   .     A
C456   C578    1.409   .     A
C456   C568    1.455   .     S
C457   C546    1.412   .     A
C457   O833    1.383   .     S
C457   C533    1.395   .     A
C458   C570    1.449   .     S
C458   C577    1.405   .     A
C458   C606    1.405   .     A
C459   C576    1.410   .     A
C459   C609    1.409   .     A
C459   C571    1.457   .     S
C460   C608    1.411   .     A
C460   C575    1.407   .     A
C460   C572    1.457   .     S
C461   C527    1.399   .     A
C461   C556    1.460   .     S
C461   C1410   1.398   .     S
C462   C528    1.399   .     A
C462   C555    1.460   .     S
C462   C1411   1.399   .     S
C463   C524    1.400   .     A
C463   C554    1.461   .     S
C463   C85     1.399   1_655 S
C464   C530    1.400   .     A
C464   C553    1.460   .     S
C465   C552    1.461   .     S
C465   C531    1.400   .     A
C465   C91     1.399   1_655 S
C466   C551    1.460   .     S
C466   C532    1.398   .     A
C467   C533    1.399   .     A
C467   C550    1.460   .     S
C467   C1426   1.399   .     S
C468   C534    1.394   .     A
C468   O834    1.383   .     S
C468   C548    1.412   .     A
C469   C549    1.460   .     S
C469   C534    1.398   .     A
C469   C1427   1.399   1_545 S
C470   H683    1.114   .     S
C470   H684    1.109   .     S
C470   O822    1.409   .     S
C470   H682    1.111   1_554 S
C471   H687    1.114   .     S
C471   H688    1.109   .     S
C471   O823    1.409   .     S
C471   H686    1.110   1_556 S
C472   H691    1.109   .     S
C472   H690    1.110   .     S
C472   O824    1.412   .     S
C472   H689    1.115   .     S
C473   H693    1.113   .     S
C473   H692    1.113   .     S
C473   O825    1.409   .     S
C473   H694    1.109   .     S
C474   H697    1.111   .     S
C474   H695    1.114   .     S
C474   O826    1.411   .     S
C474   H698    1.109   .     S
C475   H700    1.113   .     S
C475   H701    1.109   .     S
C475   H699    1.113   .     S
C475   O827    1.409   .     S
C476   O828    1.409   .     S
C476   H702    1.113   .     S
C476   H704    1.109   .     S
C476   H703    1.113   .     S
C477   H708    1.109   .     S
C477   H705    1.115   .     S
C477   O830    1.412   .     S
C477   H706    1.110   .     S
C478   H711    1.109   .     S
C478   H709    1.111   .     S
C478   O831    1.409   .     S
C478   H710    1.114   .     S
C479   O835    1.382   .     S
C479   C535    1.396   .     A
C480   H712    1.110   .     S
C480   H714    1.109   .     S
C480   O832    1.409   .     S
C480   H713    1.114   .     S
C481   H716    1.114   .     S
C481   H715    1.110   .     S
C481   O833    1.409   .     S
C481   H717    1.109   .     S
C482   H721    1.109   .     S
C482   H719    1.111   .     S
C482   O834    1.409   .     S
C482   H720    1.114   .     S
C483   O835    1.409   .     S
C483   H724    1.109   .     S
C483   H722    1.113   .     S
C483   H723    1.113   .     S
C484   H727    1.109   .     S
C484   O836    1.412   .     S
C484   H726    1.111   .     S
C484   H725    1.114   .     S
C485   O837    1.409   .     S
C485   H731    1.109   .     S
C485   H728    1.113   .     S
C485   H730    1.113   .     S
C486   H734    1.109   .     S
C486   H733    1.111   .     S
C486   O838    1.411   .     S
C486   H732    1.114   .     S
C487   O839    1.410   .     S
C487   H735    1.109   .     S
C487   H736    1.113   .     S
C487   H737    1.113   .     S
C488   H738    1.113   .     S
C488   O841    1.412   .     S
C488   H741    1.109   .     S
C488   H739    1.109   .     S
C489   H742    1.113   .     S
C489   O842    1.410   .     S
C489   H744    1.109   .     S
C489   H743    1.113   .     S
C490   O836    1.388   .     S
C490   C537    1.402   .     A
C490   C101    1.410   1_655 S
C491   H745    1.109   .     S
C491   H746    1.114   .     S
C491   O843    1.412   .     S
C491   H747    1.111   .     S
C492   H749    1.117   .     S
C492   O844    1.416   .     S
C492   H750    1.107   .     S
C492   H748    1.110   .     S
C493   H752    1.111   .     S
C493   O845    1.412   .     S
C493   H754    1.109   .     S
C493   H753    1.114   .     S
C494   H755    1.110   .     S
C494   H757    1.114   .     S
C494   H756    1.109   .     S
C494   O846    1.411   .     S
C495   H758    1.109   .     S
C495   O847    1.415   .     S
C495   H759    1.109   .     S
C495   H760    1.116   .     S
C496   O848    1.411   .     S
C496   H761    1.109   .     S
C496   H763    1.109   .     S
C496   H764    1.113   .     S
C497   H767    1.116   .     S
C497   H766    1.110   .     S
C497   H765    1.109   .     S
C497   O849    1.417   .     S
C498   H769    1.113   .     S
C498   H770    1.113   .     S
C498   O850    1.410   .     S
C498   H768    1.109   .     S
C499   O852    1.415   .     S
C499   H772    1.109   .     S
C499   H615    1.109   .     S
C499   H771    1.117   .     S
C500   O853    1.410   .     S
C500   H616    1.113   .     S
C500   H617    1.113   .     S
C500   H618    1.109   .     S
C501   O837    1.382   .     S
C501   C538    1.396   .     A
C501   C1434   1.410   1_545 S
C502   H619    1.109   .     S
C502   H620    1.114   .     S
C502   O854    1.412   .     S
C502   H621    1.111   .     S
C503   H623    1.109   .     S
C503   H624    1.116   .     S
C503   O855    1.413   .     S
C503   H622    1.109   .     S
C504   H628    1.109   .     S
C504   O856    1.411   .     S
C504   H626    1.111   .     S
C504   H627    1.114   .     S
C505   O857    1.410   .     S
C505   H629    1.109   .     S
C505   H631    1.113   .     S
C505   H630    1.113   .     S
C506   H634    1.108   .     S
C506   H632    1.114   .     S
C506   O858    1.412   .     S
C506   H633    1.109   .     S
C507   O859    1.410   .     S
C507   H638    1.109   .     S
C507   H635    1.113   .     S
C507   H637    1.113   .     S
C508   H639    1.109   .     S
C508   O860    1.412   .     S
C508   H640    1.114   .     S
C508   H641    1.111   .     S
C509   H643    1.109   .     S
C509   H642    1.108   .     S
C509   H644    1.116   .     S
C509   O861    1.413   .     S
C510   H645    1.113   .     S
C510   H648    1.110   .     S
C510   H646    1.113   .     S
C510   O863    1.410   .     S
C511   H649    1.109   .     S
C511   O864    1.411   .     S
C511   H650    1.109   .     S
C511   H651    1.113   .     S
C512   C539    1.401   .     A
C512   O838    1.387   .     S
C512   C1436   1.410   .     S
C513   H652    1.109   .     S
C513   H653    1.110   .     S
C513   H654    1.116   .     S
C513   O865    1.414   .     S
C514   O866    1.410   .     S
C514   H656    1.110   .     S
C514   H657    1.113   .     S
C514   H655    1.109   .     S
C515   H660    1.109   .     S
C515   H659    1.109   .     S
C515   H661    1.116   .     S
C515   O867    1.415   .     S
C516   H662    1.109   .     S
C516   H664    1.114   .     S
C516   H663    1.111   .     S
C516   O868    1.412   .     S
C517   H665    1.113   .     S
C517   O869    1.412   .     S
C517   H667    1.109   .     S
C517   H666    1.109   .     S
C518   H668    1.113   .     S
C518   H670    1.113   .     S
C518   O870    1.410   .     S
C518   H671    1.109   .     S
C519   H673    1.114   .     S
C519   O871    1.412   .     S
C519   H674    1.111   .     S
C519   H672    1.109   .     S
C520   H676    1.109   .     S
C520   O872    1.412   .     S
C520   H677    1.116   .     S
C520   H675    1.108   .     S
C521   H679    1.114   .     S
C521   H678    1.111   .     S
C521   H681    1.109   .     S
C521   O775    1.411   .     S
C522   H613    1.084   .     S
C522   C1349   1.398   1_545 S
C523   H685    1.084   .     S
C523   C525    1.395   .     A
C523   C1350   1.399   1_545 S
C524   C536    1.404   .     A
C524   H696    1.082   .     S
C525   O823    1.383   .     S
C525   C1429   1.412   1_545 S
C526   C547    1.396   .     A
C526   H707    1.084   .     S
C526   C20     1.399   1_655 S
C527   H718    1.083   .     S
C527   C558    1.401   .     A
C528   C569    1.396   .     A
C528   H729    1.084   .     S
C529   H740    1.084   .     S
C529   C580    1.396   .     A
C530   C591    1.404   .     A
C530   H751    1.083   .     S
C531   H762    1.084   .     S
C531   C602    1.396   .     A
C532   H614    1.084   .     S
C533   H625    1.084   .     S
C534   H636    1.084   .     S
C535   H647    1.084   .     S
C536   C542    1.409   .     A
C536   O824    1.389   .     S
C537   H658    1.083   .     S
C537   C22     1.399   1_655 S
C538   H669    1.084   .     S
C538   C1355   1.399   1_545 S
C539   H680    1.083   .     S
C539   C1357   1.399   .     S
C540   C558    1.410   .     A
C540   C1333   1.412   .     S
C540   C541    1.472   1_554 S
C541   C569    1.410   .     A
C541   C540    1.472   1_556 S
C541   C1413   1.412   .     S
C542   C543    1.471   1_554 S
C542   C136    1.408   1_655 S
C543   C547    1.409   .     A
C543   C542    1.471   1_556 S
C543   C147    1.409   1_655 S
C544   C602    1.412   .     A
C544   C35     1.410   1_655 S
C544   C101    1.472   1_655 S
C546   C1389   1.410   .     S
C546   C1436   1.472   .     S
C547   O825    1.382   .     S
C548   C1400   1.410   1_545 S
C548   C1434   1.472   1_545 S
C549   O862    1.279   .     A
C549   O1706   1.280   1_545 S
C550   O774    1.280   .     A
C550   O1717   1.279   .     S
C551   O840    1.281   .     A
C552   O851    1.281   .     A
C552   O333    1.281   1_655 S
C553   O778    1.280   .     A
C553   O782    1.280   .     S
C554   O335    1.280   1_655 A
C554   O339    1.280   1_655 S
C555   O1668   1.281   .     S
C555   O1672   1.281   .     S
C556   O1669   1.281   .     S
C556   O1674   1.281   .     S
C557   C612    1.455   .     S
C557   O787    1.278   .     A
C557   O815    1.278   .     A
C558   O826    1.387   .     S
C559   O788    1.276   .     A
C559   O816    1.276   .     A
C560   O789    1.279   .     A
C560   O813    1.275   .     A
C561   O814    1.277   .     A
C561   O790    1.277   .     A
C562   O791    1.280   .     A
C562   O820    1.275   .     A
C563   O792    1.277   .     A
C563   O821    1.277   .     A
C564   O817    1.275   .     A
C564   C610    1.456   .     S
C564   O793    1.279   .     A
C565   O794    1.277   .     A
C565   O819    1.278   .     A
C565   C611    1.456   .     S
C566   O795    1.280   .     A
C566   O806    1.275   .     A
C567   O797    1.279   .     A
C567   O808    1.277   .     A
C568   O798    1.278   .     A
C568   O804    1.278   .     A
C569   O827    1.382   .     S
C570   O799    1.276   .     A
C570   O805    1.277   .     A
C571   O800    1.276   .     A
C571   O811    1.280   .     A
C572   O812    1.277   .     A
C572   O801    1.278   .     A
C573   O809    1.278   .     A
C573   O802    1.278   .     A
C574   O810    1.277   .     A
C574   O803    1.278   .     A
C575   O839    1.384   .     S
C575   C592    1.399   .     A
C576   C590    1.396   .     A
C576   O841    1.386   .     S
C577   C589    1.398   .     A
C577   O842    1.384   .     S
C578   C588    1.398   .     A
C578   O843    1.385   .     S
C579   C587    1.402   .     A
C579   O844    1.386   .     S
C580   O828    1.382   .     S
C581   O845    1.385   .     S
C581   C586    1.399   .     A
C582   C585    1.397   .     A
C582   O846    1.386   .     S
C583   O847    1.384   .     S
C583   C584    1.399   .     A
C584   O848    1.385   .     S
C585   O849    1.383   .     S
C586   O850    1.384   .     S
C587   O852    1.386   .     S
C588   O853    1.384   .     S
C589   O854    1.385   .     S
C589   C612    1.409   .     A
C590   O855    1.384   .     S
C590   C611    1.411   .     A
C591   O830    1.389   .     S
C592   O856    1.385   .     S
C592   C610    1.409   .     A
C593   O857    1.384   .     S
C593   C609    1.399   .     A
C593   C611    1.407   .     A
C594   C610    1.409   .     A
C594   O858    1.386   .     S
C594   C608    1.394   .     A
C595   C607    1.398   .     A
C595   O859    1.384   .     S
C596   O860    1.385   .     S
C596   C606    1.398   .     A
C596   C612    1.409   .     A
C597   C605    1.396   .     A
C597   O861    1.384   .     S
C598   C604    1.400   .     A
C598   O863    1.384   .     S
C599   C603    1.399   .     A
C599   O864    1.385   .     S
C600   O865    1.386   .     S
C600   C601    1.399   .     A
C601   O866    1.385   .     S
C602   O831    1.383   .     S
C603   O867    1.384   .     S
C604   O868    1.385   .     S
C605   O869    1.386   .     S
C606   O870    1.384   .     S
C607   O871    1.385   .     S
C608   O872    1.382   .     S
C609   O775    1.385   .     S
H682   C470    1.111   1_556 S
H686   C471    1.110   1_554 S
O773   Zn876   1.942   .     S
O773   Zn873   1.944   .     S
O773   Zn1768  1.943   1_545 S
O773   Zn884   1.945   .     S
O774   Zn875   1.938   .     S
O776   Zn878   1.937   .     S
O776   C107    1.281   1_655 S
O777   Zn877   1.937   .     S
O778   Zn887   1.937   .     S
O779   Zn886   1.937   .     S
O780   Zn881   1.938   .     S
O780   C1443   1.281   1_545 S
O781   C1444   1.281   1_545 S
O781   Zn873   1.938   .     S
O782   Zn883   1.938   .     S
O783   Zn882   1.938   .     S
O784   Zn885   1.937   .     S
O784   C1443   1.281   1_545 S
O785   Zn879   1.943   .     S
O785   Zn885   1.945   .     S
O785   Zn881   1.944   .     S
O785   Zn1763  1.942   1_545 S
O786   C1444   1.281   1_545 S
O786   Zn884   1.937   .     S
O787   Zn876   1.933   .     S
O788   Zn875   1.933   .     S
O789   Zn878   1.937   .     S
O790   Zn877   1.937   .     S
O791   Zn880   1.933   .     S
O792   Zn879   1.933   .     S
O793   Zn874   1.938   .     S
O794   Zn888   1.938   .     S
O795   Zn875   1.939   .     S
O796   Zn874   1.944   .     S
O796   Zn886   1.943   .     S
O796   Zn882   1.942   .     S
O797   Zn876   1.939   .     S
O798   Zn888   1.931   .     S
O799   Zn874   1.931   .     S
O800   Zn879   1.938   .     S
O801   Zn880   1.938   .     S
O802   Zn877   1.932   .     S
O803   Zn878   1.932   .     S
O804   Zn439   1.933   1_655 S
O805   Zn882   1.933   .     S
O806   Zn1773  1.937   .     S
O807   Zn883   1.942   .     S
O807   Zn877   1.945   .     S
O807   Zn887   1.943   .     S
O808   Zn884   1.937   .     S
O809   Zn887   1.933   .     S
O810   Zn442   1.933   1_655 S
O811   Zn881   1.938   .     S
O812   Zn1761  1.938   .     S
O813   Zn438   1.939   1_655 S
O814   Zn883   1.939   .     S
O815   Zn873   1.931   .     S
O816   Zn1769  1.931   .     S
O817   Zn886   1.938   .     S
O818   Zn880   1.937   .     S
O818   C1437   1.280   .     S
O819   Zn443   1.938   1_655 S
O820   Zn1772  1.932   .     S
O821   Zn885   1.932   .     S
O829   Zn879   1.937   .     S
O829   C1438   1.279   1_545 S
O840   Zn874   1.938   .     S
O851   Zn888   1.938   .     S
O862   Zn876   1.938   .     S
Zn873  O1700   1.938   1_545 S
Zn875  O1673   1.942   .     S
Zn878  O352    1.945   1_655 S
Zn880  O1661   1.943   .     S
Zn881  O1704   1.931   1_545 S
Zn884  O1708   1.932   1_545 S
Zn885  O1694   1.937   1_545 S
Zn888  O363    1.944   1_655 S
C889   O1266   1.383   .     S
C889   C966    1.394   .     A
C890   C976    1.394   .     A
C890   C989    1.412   .     A
C890   O1276   1.383   .     S
C891   C1032   1.405   .     A
C891   C1003   1.449   .     S
C891   C1039   1.405   .     A
C892   C1042   1.406   .     A
C892   C1004   1.455   .     S
C892   C1031   1.409   .     A
C893   C1030   1.407   .     A
C893   C1005   1.456   .     S
C893   C1041   1.411   .     A
C894   C1029   1.408   .     A
C894   C1044   1.411   .     A
C894   C1006   1.452   .     S
C895   C1007   1.450   .     S
C895   C1028   1.406   .     A
C895   C1043   1.406   .     A
C896   C1017   1.453   .     S
C896   C1047   1.409   .     A
C896   C1027   1.409   .     A
C897   C1026   1.405   .     A
C897   C1018   1.451   .     S
C897   C1045   1.408   .     A
C898   C1010   1.457   .     S
C898   C1049   1.409   .     A
C898   C1025   1.409   .     A
C899   C1048   1.407   .     A
C899   C1023   1.411   .     A
C899   C1011   1.459   .     S
C900   C1051   1.409   .     A
C900   C1022   1.409   .     A
C900   C1012   1.455   .     S
C901   C990    1.412   .     A
C901   O1277   1.383   .     S
C901   C977    1.395   .     A
C902   C1014   1.449   .     S
C902   C1021   1.405   .     A
C902   C1050   1.405   .     A
C903   C1020   1.410   .     A
C903   C1053   1.409   .     A
C903   C1015   1.457   .     S
C904   C1052   1.411   .     A
C904   C1019   1.407   .     A
C904   C1016   1.457   .     S
C905   C971    1.399   .     A
C905   C1000   1.460   .     S
C905   C78     1.398   1_565 S
C906   C972    1.399   .     A
C906   C999    1.460   .     S
C906   C79     1.399   1_565 S
C907   C968    1.400   .     A
C907   C998    1.461   .     S
C907   C1417   1.399   .     S
C908   C974    1.400   .     A
C908   C997    1.460   .     S
C908   C1414   1.399   1_455 S
C909   C996    1.461   .     S
C909   C975    1.400   .     A
C909   C1423   1.399   .     S
C910   C995    1.460   .     S
C910   C976    1.398   .     A
C910   C1425   1.399   1_455 S
C911   C977    1.399   .     A
C911   C994    1.460   .     S
C911   C94     1.399   1_565 S
C912   C978    1.394   .     A
C912   O1278   1.383   .     S
C912   C992    1.412   .     A
C913   C993    1.460   .     S
C913   C978    1.398   .     A
C914   H1127   1.114   .     S
C914   H1128   1.109   .     S
C914   O1266   1.409   .     S
C914   H1126   1.111   1_554 S
C915   H1131   1.114   .     S
C915   H1132   1.109   .     S
C915   O1267   1.409   .     S
C915   H1130   1.110   1_556 S
C916   H1135   1.109   .     S
C916   H1134   1.110   .     S
C916   O1268   1.412   .     S
C916   H1133   1.115   .     S
C917   H1137   1.113   .     S
C917   H1136   1.113   .     S
C917   O1269   1.409   .     S
C917   H1138   1.109   .     S
C918   H1141   1.111   .     S
C918   H1139   1.114   .     S
C918   O1270   1.411   .     S
C918   H1142   1.109   .     S
C919   H1144   1.113   .     S
C919   H1145   1.109   .     S
C919   H1143   1.113   .     S
C919   O1271   1.409   .     S
C920   O1272   1.409   .     S
C920   H1146   1.113   .     S
C920   H1148   1.109   .     S
C920   H1147   1.113   .     S
C921   H1152   1.109   .     S
C921   H1149   1.115   .     S
C921   O1274   1.412   .     S
C921   H1150   1.110   .     S
C922   H1155   1.109   .     S
C922   H1153   1.111   .     S
C922   O1275   1.409   .     S
C922   H1154   1.114   .     S
C923   O1279   1.382   .     S
C923   C979    1.396   .     A
C923   C1432   1.410   1_455 S
C924   H1156   1.110   .     S
C924   H1158   1.109   .     S
C924   O1276   1.409   .     S
C924   H1157   1.114   .     S
C925   H1160   1.114   .     S
C925   H1159   1.110   .     S
C925   O1277   1.409   .     S
C925   H1161   1.109   .     S
C926   H1165   1.109   .     S
C926   H1163   1.111   .     S
C926   O1278   1.409   .     S
C926   H1164   1.114   .     S
C927   O1279   1.409   .     S
C927   H1168   1.109   .     S
C927   H1166   1.113   .     S
C927   H1167   1.113   .     S
C928   H1171   1.109   .     S
C928   O1280   1.412   .     S
C928   H1170   1.111   .     S
C928   H1169   1.114   .     S
C929   O1281   1.409   .     S
C929   H1175   1.109   .     S
C929   H1172   1.113   .     S
C929   H1174   1.113   .     S
C930   H1178   1.109   .     S
C930   H1177   1.111   .     S
C930   O1282   1.411   .     S
C930   H1176   1.114   .     S
C931   O1283   1.410   .     S
C931   H1179   1.109   .     S
C931   H1180   1.113   .     S
C931   H1181   1.113   .     S
C932   H1182   1.113   .     S
C932   O1285   1.412   .     S
C932   H1185   1.109   .     S
C932   H1183   1.109   .     S
C933   H1186   1.113   .     S
C933   O1286   1.410   .     S
C933   H1188   1.109   .     S
C933   H1187   1.113   .     S
C934   O1280   1.388   .     S
C934   C981    1.402   .     A
C934   C1433   1.410   .     S
C935   H1189   1.109   .     S
C935   H1190   1.114   .     S
C935   O1287   1.412   .     S
C935   H1191   1.111   .     S
C936   H1193   1.117   .     S
C936   O1288   1.416   .     S
C936   H1194   1.107   .     S
C936   H1192   1.110   .     S
C937   H1196   1.111   .     S
C937   O1289   1.412   .     S
C937   H1198   1.109   .     S
C937   H1197   1.114   .     S
C938   H1199   1.110   .     S
C938   H1201   1.114   .     S
C938   H1200   1.109   .     S
C938   O1290   1.411   .     S
C939   H1202   1.109   .     S
C939   O1291   1.415   .     S
C939   H1203   1.109   .     S
C939   H1204   1.116   .     S
C940   O1292   1.411   .     S
C940   H1205   1.109   .     S
C940   H1207   1.109   .     S
C940   H1208   1.113   .     S
C941   H1211   1.116   .     S
C941   H1210   1.110   .     S
C941   H1209   1.109   .     S
C941   O1293   1.417   .     S
C942   H1213   1.113   .     S
C942   H1214   1.113   .     S
C942   O1294   1.410   .     S
C942   H1212   1.109   .     S
C943   O1296   1.415   .     S
C943   H1216   1.109   .     S
C943   H1059   1.109   .     S
C943   H1215   1.117   .     S
C944   O1297   1.410   .     S
C944   H1060   1.113   .     S
C944   H1061   1.113   .     S
C944   H1062   1.109   .     S
C945   O1281   1.382   .     S
C945   C982    1.396   .     A
C946   H1063   1.109   .     S
C946   H1064   1.114   .     S
C946   O1298   1.412   .     S
C946   H1065   1.111   .     S
C947   H1067   1.109   .     S
C947   H1068   1.116   .     S
C947   O1299   1.413   .     S
C947   H1066   1.109   .     S
C948   H1072   1.109   .     S
C948   O1300   1.411   .     S
C948   H1070   1.111   .     S
C948   H1071   1.114   .     S
C949   O1301   1.410   .     S
C949   H1073   1.109   .     S
C949   H1075   1.113   .     S
C949   H1074   1.113   .     S
C950   H1078   1.108   .     S
C950   H1076   1.114   .     S
C950   O1302   1.412   .     S
C950   H1077   1.109   .     S
C951   O1303   1.410   .     S
C951   H1082   1.109   .     S
C951   H1079   1.113   .     S
C951   H1081   1.113   .     S
C952   H1083   1.109   .     S
C952   O1304   1.412   .     S
C952   H1084   1.114   .     S
C952   H1085   1.111   .     S
C953   H1087   1.109   .     S
C953   H1086   1.108   .     S
C953   H1088   1.116   .     S
C953   O1305   1.413   .     S
C954   H1089   1.113   .     S
C954   H1092   1.110   .     S
C954   H1090   1.113   .     S
C954   O1307   1.410   .     S
C955   H1093   1.109   .     S
C955   O1308   1.411   .     S
C955   H1094   1.109   .     S
C955   H1095   1.113   .     S
C956   C983    1.401   .     A
C956   O1282   1.387   .     S
C956   C104    1.410   1_565 S
C957   H1096   1.109   .     S
C957   H1097   1.110   .     S
C957   H1098   1.116   .     S
C957   O1309   1.414   .     S
C958   O1310   1.410   .     S
C958   H1100   1.110   .     S
C958   H1101   1.113   .     S
C958   H1099   1.109   .     S
C959   H1104   1.109   .     S
C959   H1103   1.109   .     S
C959   H1105   1.116   .     S
C959   O1311   1.415   .     S
C960   H1106   1.109   .     S
C960   H1108   1.114   .     S
C960   H1107   1.111   .     S
C960   O1312   1.412   .     S
C961   H1109   1.113   .     S
C961   O1313   1.412   .     S
C961   H1111   1.109   .     S
C961   H1110   1.109   .     S
C962   H1112   1.113   .     S
C962   H1114   1.113   .     S
C962   O1314   1.410   .     S
C962   H1115   1.109   .     S
C963   H1117   1.114   .     S
C963   O1315   1.412   .     S
C963   H1118   1.111   .     S
C963   H1116   1.109   .     S
C964   H1120   1.109   .     S
C964   O1316   1.412   .     S
C964   H1121   1.116   .     S
C964   H1119   1.108   .     S
C965   H1123   1.114   .     S
C965   H1122   1.111   .     S
C965   H1125   1.109   .     S
C965   O1219   1.411   .     S
C966   H1057   1.084   .     S
C967   H1129   1.084   .     S
C967   C969    1.395   .     A
C968   C980    1.404   .     A
C968   H1140   1.082   .     S
C969   O1267   1.383   .     S
C970   C991    1.396   .     A
C970   H1151   1.084   .     S
C970   C1352   1.399   .     S
C971   H1162   1.083   .     S
C971   C1002   1.401   .     A
C972   C1013   1.396   .     A
C972   H1173   1.084   .     S
C973   H1184   1.084   .     S
C973   C1024   1.396   .     A
C973   C1351   1.399   1_455 S
C974   C1035   1.404   .     A
C974   H1195   1.083   .     S
C975   H1206   1.084   .     S
C975   C1046   1.396   .     A
C976   H1058   1.084   .     S
C977   H1069   1.084   .     S
C978   H1080   1.084   .     S
C979   H1091   1.084   .     S
C979   C1353   1.399   1_455 S
C980   C986    1.409   .     A
C980   O1268   1.389   .     S
C981   H1102   1.083   .     S
C981   C1354   1.399   .     S
C982   H1113   1.084   .     S
C983   H1124   1.083   .     S
C983   C25     1.399   1_565 S
C984   C1002   1.410   .     A
C984   C1      1.412   1_565 S
C984   C985    1.472   1_554 S
C985   C1013   1.410   .     A
C985   C984    1.472   1_556 S
C985   C81     1.412   1_565 S
C986   C987    1.471   1_554 S
C986   C1468   1.408   .     S
C987   C991    1.409   .     A
C987   C986    1.471   1_556 S
C987   C1479   1.409   .     S
C988   C1046   1.412   .     A
C988   C1367   1.410   .     S
C988   C1433   1.472   .     S
C989   C1378   1.410   1_455 S
C989   C1432   1.472   1_455 S
C990   C57     1.410   1_565 S
C990   C104    1.472   1_565 S
C991   O1269   1.382   .     S
C993   O1306   1.279   .     A
C994   O1218   1.280   .     A
C994   O385    1.279   1_565 S
C995   O1284   1.281   .     A
C995   O1664   1.281   1_455 S
C996   O1295   1.281   .     A
C996   O1665   1.281   .     S
C997   O1222   1.280   .     A
C997   O1226   1.280   .     S
C998   O1667   1.280   .     A
C998   O1671   1.280   .     S
C999   O336    1.281   1_565 S
C999   O340    1.281   1_565 S
C1000  O337    1.281   1_565 S
C1000  O342    1.281   1_565 S
C1001  C1056   1.455   .     S
C1001  O1231   1.278   .     A
C1001  O1259   1.278   .     A
C1002  O1270   1.387   .     S
C1003  O1232   1.276   .     A
C1003  O1260   1.276   .     A
C1004  O1233   1.279   .     A
C1004  O1257   1.275   .     A
C1005  O1258   1.277   .     A
C1005  O1234   1.277   .     A
C1006  O1235   1.280   .     A
C1006  O1264   1.275   .     A
C1007  O1236   1.277   .     A
C1007  O1265   1.277   .     A
C1008  O1261   1.275   .     A
C1008  C1054   1.456   .     S
C1008  O1237   1.279   .     A
C1009  O1238   1.277   .     A
C1009  O1263   1.278   .     A
C1009  C1055   1.456   .     S
C1010  O1239   1.280   .     A
C1010  O1250   1.275   .     A
C1011  O1241   1.279   .     A
C1011  O1252   1.277   .     A
C1012  O1242   1.278   .     A
C1012  O1248   1.278   .     A
C1013  O1271   1.382   .     S
C1014  O1243   1.276   .     A
C1014  O1249   1.277   .     A
C1015  O1244   1.276   .     A
C1015  O1255   1.280   .     A
C1016  O1256   1.277   .     A
C1016  O1245   1.278   .     A
C1017  O1253   1.278   .     A
C1017  O1246   1.278   .     A
C1018  O1254   1.277   .     A
C1018  O1247   1.278   .     A
C1019  O1283   1.384   .     S
C1019  C1036   1.399   .     A
C1020  C1034   1.396   .     A
C1020  O1285   1.386   .     S
C1021  C1033   1.398   .     A
C1021  O1286   1.384   .     S
C1022  C1032   1.398   .     A
C1022  O1287   1.385   .     S
C1023  C1031   1.402   .     A
C1023  O1288   1.386   .     S
C1024  O1272   1.382   .     S
C1024  C1430   1.408   1_455 S
C1025  O1289   1.385   .     S
C1025  C1030   1.399   .     A
C1026  C1029   1.397   .     A
C1026  O1290   1.386   .     S
C1027  O1291   1.384   .     S
C1027  C1028   1.399   .     A
C1028  O1292   1.385   .     S
C1029  O1293   1.383   .     S
C1030  O1294   1.384   .     S
C1031  O1296   1.386   .     S
C1032  O1297   1.384   .     S
C1033  O1298   1.385   .     S
C1033  C1056   1.409   .     A
C1034  O1299   1.384   .     S
C1034  C1055   1.411   .     A
C1035  O1274   1.389   .     S
C1035  C1431   1.409   1_455 S
C1036  O1300   1.385   .     S
C1036  C1054   1.409   .     A
C1037  O1301   1.384   .     S
C1037  C1053   1.399   .     A
C1037  C1055   1.407   .     A
C1038  C1054   1.409   .     A
C1038  O1302   1.386   .     S
C1038  C1052   1.394   .     A
C1039  C1051   1.398   .     A
C1039  O1303   1.384   .     S
C1040  O1304   1.385   .     S
C1040  C1050   1.398   .     A
C1040  C1056   1.409   .     A
C1041  C1049   1.396   .     A
C1041  O1305   1.384   .     S
C1042  C1048   1.400   .     A
C1042  O1307   1.384   .     S
C1043  C1047   1.399   .     A
C1043  O1308   1.385   .     S
C1044  O1309   1.386   .     S
C1044  C1045   1.399   .     A
C1045  O1310   1.385   .     S
C1046  O1275   1.383   .     S
C1047  O1311   1.384   .     S
C1048  O1312   1.385   .     S
C1049  O1313   1.386   .     S
C1050  O1314   1.384   .     S
C1051  O1315   1.385   .     S
C1052  O1316   1.382   .     S
C1053  O1219   1.385   .     S
H1126  C914    1.111   1_556 S
H1130  C915    1.110   1_554 S
O1217  Zn1320  1.942   .     S
O1217  Zn1317  1.944   .     S
O1217  Zn1328  1.945   .     S
O1218  Zn1319  1.938   .     S
O1220  Zn1322  1.937   .     S
O1220  C1439   1.281   .     S
O1221  Zn1321  1.937   .     S
O1221  C1440   1.281   1_455 S
O1222  Zn1331  1.937   .     S
O1223  C1442   1.280   1_455 A
O1223  Zn1330  1.937   .     S
O1224  Zn1325  1.938   .     S
O1225  Zn1317  1.938   .     S
O1226  Zn1327  1.938   .     S
O1227  C1442   1.280   1_455 S
O1227  Zn1326  1.938   .     S
O1228  Zn1329  1.937   .     S
O1229  Zn1323  1.943   .     S
O1229  Zn1329  1.945   .     S
O1229  Zn1325  1.944   .     S
O1230  Zn1328  1.937   .     S
O1231  Zn1320  1.933   .     S
O1232  Zn1319  1.933   .     S
O1233  Zn1322  1.937   .     S
O1234  Zn1321  1.937   .     S
O1235  Zn1324  1.933   .     S
O1236  Zn1323  1.933   .     S
O1237  Zn1318  1.938   .     S
O1238  Zn1332  1.938   .     S
O1239  Zn1319  1.939   .     S
O1240  Zn1318  1.944   .     S
O1240  Zn1330  1.943   .     S
O1240  Zn1766  1.945   1_455 S
O1240  Zn1326  1.942   .     S
O1241  Zn1320  1.939   .     S
O1242  Zn1332  1.931   .     S
O1243  Zn1318  1.931   .     S
O1244  Zn1323  1.938   .     S
O1245  Zn1324  1.938   .     S
O1246  Zn1321  1.932   .     S
O1247  Zn1322  1.932   .     S
O1248  Zn1771  1.933   .     S
O1249  Zn1326  1.933   .     S
O1250  Zn441   1.937   1_565 S
O1251  Zn1327  1.942   .     S
O1251  Zn1321  1.945   .     S
O1251  Zn1331  1.943   .     S
O1251  Zn1776  1.944   1_455 S
O1252  Zn1328  1.937   .     S
O1253  Zn1331  1.933   .     S
O1254  Zn1774  1.933   .     S
O1255  Zn1325  1.938   .     S
O1256  Zn429   1.938   1_565 S
O1257  Zn1770  1.939   .     S
O1258  Zn1327  1.939   .     S
O1259  Zn1317  1.931   .     S
O1260  Zn437   1.931   1_565 S
O1261  Zn1330  1.938   .     S
O1262  Zn1324  1.937   .     S
O1262  C105    1.280   1_565 S
O1263  Zn1775  1.938   .     S
O1264  Zn440   1.932   1_565 S
O1265  Zn1329  1.932   .     S
O1273  Zn1323  1.937   .     S
O1284  Zn1318  1.938   .     S
O1295  Zn1332  1.938   .     S
O1306  Zn1320  1.938   .     S
Zn1319 O341    1.942   1_565 S
Zn1322 O1684   1.945   .     S
Zn1324 O329    1.943   1_565 S
Zn1326 O1701   1.939   1_455 S
Zn1327 O1692   1.933   1_455 S
Zn1330 O1698   1.933   1_455 S
Zn1331 O1707   1.938   1_455 S
Zn1332 O1695   1.944   .     S
C1333  O1710   1.383   .     S
C1333  C1410   1.394   .     A
C1334  C1420   1.394   .     A
C1334  C1433   1.412   .     A
C1334  O1720   1.383   .     S
C1335  C1476   1.405   .     A
C1335  C1447   1.449   .     S
C1335  C1483   1.405   .     A
C1336  C1486   1.406   .     A
C1336  C1448   1.455   .     S
C1336  C1475   1.409   .     A
C1337  C1474   1.407   .     A
C1337  C1449   1.456   .     S
C1337  C1485   1.411   .     A
C1338  C1473   1.408   .     A
C1338  C1488   1.411   .     A
C1338  C1450   1.452   .     S
C1339  C1451   1.450   .     S
C1339  C1472   1.406   .     A
C1339  C1487   1.406   .     A
C1340  C1461   1.453   .     S
C1340  C1491   1.409   .     A
C1340  C1471   1.409   .     A
C1341  C1470   1.405   .     A
C1341  C1462   1.451   .     S
C1341  C1489   1.408   .     A
C1342  C1454   1.457   .     S
C1342  C1493   1.409   .     A
C1342  C1469   1.409   .     A
C1343  C1492   1.407   .     A
C1343  C1467   1.411   .     A
C1343  C1455   1.459   .     S
C1344  C1495   1.409   .     A
C1344  C1466   1.409   .     A
C1344  C1456   1.455   .     S
C1345  C1434   1.412   .     A
C1345  O1721   1.383   .     S
C1345  C1421   1.395   .     A
C1346  C1458   1.449   .     S
C1346  C1465   1.405   .     A
C1346  C1494   1.405   .     A
C1347  C1464   1.410   .     A
C1347  C1497   1.409   .     A
C1347  C1459   1.457   .     S
C1348  C1496   1.411   .     A
C1348  C1463   1.407   .     A
C1348  C1460   1.457   .     S
C1349  C1415   1.399   .     A
C1349  C1444   1.460   .     S
C1349  C522    1.398   1_565 S
C1350  C1416   1.399   .     A
C1350  C1443   1.460   .     S
C1350  C523    1.399   1_565 S
C1351  C1412   1.400   .     A
C1351  C1442   1.461   .     S
C1351  C973    1.399   1_655 S
C1352  C1418   1.400   .     A
C1352  C1441   1.460   .     S
C1353  C1440   1.461   .     S
C1353  C1419   1.400   .     A
C1353  C979    1.399   1_655 S
C1354  C1439   1.460   .     S
C1354  C1420   1.398   .     A
C1355  C1421   1.399   .     A
C1355  C1438   1.460   .     S
C1355  C538    1.399   1_565 S
C1356  C1422   1.394   .     A
C1356  O1722   1.383   .     S
C1356  C1436   1.412   .     A
C1357  C1437   1.460   .     S
C1357  C1422   1.398   .     A
C1358  H1571   1.114   .     S
C1358  H1572   1.109   .     S
C1358  O1710   1.409   .     S
C1358  H1570   1.111   1_554 S
C1359  H1575   1.114   .     S
C1359  H1576   1.109   .     S
C1359  O1711   1.409   .     S
C1359  H1574   1.110   1_556 S
C1360  H1579   1.109   .     S
C1360  H1578   1.110   .     S
C1360  O1712   1.412   .     S
C1360  H1577   1.115   .     S
C1361  H1581   1.113   .     S
C1361  H1580   1.113   .     S
C1361  O1713   1.409   .     S
C1361  H1582   1.109   .     S
C1362  H1585   1.111   .     S
C1362  H1583   1.114   .     S
C1362  O1714   1.411   .     S
C1362  H1586   1.109   .     S
C1363  H1588   1.113   .     S
C1363  H1589   1.109   .     S
C1363  H1587   1.113   .     S
C1363  O1715   1.409   .     S
C1364  O1716   1.409   .     S
C1364  H1590   1.113   .     S
C1364  H1592   1.109   .     S
C1364  H1591   1.113   .     S
C1365  H1596   1.109   .     S
C1365  H1593   1.115   .     S
C1365  O1718   1.412   .     S
C1365  H1594   1.110   .     S
C1366  H1599   1.109   .     S
C1366  H1597   1.111   .     S
C1366  O1719   1.409   .     S
C1366  H1598   1.114   .     S
C1367  O1723   1.382   .     S
C1367  C1423   1.396   .     A
C1368  H1600   1.110   .     S
C1368  H1602   1.109   .     S
C1368  O1720   1.409   .     S
C1368  H1601   1.114   .     S
C1369  H1604   1.114   .     S
C1369  H1603   1.110   .     S
C1369  O1721   1.409   .     S
C1369  H1605   1.109   .     S
C1370  H1609   1.109   .     S
C1370  H1607   1.111   .     S
C1370  O1722   1.409   .     S
C1370  H1608   1.114   .     S
C1371  O1723   1.409   .     S
C1371  H1612   1.109   .     S
C1371  H1610   1.113   .     S
C1371  H1611   1.113   .     S
C1372  H1615   1.109   .     S
C1372  O1724   1.412   .     S
C1372  H1614   1.111   .     S
C1372  H1613   1.114   .     S
C1373  O1725   1.409   .     S
C1373  H1619   1.109   .     S
C1373  H1616   1.113   .     S
C1373  H1618   1.113   .     S
C1374  H1622   1.109   .     S
C1374  H1621   1.111   .     S
C1374  O1726   1.411   .     S
C1374  H1620   1.114   .     S
C1375  O1727   1.410   .     S
C1375  H1623   1.109   .     S
C1375  H1624   1.113   .     S
C1375  H1625   1.113   .     S
C1376  H1626   1.113   .     S
C1376  O1729   1.412   .     S
C1376  H1629   1.109   .     S
C1376  H1627   1.109   .     S
C1377  H1630   1.113   .     S
C1377  O1730   1.410   .     S
C1377  H1632   1.109   .     S
C1377  H1631   1.113   .     S
C1378  O1724   1.388   .     S
C1378  C1425   1.402   .     A
C1378  C989    1.410   1_655 S
C1379  H1633   1.109   .     S
C1379  H1634   1.114   .     S
C1379  O1731   1.412   .     S
C1379  H1635   1.111   .     S
C1380  H1637   1.117   .     S
C1380  O1732   1.416   .     S
C1380  H1638   1.107   .     S
C1380  H1636   1.110   .     S
C1381  H1640   1.111   .     S
C1381  O1733   1.412   .     S
C1381  H1642   1.109   .     S
C1381  H1641   1.114   .     S
C1382  H1643   1.110   .     S
C1382  H1645   1.114   .     S
C1382  H1644   1.109   .     S
C1382  O1734   1.411   .     S
C1383  H1646   1.109   .     S
C1383  O1735   1.415   .     S
C1383  H1647   1.109   .     S
C1383  H1648   1.116   .     S
C1384  O1736   1.411   .     S
C1384  H1649   1.109   .     S
C1384  H1651   1.109   .     S
C1384  H1652   1.113   .     S
C1385  H1655   1.116   .     S
C1385  H1654   1.110   .     S
C1385  H1653   1.109   .     S
C1385  O1737   1.417   .     S
C1386  H1657   1.113   .     S
C1386  H1658   1.113   .     S
C1386  O1738   1.410   .     S
C1386  H1656   1.109   .     S
C1387  O1740   1.415   .     S
C1387  H1660   1.109   .     S
C1387  H1503   1.109   .     S
C1387  H1659   1.117   .     S
C1388  O1741   1.410   .     S
C1388  H1504   1.113   .     S
C1388  H1505   1.113   .     S
C1388  H1506   1.109   .     S
C1389  O1725   1.382   .     S
C1389  C1426   1.396   .     A
C1390  H1507   1.109   .     S
C1390  H1508   1.114   .     S
C1390  O1742   1.412   .     S
C1390  H1509   1.111   .     S
C1391  H1511   1.109   .     S
C1391  H1512   1.116   .     S
C1391  O1743   1.413   .     S
C1391  H1510   1.109   .     S
C1392  H1516   1.109   .     S
C1392  O1744   1.411   .     S
C1392  H1514   1.111   .     S
C1392  H1515   1.114   .     S
C1393  O1745   1.410   .     S
C1393  H1517   1.109   .     S
C1393  H1519   1.113   .     S
C1393  H1518   1.113   .     S
C1394  H1522   1.108   .     S
C1394  H1520   1.114   .     S
C1394  O1746   1.412   .     S
C1394  H1521   1.109   .     S
C1395  O1747   1.410   .     S
C1395  H1526   1.109   .     S
C1395  H1523   1.113   .     S
C1395  H1525   1.113   .     S
C1396  H1527   1.109   .     S
C1396  O1748   1.412   .     S
C1396  H1528   1.114   .     S
C1396  H1529   1.111   .     S
C1397  H1531   1.109   .     S
C1397  H1530   1.108   .     S
C1397  H1532   1.116   .     S
C1397  O1749   1.413   .     S
C1398  H1533   1.113   .     S
C1398  H1536   1.110   .     S
C1398  H1534   1.113   .     S
C1398  O1751   1.410   .     S
C1399  H1537   1.109   .     S
C1399  O1752   1.411   .     S
C1399  H1538   1.109   .     S
C1399  H1539   1.113   .     S
C1400  C1427   1.401   .     A
C1400  O1726   1.387   .     S
C1400  C548    1.410   1_565 S
C1401  H1540   1.109   .     S
C1401  H1541   1.110   .     S
C1401  H1542   1.116   .     S
C1401  O1753   1.414   .     S
C1402  O1754   1.410   .     S
C1402  H1544   1.110   .     S
C1402  H1545   1.113   .     S
C1402  H1543   1.109   .     S
C1403  H1548   1.109   .     S
C1403  H1547   1.109   .     S
C1403  H1549   1.116   .     S
C1403  O1755   1.415   .     S
C1404  H1550   1.109   .     S
C1404  H1552   1.114   .     S
C1404  H1551   1.111   .     S
C1404  O1756   1.412   .     S
C1405  H1553   1.113   .     S
C1405  O1757   1.412   .     S
C1405  H1555   1.109   .     S
C1405  H1554   1.109   .     S
C1406  H1556   1.113   .     S
C1406  H1558   1.113   .     S
C1406  O1758   1.410   .     S
C1406  H1559   1.109   .     S
C1407  H1561   1.114   .     S
C1407  O1759   1.412   .     S
C1407  H1562   1.111   .     S
C1407  H1560   1.109   .     S
C1408  H1564   1.109   .     S
C1408  O1760   1.412   .     S
C1408  H1565   1.116   .     S
C1408  H1563   1.108   .     S
C1409  H1567   1.114   .     S
C1409  H1566   1.111   .     S
C1409  H1569   1.109   .     S
C1409  O1663   1.411   .     S
C1410  H1501   1.084   .     S
C1411  H1573   1.084   .     S
C1411  C1413   1.395   .     A
C1412  C1424   1.404   .     A
C1412  H1584   1.082   .     S
C1413  O1711   1.383   .     S
C1414  C1435   1.396   .     A
C1414  H1595   1.084   .     S
C1414  C908    1.399   1_655 S
C1415  H1606   1.083   .     S
C1415  C1446   1.401   .     A
C1416  C1457   1.396   .     A
C1416  H1617   1.084   .     S
C1417  H1628   1.084   .     S
C1417  C1468   1.396   .     A
C1418  C1479   1.404   .     A
C1418  H1639   1.083   .     S
C1419  H1650   1.084   .     S
C1419  C1490   1.396   .     A
C1420  H1502   1.084   .     S
C1421  H1513   1.084   .     S
C1422  H1524   1.084   .     S
C1423  H1535   1.084   .     S
C1424  C1430   1.409   .     A
C1424  O1712   1.389   .     S
C1425  H1546   1.083   .     S
C1425  C910    1.399   1_655 S
C1426  H1557   1.084   .     S
C1427  H1568   1.083   .     S
C1427  C469    1.399   1_565 S
C1428  C1446   1.410   .     A
C1428  C445    1.412   1_565 S
C1428  C1429   1.472   1_554 S
C1429  C1457   1.410   .     A
C1429  C1428   1.472   1_556 S
C1429  C525    1.412   1_565 S
C1430  C1431   1.471   1_554 S
C1430  C1024   1.408   1_655 S
C1431  C1435   1.409   .     A
C1431  C1430   1.471   1_556 S
C1431  C1035   1.409   1_655 S
C1432  C1490   1.412   .     A
C1432  C923    1.410   1_655 S
C1432  C989    1.472   1_655 S
C1434  C501    1.410   1_565 S
C1434  C548    1.472   1_565 S
C1435  O1713   1.382   .     S
C1437  O1750   1.279   .     A
C1438  O1662   1.280   .     A
C1438  O829    1.279   1_565 S
C1439  O1728   1.281   .     A
C1440  O1739   1.281   .     A
C1440  O1221   1.281   1_655 S
C1441  O1666   1.280   .     A
C1441  O1670   1.280   .     S
C1442  O1223   1.280   1_655 A
C1442  O1227   1.280   1_655 S
C1443  O780    1.281   1_565 S
C1443  O784    1.281   1_565 S
C1444  O781    1.281   1_565 S
C1444  O786    1.281   1_565 S
C1445  C1500   1.455   .     S
C1445  O1675   1.278   .     A
C1445  O1703   1.278   .     A
C1446  O1714   1.387   .     S
C1447  O1676   1.276   .     A
C1447  O1704   1.276   .     A
C1448  O1677   1.279   .     A
C1448  O1701   1.275   .     A
C1449  O1702   1.277   .     A
C1449  O1678   1.277   .     A
C1450  O1679   1.280   .     A
C1450  O1708   1.275   .     A
C1451  O1680   1.277   .     A
C1451  O1709   1.277   .     A
C1452  O1705   1.275   .     A
C1452  C1498   1.456   .     S
C1452  O1681   1.279   .     A
C1453  O1682   1.277   .     A
C1453  O1707   1.278   .     A
C1453  C1499   1.456   .     S
C1454  O1683   1.280   .     A
C1454  O1694   1.275   .     A
C1455  O1685   1.279   .     A
C1455  O1696   1.277   .     A
C1456  O1686   1.278   .     A
C1456  O1692   1.278   .     A
C1457  O1715   1.382   .     S
C1458  O1687   1.276   .     A
C1458  O1693   1.277   .     A
C1459  O1688   1.276   .     A
C1459  O1699   1.280   .     A
C1460  O1700   1.277   .     A
C1460  O1689   1.278   .     A
C1461  O1697   1.278   .     A
C1461  O1690   1.278   .     A
C1462  O1698   1.277   .     A
C1462  O1691   1.278   .     A
C1463  O1727   1.384   .     S
C1463  C1480   1.399   .     A
C1464  C1478   1.396   .     A
C1464  O1729   1.386   .     S
C1465  C1477   1.398   .     A
C1465  O1730   1.384   .     S
C1466  C1476   1.398   .     A
C1466  O1731   1.385   .     S
C1467  C1475   1.402   .     A
C1467  O1732   1.386   .     S
C1468  O1716   1.382   .     S
C1469  O1733   1.385   .     S
C1469  C1474   1.399   .     A
C1470  C1473   1.397   .     A
C1470  O1734   1.386   .     S
C1471  O1735   1.384   .     S
C1471  C1472   1.399   .     A
C1472  O1736   1.385   .     S
C1473  O1737   1.383   .     S
C1474  O1738   1.384   .     S
C1475  O1740   1.386   .     S
C1476  O1741   1.384   .     S
C1477  O1742   1.385   .     S
C1477  C1500   1.409   .     A
C1478  O1743   1.384   .     S
C1478  C1499   1.411   .     A
C1479  O1718   1.389   .     S
C1480  O1744   1.385   .     S
C1480  C1498   1.409   .     A
C1481  O1745   1.384   .     S
C1481  C1497   1.399   .     A
C1481  C1499   1.407   .     A
C1482  C1498   1.409   .     A
C1482  O1746   1.386   .     S
C1482  C1496   1.394   .     A
C1483  C1495   1.398   .     A
C1483  O1747   1.384   .     S
C1484  O1748   1.385   .     S
C1484  C1494   1.398   .     A
C1484  C1500   1.409   .     A
C1485  C1493   1.396   .     A
C1485  O1749   1.384   .     S
C1486  C1492   1.400   .     A
C1486  O1751   1.384   .     S
C1487  C1491   1.399   .     A
C1487  O1752   1.385   .     S
C1488  O1753   1.386   .     S
C1488  C1489   1.399   .     A
C1489  O1754   1.385   .     S
C1490  O1719   1.383   .     S
C1491  O1755   1.384   .     S
C1492  O1756   1.385   .     S
C1493  O1757   1.386   .     S
C1494  O1758   1.384   .     S
C1495  O1759   1.385   .     S
C1496  O1760   1.382   .     S
C1497  O1663   1.385   .     S
H1570  C1358   1.111   1_556 S
H1574  C1359   1.110   1_554 S
O1661  Zn1764  1.942   .     S
O1661  Zn1761  1.944   .     S
O1661  Zn1772  1.945   .     S
O1662  Zn1763  1.938   .     S
O1664  Zn1766  1.937   .     S
O1664  C995    1.281   1_655 S
O1665  Zn1765  1.937   .     S
O1666  Zn1775  1.937   .     S
O1667  Zn1774  1.937   .     S
O1668  Zn1769  1.938   .     S
O1669  Zn1761  1.938   .     S
O1670  Zn1771  1.938   .     S
O1671  Zn1770  1.938   .     S
O1672  Zn1773  1.937   .     S
O1673  Zn1767  1.943   .     S
O1673  Zn1773  1.945   .     S
O1673  Zn1769  1.944   .     S
O1674  Zn1772  1.937   .     S
O1675  Zn1764  1.933   .     S
O1676  Zn1763  1.933   .     S
O1677  Zn1766  1.937   .     S
O1678  Zn1765  1.937   .     S
O1679  Zn1768  1.933   .     S
O1680  Zn1767  1.933   .     S
O1681  Zn1762  1.938   .     S
O1682  Zn1776  1.938   .     S
O1683  Zn1763  1.939   .     S
O1684  Zn1762  1.944   .     S
O1684  Zn1774  1.943   .     S
O1684  Zn1770  1.942   .     S
O1685  Zn1764  1.939   .     S
O1686  Zn1776  1.931   .     S
O1687  Zn1762  1.931   .     S
O1688  Zn1767  1.938   .     S
O1689  Zn1768  1.938   .     S
O1690  Zn1765  1.932   .     S
O1691  Zn1766  1.932   .     S
O1692  Zn1327  1.933   1_655 S
O1693  Zn1770  1.933   .     S
O1694  Zn885   1.937   1_565 S
O1695  Zn1771  1.942   .     S
O1695  Zn1765  1.945   .     S
O1695  Zn1775  1.943   .     S
O1696  Zn1772  1.937   .     S
O1697  Zn1775  1.933   .     S
O1698  Zn1330  1.933   1_655 S
O1699  Zn1769  1.938   .     S
O1700  Zn873   1.938   1_565 S
O1701  Zn1326  1.939   1_655 S
O1702  Zn1771  1.939   .     S
O1703  Zn1761  1.931   .     S
O1704  Zn881   1.931   1_565 S
O1705  Zn1774  1.938   .     S
O1706  Zn1768  1.937   .     S
O1706  C549    1.280   1_565 S
O1707  Zn1331  1.938   1_655 S
O1708  Zn884   1.932   1_565 S
O1709  Zn1773  1.932   .     S
O1717  Zn1767  1.937   .     S
O1728  Zn1762  1.938   .     S
O1739  Zn1776  1.938   .     S
O1750  Zn1764  1.938   .     S
Zn1763 O785    1.942   1_565 S
Zn1766 O1240   1.945   1_655 S
Zn1768 O773    1.943   1_565 S
Zn1776 O1251   1.944   1_655 S
