data_str_m1_o1_o2_pcu_sym.95
_audit_creation_date              2020-01-03
_audit_creation_method            'Materials Studio'
_symmetry_space_group_name_H-M    'P1'
_symmetry_Int_Tables_number       1
_symmetry_cell_setting            triclinic
loop_
_symmetry_equiv_pos_as_xyz
  x,y,z
_cell_length_a                    36.6148
_cell_length_b                    36.6108
_cell_length_c                    34.6161
_cell_angle_alpha                 90.0242
_cell_angle_beta                  89.9811
_cell_angle_gamma                 90.0332
loop_
_atom_site_label
_atom_site_type_symbol
_atom_site_fract_x
_atom_site_fract_y
_atom_site_fract_z
_atom_site_U_iso_or_equiv
_atom_site_adp_type
_atom_site_occupancy
C1     C     0.21903   0.01329   0.04151   0.00000  Uiso   1.00
C2     C     0.02987   0.26381   0.45873   0.00000  Uiso   1.00
C3     C     0.34818   0.40191   0.74993   0.00000  Uiso   1.00
C4     C     0.40191   0.15183   0.25007   0.00000  Uiso   1.00
C5     C     0.09814   0.34813   0.75000   0.00000  Uiso   1.00
C6     C     0.34801   0.40173   0.24978   0.00000  Uiso   1.00
C7     C     0.15183   0.09810   0.74996   0.00000  Uiso   1.00
C8     C     0.09807   0.15181   0.74988   0.00000  Uiso   1.00
C9     C     0.40171   0.34797   0.24974   0.00000  Uiso   1.00
C10    C     0.15190   0.40185   0.75005   0.00000  Uiso   1.00
C11    C     0.34813   0.09813   0.25002   0.00000  Uiso   1.00
C12    C     0.40195   0.34821   0.74985   0.00000  Uiso   1.00
C13    C     0.21970   0.48547   0.54266   0.00000  Uiso   1.00
C14    C     0.09809   0.15183   0.25008   0.00000  Uiso   1.00
C15    C     0.34809   0.09816   0.75007   0.00000  Uiso   1.00
C16    C     0.15197   0.40177   0.24984   0.00000  Uiso   1.00
C17    C     0.24972   0.49993   0.10210   0.00000  Uiso   1.00
C18    C     0.24974   0.00043   0.89762   0.00000  Uiso   1.00
C19    C     0.49997   0.25004   0.10193   0.00000  Uiso   1.00
C20    C     0.00021   0.25002   0.89710   0.00000  Uiso   1.00
C21    C     0.49996   0.24955   0.60225   0.00000  Uiso   1.00
C22    C    -0.00000   0.24959   0.39777   0.00000  Uiso   1.00
C23    C     0.24997   0.49999   0.60296   0.00000  Uiso   1.00
C24    C     0.25600   0.03299   0.45897   0.00000  Uiso   1.00
C25    C     0.24998   0.00003   0.39807   0.00000  Uiso   1.00
C26    C     0.19111   0.06484   0.01912   0.00000  Uiso   1.00
C27    C     0.15385   0.07970   0.00695   0.00000  Uiso   1.00
C28    C     0.15460   0.12116   0.00239   0.00000  Uiso   1.00
C29    C     0.29541   0.07168   0.98690   0.00000  Uiso   1.00
C30    C     0.32806   0.09183   0.00427   0.00000  Uiso   1.00
C31    C     0.31775   0.13055   0.01645   0.00000  Uiso   1.00
C32    C     0.47910   0.16833   0.00815   0.00000  Uiso   1.00
C33    C     0.45685   0.15031   0.04055   0.00000  Uiso   1.00
C34    C     0.42627   0.12652   0.02424   0.00000  Uiso   1.00
C35    C     0.02891   0.23242   0.54166   0.00000  Uiso   1.00
C36    C     0.41695   0.25828   0.99106   0.00000  Uiso   1.00
C37    C     0.39367   0.24143   0.95875   0.00000  Uiso   1.00
C38    C     0.36212   0.21914   0.97531   0.00000  Uiso   1.00
C39    C     0.30872   0.44125   0.00688   0.00000  Uiso   1.00
C40    C     0.30745   0.41190   0.03855   0.00000  Uiso   1.00
C41    C     0.31008   0.37363   0.02129   0.00000  Uiso   1.00
C42    C     0.19913   0.43273   0.99056   0.00000  Uiso   1.00
C43    C     0.19441   0.40443   0.95829   0.00000  Uiso   1.00
C44    C     0.19558   0.36559   0.97419   0.00000  Uiso   1.00
C45    C     0.02292   0.33114   0.00728   0.00000  Uiso   1.00
C46    C     0.47026   0.23382   0.45838   0.00000  Uiso   1.00
C47    C     0.04892   0.34460   0.03908   0.00000  Uiso   1.00
C48    C     0.08060   0.36642   0.02206   0.00000  Uiso   1.00
C49    C     0.08478   0.24140   0.98914   0.00000  Uiso   1.00
C50    C     0.11016   0.25328   0.95621   0.00000  Uiso   1.00
C51    C     0.14326   0.27407   0.97151   0.00000  Uiso   1.00
C52    C     0.45018   0.31710   0.51261   0.00000  Uiso   1.00
C53    C     0.41702   0.33482   0.49351   0.00000  Uiso   1.00
C54    C     0.42535   0.37394   0.48111   0.00000  Uiso   1.00
C55    C     0.05494   0.31462   0.48636   0.00000  Uiso   1.00
C56    C     0.09109   0.33046   0.50074   0.00000  Uiso   1.00
C57    C     0.28008   0.01466   0.54259   0.00000  Uiso   1.00
C58    C     0.08752   0.37090   0.51074   0.00000  Uiso   1.00
C59    C     0.16565   0.49673   0.51015   0.00000  Uiso   1.00
C60    C     0.14311   0.01361   0.54300   0.00000  Uiso   1.00
C61    C     0.11265   0.03777   0.52723   0.00000  Uiso   1.00
C62    C     0.23324   0.08287   0.49230   0.00000  Uiso   1.00
C63    C     0.21123   0.10154   0.46016   0.00000  Uiso   1.00
C64    C     0.18193   0.12665   0.47684   0.00000  Uiso   1.00
C65    C     0.04906   0.18014   0.51299   0.00000  Uiso   1.00
C66    C     0.08194   0.16231   0.49344   0.00000  Uiso   1.00
C67    C     0.07317   0.12341   0.48057   0.00000  Uiso   1.00
C68    C     0.24372   0.46719   0.45897   0.00000  Uiso   1.00
C69    C     0.44400   0.18134   0.48091   0.00000  Uiso   1.00
C70    C     0.40680   0.16519   0.49137   0.00000  Uiso   1.00
C71    C     0.40865   0.12374   0.49563   0.00000  Uiso   1.00
C72    C     0.33393   0.00347   0.50961   0.00000  Uiso   1.00
C73    C     0.35629   0.48588   0.54216   0.00000  Uiso   1.00
C74    C     0.38660   0.46176   0.52594   0.00000  Uiso   1.00
C75    C     0.26635   0.41732   0.49237   0.00000  Uiso   1.00
C76    C     0.28796   0.39799   0.46034   0.00000  Uiso   1.00
C77    C     0.31702   0.37273   0.47717   0.00000  Uiso   1.00
C78    C     0.16407   0.48673   0.10617   0.00000  Uiso   1.00
C79    C     0.21769   0.00954   0.08159   0.00000  Uiso   1.00
C80    C     0.13360   0.48427   0.07597   0.00000  Uiso   1.00
C81    C     0.10676   0.45371   0.08566   0.00000  Uiso   1.00
C82    C     0.33834   0.00628   0.89955   0.00000  Uiso   1.00
C83    C     0.36802   0.01975   0.87197   0.00000  Uiso   1.00
C84    C     0.40029   0.49343   0.87065   0.00000  Uiso   1.00
C85    C     0.05357   0.18138   0.10266   0.00000  Uiso   1.00
C86    C     0.06227   0.14430   0.12062   0.00000  Uiso   1.00
C87    C     0.10337   0.13862   0.12486   0.00000  Uiso   1.00
C88    C     0.45028   0.32413   0.89849   0.00000  Uiso   1.00
C89    C     0.41896   0.34268   0.87696   0.00000  Uiso   1.00
C90    C     0.27944   0.01560   0.91803   0.00000  Uiso   1.00
C91    C     0.42255   0.38420   0.87805   0.00000  Uiso   1.00
C92    C     0.33721   0.01255   0.09992   0.00000  Uiso   1.00
C93    C     0.36945   0.00563   0.12695   0.00000  Uiso   1.00
C94    C     0.39596   0.03783   0.12689   0.00000  Uiso   1.00
C95    C     0.16106   0.49639   0.89855   0.00000  Uiso   1.00
C96    C     0.13104   0.48258   0.87159   0.00000  Uiso   1.00
C97    C     0.09918   0.00935   0.86961   0.00000  Uiso   1.00
C98    C     0.44723   0.31608   0.10998   0.00000  Uiso   1.00
C99    C     0.42661   0.34093   0.08198   0.00000  Uiso   1.00
C100   C     0.38750   0.34749   0.09551   0.00000  Uiso   1.00
C101   C     0.00744   0.21758   0.08133   0.00000  Uiso   1.00
C102   C     0.05090   0.17611   0.89809   0.00000  Uiso   1.00
C103   C     0.08307   0.15797   0.87755   0.00000  Uiso   1.00
C104   C     0.08048   0.11641   0.87928   0.00000  Uiso   1.00
C105   C     0.41111   0.25212   0.60087   0.00000  Uiso   1.00
C106   C     0.38107   0.26519   0.62821   0.00000  Uiso   1.00
C107   C     0.34957   0.23793   0.63003   0.00000  Uiso   1.00
C108   C     0.08904   0.25016   0.39893   0.00000  Uiso   1.00
C109   C     0.11928   0.26294   0.37166   0.00000  Uiso   1.00
C110   C     0.15061   0.23551   0.37014   0.00000  Uiso   1.00
C111   C     0.19567   0.42875   0.60165   0.00000  Uiso   1.00
C112   C     0.27782   0.01842   0.95824   0.00000  Uiso   1.00
C113   C     0.47284   0.26888   0.91728   0.00000  Uiso   1.00
C114   C     0.16284   0.41204   0.62242   0.00000  Uiso   1.00
C115   C     0.16316   0.37042   0.61997   0.00000  Uiso   1.00
C116   C     0.30607   0.06670   0.39699   0.00000  Uiso   1.00
C117   C     0.31600   0.10357   0.37922   0.00000  Uiso   1.00
C118   C     0.35724   0.10787   0.37462   0.00000  Uiso   1.00
C119   C     0.08864   0.24723   0.60054   0.00000  Uiso   1.00
C120   C     0.11888   0.23498   0.62803   0.00000  Uiso   1.00
C121   C     0.15013   0.26256   0.62912   0.00000  Uiso   1.00
C122   C     0.41083   0.24842   0.39931   0.00000  Uiso   1.00
C123   C     0.38028   0.23574   0.37239   0.00000  Uiso   1.00
C124   C     0.28175   0.49077   0.08146   0.00000  Uiso   1.00
C125   C     0.34852   0.26270   0.37221   0.00000  Uiso   1.00
C126   C     0.30396   0.07135   0.60170   0.00000  Uiso   1.00
C127   C     0.33638   0.08822   0.62301   0.00000  Uiso   1.00
C128   C     0.33570   0.12985   0.62088   0.00000  Uiso   1.00
C129   C     0.19400   0.43336   0.39672   0.00000  Uiso   1.00
C130   C     0.18419   0.39632   0.37925   0.00000  Uiso   1.00
C131   C     0.14301   0.39212   0.37403   0.00000  Uiso   1.00
C132   C     0.21956   0.48603   0.91794   0.00000  Uiso   1.00
C133   C     0.49284   0.28261   0.08128   0.00000  Uiso   1.00
C134   C     0.02778   0.23119   0.91698   0.00000  Uiso   1.00
C135   C     0.46955   0.26317   0.58172   0.00000  Uiso   1.00
C136   C     0.03083   0.26226   0.41836   0.00000  Uiso   1.00
C137   C     0.22149   0.48266   0.58298   0.00000  Uiso   1.00
C138   C     0.25866   0.03220   0.41866   0.00000  Uiso   1.00
C139   C     0.03025   0.23534   0.58191   0.00000  Uiso   1.00
C140   C     0.00487   0.21697   0.04104   0.00000  Uiso   1.00
C141   C     0.46923   0.23634   0.41805   0.00000  Uiso   1.00
C142   C     0.27838   0.01737   0.58293   0.00000  Uiso   1.00
C143   C     0.24125   0.46790   0.41866   0.00000  Uiso   1.00
C144   C     0.24970   0.00053   0.02101   0.00000  Uiso   1.00
C145   C     0.24930   0.00100   0.97857   0.00000  Uiso   1.00
C146   C     0.00079   0.25017   0.02057   0.00000  Uiso   1.00
C147   C     0.00054   0.25004   0.97796   0.00000  Uiso   1.00
C148   C     0.49978   0.24852   0.52124   0.00000  Uiso   1.00
C149   C     0.00000   0.24867   0.47879   0.00000  Uiso   1.00
C150   C     0.24986   0.00009   0.52210   0.00000  Uiso   1.00
C151   C     0.47115   0.26631   0.95762   0.00000  Uiso   1.00
C152   C     0.24981   0.00010   0.47946   0.00000  Uiso   1.00
C153   C     0.25001   0.00001   0.35537   0.00000  Uiso   1.00
C154   C     0.25000   0.49999   0.64499   0.00000  Uiso   1.00
C155   C    -0.00000   0.24996   0.35527   0.00000  Uiso   1.00
C156   C    -0.00000   0.24995   0.64474   0.00000  Uiso   1.00
C157   C     0.00003   0.25001   0.85503   0.00000  Uiso   1.00
C158   C     0.49998   0.25000   0.14463   0.00000  Uiso   1.00
C159   C     0.24996   0.00007   0.85522   0.00000  Uiso   1.00
C160   C     0.24995   0.49998   0.14469   0.00000  Uiso   1.00
C161   C     0.17994   0.07008   0.25000   0.00000  Uiso   1.00
C162   C     0.28073   0.48780   0.04120   0.00000  Uiso   1.00
C163   C     0.32007   0.42993   0.74999   0.00000  Uiso   1.00
C164   C     0.42995   0.17992   0.25003   0.00000  Uiso   1.00
C165   C     0.07007   0.32007   0.74999   0.00000  Uiso   1.00
C166   C     0.32004   0.42990   0.24994   0.00000  Uiso   1.00
C167   C     0.17992   0.07007   0.75000   0.00000  Uiso   1.00
C168   C     0.07006   0.32007   0.25001   0.00000  Uiso   1.00
C169   C     0.42993   0.17993   0.75000   0.00000  Uiso   1.00
C170   C     0.17994   0.42993   0.75001   0.00000  Uiso   1.00
C171   C     0.32007   0.07007   0.25001   0.00000  Uiso   1.00
C172   C     0.42996   0.32009   0.74997   0.00000  Uiso   1.00
C173   C     0.22068   0.48360   0.95822   0.00000  Uiso   1.00
C174   C     0.07006   0.17992   0.25001   0.00000  Uiso   1.00
C175   C     0.32006   0.07007   0.75001   0.00000  Uiso   1.00
C176   C     0.17996   0.42990   0.24996   0.00000  Uiso   1.00
C177   C     0.07006   0.17992   0.74997   0.00000  Uiso   1.00
C178   C     0.42988   0.32002   0.24992   0.00000  Uiso   1.00
C179   C     0.12057   0.40618   0.22717   0.00000  Uiso   1.00
C180   C     0.37909   0.09415   0.77342   0.00000  Uiso   1.00
C181   C     0.09346   0.12016   0.22787   0.00000  Uiso   1.00
C182   C     0.40624   0.37951   0.77272   0.00000  Uiso   1.00
C183   C     0.37989   0.09333   0.22801   0.00000  Uiso   1.00
C184   C     0.49633   0.28335   0.04110   0.00000  Uiso   1.00
C185   C     0.12111   0.40566   0.77376   0.00000  Uiso   1.00
C186   C     0.40335   0.37657   0.22289   0.00000  Uiso   1.00
C187   C     0.09396   0.12073   0.77309   0.00000  Uiso   1.00
C188   C     0.12076   0.09404   0.77321   0.00000  Uiso   1.00
C189   C     0.37662   0.40335   0.22292   0.00000  Uiso   1.00
C190   C     0.09436   0.37890   0.77375   0.00000  Uiso   1.00
C191   C     0.40663   0.12011   0.22795   0.00000  Uiso   1.00
C192   C     0.37943   0.40619   0.77286   0.00000  Uiso   1.00
C193   C     0.12028   0.09351   0.22771   0.00000  Uiso   1.00
C194   C     0.40584   0.12091   0.77341   0.00000  Uiso   1.00
C195   C     0.02976   0.23377   0.95732   0.00000  Uiso   1.00
C196   C     0.09380   0.37944   0.22720   0.00000  Uiso   1.00
C197   C     0.37083   0.15591   0.72672   0.00000  Uiso   1.00
C198   C     0.12959   0.34363   0.27254   0.00000  Uiso   1.00
C199   C     0.34400   0.37071   0.72686   0.00000  Uiso   1.00
C200   C     0.15643   0.12971   0.27243   0.00000  Uiso   1.00
C201   C     0.12895   0.34431   0.72631   0.00000  Uiso   1.00
C202   C     0.37019   0.15659   0.27216   0.00000  Uiso   1.00
C203   C     0.15585   0.12910   0.72659   0.00000  Uiso   1.00
C204   C     0.34626   0.37300   0.27646   0.00000  Uiso   1.00
C205   C     0.37298   0.34624   0.27644   0.00000  Uiso   1.00
C206   C     0.47068   0.26503   0.54139   0.00000  Uiso   1.00
C207   C     0.12910   0.15585   0.72657   0.00000  Uiso   1.00
C208   C     0.34336   0.12992   0.27199   0.00000  Uiso   1.00
C209   C     0.15574   0.37102   0.72640   0.00000  Uiso   1.00
C210   C     0.12968   0.15647   0.27241   0.00000  Uiso   1.00
C211   C     0.37075   0.34397   0.72684   0.00000  Uiso   1.00
C212   C     0.15644   0.37028   0.27233   0.00000  Uiso   1.00
C213   C     0.34403   0.12921   0.72681   0.00000  Uiso   1.00
C214   C     0.09816   0.34809   0.24995   0.00000  Uiso   1.00
C215   C     0.40185   0.15188   0.75002   0.00000  Uiso   1.00
C216   C     0.15188   0.09814   0.25002   0.00000  Uiso   1.00
H217   H     0.11662   0.43028   0.20951   0.00000  Uiso   1.00
H218   H     0.37837   0.42522   0.20193   0.00000  Uiso   1.00
H219   H     0.07935   0.38677   0.48480   0.00000  Uiso   1.00
H220   H     0.11419   0.38143   0.52122   0.00000  Uiso   1.00
H221   H     0.06684   0.37482   0.53387   0.00000  Uiso   1.00
H222   H     0.14663   0.48290   0.48987   0.00000  Uiso   1.00
H223   H     0.17958   0.01811   0.49291   0.00000  Uiso   1.00
H224   H     0.13084   0.49150   0.56078   0.00000  Uiso   1.00
H225   H     0.16109   0.03046   0.56175   0.00000  Uiso   1.00
H226   H     0.12425   0.05963   0.50875   0.00000  Uiso   1.00
H227   H     0.09764   0.05062   0.55157   0.00000  Uiso   1.00
H228   H     0.09313   0.02126   0.50996   0.00000  Uiso   1.00
H229   H     0.07075   0.38238   0.79226   0.00000  Uiso   1.00
H230   H     0.24276   0.10419   0.51282   0.00000  Uiso   1.00
H231   H     0.21576   0.06426   0.50952   0.00000  Uiso   1.00
H232   H     0.22989   0.11796   0.44172   0.00000  Uiso   1.00
H233   H     0.19784   0.08048   0.44187   0.00000  Uiso   1.00
H234   H     0.16349   0.11115   0.49629   0.00000  Uiso   1.00
H235   H     0.16550   0.13853   0.45300   0.00000  Uiso   1.00
H236   H     0.19476   0.14930   0.49334   0.00000  Uiso   1.00
H237   H     0.02583   0.17939   0.49236   0.00000  Uiso   1.00
H238   H     0.04197   0.16427   0.53944   0.00000  Uiso   1.00
H239   H     0.08998   0.17868   0.46775   0.00000  Uiso   1.00
H240   H     0.43099   0.11587   0.21076   0.00000  Uiso   1.00
H241   H     0.10534   0.16174   0.51389   0.00000  Uiso   1.00
H242   H     0.06585   0.10630   0.50591   0.00000  Uiso   1.00
H243   H     0.09738   0.11131   0.46615   0.00000  Uiso   1.00
H244   H     0.05008   0.12345   0.45976   0.00000  Uiso   1.00
H245   H     0.46364   0.17469   0.50436   0.00000  Uiso   1.00
H246   H     0.45338   0.16863   0.45332   0.00000  Uiso   1.00
H247   H     0.39717   0.17729   0.51903   0.00000  Uiso   1.00
H248   H     0.38675   0.17213   0.46839   0.00000  Uiso   1.00
H249   H     0.41747   0.11099   0.46803   0.00000  Uiso   1.00
H250   H     0.38122   0.11298   0.50329   0.00000  Uiso   1.00
H251   H     0.38326   0.43015   0.79078   0.00000  Uiso   1.00
H252   H     0.42815   0.11618   0.51887   0.00000  Uiso   1.00
H253   H     0.35310   0.01749   0.48962   0.00000  Uiso   1.00
H254   H     0.31989   0.48248   0.49195   0.00000  Uiso   1.00
H255   H     0.36868   0.00759   0.56039   0.00000  Uiso   1.00
H256   H     0.33815   0.46884   0.56054   0.00000  Uiso   1.00
H257   H     0.37491   0.44037   0.50691   0.00000  Uiso   1.00
H258   H     0.40141   0.44832   0.55004   0.00000  Uiso   1.00
H259   H     0.40633   0.47845   0.50912   0.00000  Uiso   1.00
H260   H     0.25678   0.39641   0.51332   0.00000  Uiso   1.00
H261   H     0.28414   0.43604   0.50911   0.00000  Uiso   1.00
H262   H     0.11617   0.06926   0.21031   0.00000  Uiso   1.00
H263   H     0.26900   0.38157   0.44224   0.00000  Uiso   1.00
H264   H     0.30150   0.41866   0.44170   0.00000  Uiso   1.00
H265   H     0.33571   0.38822   0.49637   0.00000  Uiso   1.00
H266   H     0.33321   0.36038   0.45339   0.00000  Uiso   1.00
H267   H     0.30399   0.35042   0.49400   0.00000  Uiso   1.00
H268   H     0.15125   0.48901   0.13518   0.00000  Uiso   1.00
H269   H     0.18019   0.46080   0.10640   0.00000  Uiso   1.00
H270   H     0.11865   0.01066   0.07465   0.00000  Uiso   1.00
H271   H     0.14553   0.47857   0.04716   0.00000  Uiso   1.00
H272   H     0.12125   0.42711   0.08725   0.00000  Uiso   1.00
H273   H     0.42961   0.11726   0.79162   0.00000  Uiso   1.00
H274   H     0.08554   0.45197   0.06281   0.00000  Uiso   1.00
H275   H     0.09315   0.45921   0.11375   0.00000  Uiso   1.00
H276   H     0.32984   0.47831   0.89035   0.00000  Uiso   1.00
H277   H     0.34995   0.00481   0.92923   0.00000  Uiso   1.00
H278   H     0.35644   0.02240   0.84244   0.00000  Uiso   1.00
H279   H     0.37773   0.04709   0.88147   0.00000  Uiso   1.00
H280   H     0.41252   0.49040   0.89983   0.00000  Uiso   1.00
H281   H     0.42144   0.00420   0.85067   0.00000  Uiso   1.00
H282   H     0.39129   0.46626   0.86002   0.00000  Uiso   1.00
H283   H     0.06548   0.20330   0.12113   0.00000  Uiso   1.00
H284   H     0.06971   0.38340   0.20954   0.00000  Uiso   1.00
H285   H     0.06638   0.18253   0.07344   0.00000  Uiso   1.00
H286   H     0.04920   0.14250   0.14951   0.00000  Uiso   1.00
H287   H     0.05085   0.12228   0.10208   0.00000  Uiso   1.00
H288   H     0.11694   0.14012   0.09619   0.00000  Uiso   1.00
H289   H     0.10868   0.11127   0.13751   0.00000  Uiso   1.00
H290   H     0.11517   0.15970   0.14429   0.00000  Uiso   1.00
H291   H     0.47656   0.33173   0.88439   0.00000  Uiso   1.00
H292   H     0.45048   0.33438   0.92878   0.00000  Uiso   1.00
H293   H     0.41880   0.33335   0.84641   0.00000  Uiso   1.00
H294   H     0.39257   0.33471   0.89044   0.00000  Uiso   1.00
H295   H     0.36717   0.17970   0.70853   0.00000  Uiso   1.00
H296   H     0.42210   0.39416   0.90837   0.00000  Uiso   1.00
H297   H     0.39932   0.39668   0.86228   0.00000  Uiso   1.00
H298   H     0.44843   0.39290   0.86405   0.00000  Uiso   1.00
H299   H     0.32287   0.03780   0.10978   0.00000  Uiso   1.00
H300   H     0.34788   0.01700   0.07019   0.00000  Uiso   1.00
H301   H     0.35921   0.00126   0.15683   0.00000  Uiso   1.00
H302   H     0.38415   0.48059   0.11759   0.00000  Uiso   1.00
H303   H     0.40736   0.04205   0.09748   0.00000  Uiso   1.00
H304   H     0.41881   0.03222   0.14711   0.00000  Uiso   1.00
H305   H     0.38185   0.06315   0.13635   0.00000  Uiso   1.00
H306   H     0.13355   0.31954   0.29020   0.00000  Uiso   1.00
H307   H     0.17015   0.02383   0.88830   0.00000  Uiso   1.00
H308   H     0.14952   0.49913   0.92816   0.00000  Uiso   1.00
H309   H     0.14243   0.47886   0.84209   0.00000  Uiso   1.00
H310   H     0.12095   0.45570   0.88204   0.00000  Uiso   1.00
H311   H     0.08720   0.01351   0.89877   0.00000  Uiso   1.00
H312   H     0.07773   0.49831   0.85017   0.00000  Uiso   1.00
H313   H     0.10856   0.03601   0.85799   0.00000  Uiso   1.00
H314   H     0.44509   0.32783   0.13951   0.00000  Uiso   1.00
H315   H     0.43376   0.28869   0.11116   0.00000  Uiso   1.00
H316   H     0.44095   0.36762   0.07972   0.00000  Uiso   1.00
H317   H     0.32006   0.36688   0.70893   0.00000  Uiso   1.00
H318   H     0.42587   0.32813   0.05290   0.00000  Uiso   1.00
H319   H     0.37232   0.32125   0.09701   0.00000  Uiso   1.00
H320   H     0.37351   0.36577   0.07474   0.00000  Uiso   1.00
H321   H     0.38735   0.36073   0.12440   0.00000  Uiso   1.00
H322   H     0.02511   0.16803   0.88332   0.00000  Uiso   1.00
H323   H     0.05010   0.16600   0.92840   0.00000  Uiso   1.00
H324   H     0.08363   0.16683   0.84685   0.00000  Uiso   1.00
H325   H     0.10899   0.16677   0.89146   0.00000  Uiso   1.00
H326   H     0.08085   0.10693   0.90976   0.00000  Uiso   1.00
H327   H     0.10422   0.10430   0.86398   0.00000  Uiso   1.00
H328   H     0.38275   0.07037   0.79161   0.00000  Uiso   1.00
H329   H     0.18067   0.13384   0.28983   0.00000  Uiso   1.00
H330   H     0.05500   0.10684   0.86511   0.00000  Uiso   1.00
H331   H     0.42063   0.22472   0.61080   0.00000  Uiso   1.00
H332   H     0.39946   0.24947   0.57131   0.00000  Uiso   1.00
H333   H     0.39255   0.26874   0.65769   0.00000  Uiso   1.00
H334   H     0.37055   0.29204   0.61817   0.00000  Uiso   1.00
H335   H     0.33736   0.23413   0.60093   0.00000  Uiso   1.00
H336   H     0.32817   0.24832   0.64993   0.00000  Uiso   1.00
H337   H     0.35938   0.21119   0.64100   0.00000  Uiso   1.00
H338   H     0.07897   0.22303   0.38876   0.00000  Uiso   1.00
H339   H     0.10072   0.24706   0.42842   0.00000  Uiso   1.00
H340   H     0.13243   0.32069   0.70781   0.00000  Uiso   1.00
H341   H     0.10793   0.26642   0.34211   0.00000  Uiso   1.00
H342   H     0.12994   0.28978   0.38162   0.00000  Uiso   1.00
H343   H     0.16294   0.23217   0.39924   0.00000  Uiso   1.00
H344   H     0.17197   0.24549   0.34995   0.00000  Uiso   1.00
H345   H     0.14062   0.20859   0.35973   0.00000  Uiso   1.00
H346   H     0.22116   0.41942   0.61616   0.00000  Uiso   1.00
H347   H     0.19575   0.41872   0.57128   0.00000  Uiso   1.00
H348   H     0.16320   0.42046   0.65327   0.00000  Uiso   1.00
H349   H     0.13724   0.42238   0.60907   0.00000  Uiso   1.00
H350   H     0.16169   0.36142   0.58935   0.00000  Uiso   1.00
H351   H     0.36598   0.18094   0.28937   0.00000  Uiso   1.00
H352   H     0.13911   0.35932   0.63560   0.00000  Uiso   1.00
H353   H     0.18837   0.35933   0.63339   0.00000  Uiso   1.00
H354   H     0.31701   0.04449   0.37826   0.00000  Uiso   1.00
H355   H     0.31902   0.06489   0.42609   0.00000  Uiso   1.00
H356   H     0.30280   0.10602   0.35046   0.00000  Uiso   1.00
H357   H     0.30552   0.12586   0.39800   0.00000  Uiso   1.00
H358   H     0.37096   0.10581   0.40315   0.00000  Uiso   1.00
H359   H     0.36341   0.13507   0.36201   0.00000  Uiso   1.00
H360   H     0.36814   0.08648   0.35500   0.00000  Uiso   1.00
H361   H     0.07895   0.27476   0.60987   0.00000  Uiso   1.00
H362   H     0.17965   0.13277   0.70841   0.00000  Uiso   1.00
H363   H     0.10016   0.24932   0.57086   0.00000  Uiso   1.00
H364   H     0.10752   0.23192   0.65762   0.00000  Uiso   1.00
H365   H     0.12962   0.20804   0.61852   0.00000  Uiso   1.00
H366   H     0.16217   0.26594   0.59988   0.00000  Uiso   1.00
H367   H     0.17171   0.25275   0.64910   0.00000  Uiso   1.00
H368   H     0.14010   0.28941   0.63961   0.00000  Uiso   1.00
H369   H     0.42049   0.27580   0.38944   0.00000  Uiso   1.00
H370   H     0.39959   0.25095   0.42906   0.00000  Uiso   1.00
H371   H     0.39114   0.23303   0.34254   0.00000  Uiso   1.00
H372   H     0.37022   0.20854   0.38194   0.00000  Uiso   1.00
H373   H     0.32437   0.37124   0.29744   0.00000  Uiso   1.00
H374   H     0.33667   0.26521   0.40164   0.00000  Uiso   1.00
H375   H     0.32695   0.25281   0.35223   0.00000  Uiso   1.00
H376   H     0.35790   0.28999   0.36229   0.00000  Uiso   1.00
H377   H     0.27822   0.08048   0.61589   0.00000  Uiso   1.00
H378   H     0.30422   0.08146   0.57137   0.00000  Uiso   1.00
H379   H     0.33574   0.07960   0.65379   0.00000  Uiso   1.00
H380   H     0.36223   0.07819   0.60991   0.00000  Uiso   1.00
H381   H     0.33732   0.13905   0.59035   0.00000  Uiso   1.00
H382   H     0.35952   0.14108   0.63679   0.00000  Uiso   1.00
H383   H     0.31028   0.14062   0.63418   0.00000  Uiso   1.00
H384   H     0.37121   0.32435   0.29739   0.00000  Uiso   1.00
H385   H     0.18323   0.45539   0.37768   0.00000  Uiso   1.00
H386   H     0.18080   0.43546   0.42569   0.00000  Uiso   1.00
H387   H     0.19783   0.39348   0.35075   0.00000  Uiso   1.00
H388   H     0.19430   0.37422   0.39848   0.00000  Uiso   1.00
H389   H     0.12885   0.39471   0.40229   0.00000  Uiso   1.00
H390   H     0.13691   0.36475   0.36180   0.00000  Uiso   1.00
H391   H     0.13251   0.41325   0.35386   0.00000  Uiso   1.00
H392   H     0.13279   0.17964   0.70838   0.00000  Uiso   1.00
H393   H     0.31886   0.13432   0.28887   0.00000  Uiso   1.00
H394   H     0.17943   0.36747   0.70805   0.00000  Uiso   1.00
H395   H     0.13381   0.18075   0.28974   0.00000  Uiso   1.00
H396   H     0.06909   0.11587   0.21077   0.00000  Uiso   1.00
H397   H     0.36693   0.32001   0.70892   0.00000  Uiso   1.00
H398   H     0.18069   0.36611   0.28963   0.00000  Uiso   1.00
H399   H     0.32017   0.13292   0.70877   0.00000  Uiso   1.00
H400   H     0.21139   0.07211   0.99649   0.00000  Uiso   1.00
H401   H     0.19896   0.07783   0.04709   0.00000  Uiso   1.00
H402   H     0.14570   0.06710   0.97901   0.00000  Uiso   1.00
H403   H     0.13315   0.07227   0.02910   0.00000  Uiso   1.00
H404   H     0.16195   0.13438   0.03022   0.00000  Uiso   1.00
H405   H     0.12717   0.13098   0.99348   0.00000  Uiso   1.00
H406   H     0.17472   0.12919   0.97992   0.00000  Uiso   1.00
H407   H     0.43031   0.38345   0.79041   0.00000  Uiso   1.00
H408   H     0.27330   0.07118   0.00888   0.00000  Uiso   1.00
H409   H     0.28599   0.08676   0.96075   0.00000  Uiso   1.00
H410   H     0.33807   0.07666   0.02998   0.00000  Uiso   1.00
H411   H     0.35050   0.09311   0.98268   0.00000  Uiso   1.00
H412   H     0.30908   0.14674   0.99092   0.00000  Uiso   1.00
H413   H     0.34169   0.14411   0.02991   0.00000  Uiso   1.00
H414   H     0.29519   0.12988   0.03790   0.00000  Uiso   1.00
H415   H     0.48721   0.14687   0.98713   0.00000  Uiso   1.00
H416   H     0.46218   0.18797   0.99161   0.00000  Uiso   1.00
H417   H     0.47510   0.13299   0.05850   0.00000  Uiso   1.00
H418   H     0.38416   0.06888   0.21098   0.00000  Uiso   1.00
H419   H     0.44466   0.17175   0.05925   0.00000  Uiso   1.00
H420   H     0.40830   0.14285   0.00508   0.00000  Uiso   1.00
H421   H     0.40963   0.11528   0.04828   0.00000  Uiso   1.00
H422   H     0.43788   0.10340   0.00748   0.00000  Uiso   1.00
H423   H     0.39853   0.27350   0.01085   0.00000  Uiso   1.00
H424   H     0.42986   0.23682   0.00901   0.00000  Uiso   1.00
H425   H     0.38244   0.26350   0.94020   0.00000  Uiso   1.00
H426   H     0.41087   0.22323   0.94062   0.00000  Uiso   1.00
H427   H     0.37267   0.19747   0.99470   0.00000  Uiso   1.00
H428   H     0.34664   0.20610   0.95141   0.00000  Uiso   1.00
H429   H     0.11762   0.42927   0.79225   0.00000  Uiso   1.00
H430   H     0.34329   0.23707   0.99183   0.00000  Uiso   1.00
H431   H     0.33319   0.43623   0.98865   0.00000  Uiso   1.00
H432   H     0.28502   0.43881   0.98716   0.00000  Uiso   1.00
H433   H     0.33049   0.41616   0.05894   0.00000  Uiso   1.00
H434   H     0.28142   0.41408   0.05490   0.00000  Uiso   1.00
H435   H     0.28772   0.36911   0.00018   0.00000  Uiso   1.00
H436   H     0.30774   0.35298   0.04464   0.00000  Uiso   1.00
H437   H     0.33678   0.36995   0.00654   0.00000  Uiso   1.00
H438   H     0.17937   0.42637   0.01397   0.00000  Uiso   1.00
H439   H     0.22660   0.43059   0.00388   0.00000  Uiso   1.00
H440   H     0.42520   0.37828   0.20186   0.00000  Uiso   1.00
H441   H     0.16774   0.40879   0.94366   0.00000  Uiso   1.00
H442   H     0.21659   0.40774   0.93667   0.00000  Uiso   1.00
H443   H     0.22177   0.36063   0.98942   0.00000  Uiso   1.00
H444   H     0.19314   0.34582   0.95001   0.00000  Uiso   1.00
H445   H     0.17256   0.36105   0.99456   0.00000  Uiso   1.00
H446   H     0.01508   0.35494   0.98921   0.00000  Uiso   1.00
H447   H     0.03688   0.31196   0.98742   0.00000  Uiso   1.00
H448   H     0.03371   0.36222   0.05970   0.00000  Uiso   1.00
H449   H     0.06016   0.32085   0.05513   0.00000  Uiso   1.00
H450   H     0.09523   0.35003   0.99997   0.00000  Uiso   1.00
H451   H     0.07005   0.11696   0.79107   0.00000  Uiso   1.00
H452   H     0.10012   0.37377   0.04533   0.00000  Uiso   1.00
H453   H     0.07037   0.39194   0.00852   0.00000  Uiso   1.00
H454   H     0.10137   0.22718   0.01139   0.00000  Uiso   1.00
H455   H     0.07266   0.26540   0.00389   0.00000  Uiso   1.00
H456   H     0.11980   0.22878   0.94021   0.00000  Uiso   1.00
H457   H     0.09499   0.27118   0.93587   0.00000  Uiso   1.00
H458   H     0.13442   0.29850   0.98801   0.00000  Uiso   1.00
H459   H     0.16053   0.28305   0.94692   0.00000  Uiso   1.00
H460   H     0.15985   0.25621   0.99059   0.00000  Uiso   1.00
H461   H     0.47321   0.31810   0.49172   0.00000  Uiso   1.00
H462   H     0.11706   0.07024   0.79137   0.00000  Uiso   1.00
H463   H     0.45740   0.33292   0.53907   0.00000  Uiso   1.00
H464   H     0.40901   0.31864   0.46766   0.00000  Uiso   1.00
H465   H     0.39372   0.33493   0.51412   0.00000  Uiso   1.00
H466   H     0.43244   0.39089   0.50666   0.00000  Uiso   1.00
H467   H     0.40101   0.38591   0.46683   0.00000  Uiso   1.00
H468   H     0.44845   0.37438   0.46030   0.00000  Uiso   1.00
H469   H     0.03420   0.31802   0.50953   0.00000  Uiso   1.00
H470   H     0.04631   0.32999   0.46006   0.00000  Uiso   1.00
H471   H     0.10006   0.31528   0.52688   0.00000  Uiso   1.00
H472   H     0.11227   0.32712   0.47798   0.00000  Uiso   1.00
O473   O     0.25000   0.00000   0.25000   0.00000  Uiso   1.00
O474   O     0.25000   0.46964   0.66317   0.00000  Uiso   1.00
O475   O     0.46964   0.25000   0.33683   0.00000  Uiso   1.00
O476   O     0.03036   0.25000   0.66317   0.00000  Uiso   1.00
O477   O     0.00000   0.21964   0.83683   0.00000  Uiso   1.00
O478   O     0.00000   0.28036   0.16317   0.00000  Uiso   1.00
O479   O     0.28036   0.00000   0.83683   0.00000  Uiso   1.00
O480   O     0.21964   0.00000   0.16317   0.00000  Uiso   1.00
O481   O     0.00000   0.28036   0.83683   0.00000  Uiso   1.00
O482   O     0.00000   0.21964   0.16317   0.00000  Uiso   1.00
O483   O     0.21964   0.00000   0.83683   0.00000  Uiso   1.00
O484   O     0.25000   0.00000   0.75000   0.00000  Uiso   1.00
O485   O     0.28036   0.00000   0.16317   0.00000  Uiso   1.00
O486   O     0.20726   0.07307   0.27282   0.00000  Uiso   1.00
O487   O     0.29275   0.42693   0.72718   0.00000  Uiso   1.00
O488   O     0.42693   0.20726   0.27282   0.00000  Uiso   1.00
O489   O     0.07307   0.29274   0.72718   0.00000  Uiso   1.00
O490   O     0.29275   0.42693   0.27282   0.00000  Uiso   1.00
O491   O     0.20726   0.07307   0.72718   0.00000  Uiso   1.00
O492   O     0.07307   0.29274   0.27282   0.00000  Uiso   1.00
O493   O     0.42693   0.20726   0.72718   0.00000  Uiso   1.00
O494   O     0.20726   0.42693   0.72718   0.00000  Uiso   1.00
O495   O     0.00000   0.25000   0.25000   0.00000  Uiso   1.00
O496   O     0.29275   0.07307   0.27282   0.00000  Uiso   1.00
O497   O     0.42693   0.29275   0.72718   0.00000  Uiso   1.00
O498   O     0.07307   0.20725   0.27282   0.00000  Uiso   1.00
O499   O     0.29275   0.07307   0.72718   0.00000  Uiso   1.00
O500   O     0.20726   0.42693   0.27282   0.00000  Uiso   1.00
O501   O     0.07307   0.20725   0.72718   0.00000  Uiso   1.00
O502   O     0.42693   0.29275   0.27282   0.00000  Uiso   1.00
O503   O     0.45726   0.32307   0.77282   0.00000  Uiso   1.00
O504   O     0.04275   0.17693   0.22718   0.00000  Uiso   1.00
O505   O     0.17693   0.45725   0.77282   0.00000  Uiso   1.00
O506   O     0.00000   0.25000   0.75000   0.00000  Uiso   1.00
O507   O     0.32307   0.04275   0.22718   0.00000  Uiso   1.00
O508   O     0.04275   0.17693   0.77282   0.00000  Uiso   1.00
O509   O     0.45726   0.32307   0.22718   0.00000  Uiso   1.00
O510   O     0.32307   0.04275   0.77282   0.00000  Uiso   1.00
O511   O     0.17693   0.45725   0.22718   0.00000  Uiso   1.00
O512   O     0.45726   0.17693   0.22718   0.00000  Uiso   1.00
O513   O     0.04275   0.32307   0.77282   0.00000  Uiso   1.00
O514   O     0.17693   0.04275   0.22718   0.00000  Uiso   1.00
O515   O     0.32307   0.45725   0.77282   0.00000  Uiso   1.00
O516   O     0.04275   0.32307   0.22718   0.00000  Uiso   1.00
O517   O     0.25000   0.46964   0.33683   0.00000  Uiso   1.00
O518   O     0.45726   0.17693   0.77282   0.00000  Uiso   1.00
O519   O     0.32307   0.45725   0.22718   0.00000  Uiso   1.00
O520   O     0.17693   0.04275   0.77282   0.00000  Uiso   1.00
O521   O     0.18867   0.02651   0.02226   0.00000  Uiso   1.00
O522   O     0.30611   0.03578   0.97745   0.00000  Uiso   1.00
O523   O     0.01170   0.18411   0.02235   0.00000  Uiso   1.00
O524   O     0.44256   0.28371   0.97650   0.00000  Uiso   1.00
O525   O     0.31236   0.47685   0.02232   0.00000  Uiso   1.00
O526   O     0.19100   0.46830   0.97724   0.00000  Uiso   1.00
O527   O     0.49023   0.31641   0.02253   0.00000  Uiso   1.00
O528   O     0.25000   0.03036   0.66317   0.00000  Uiso   1.00
O529   O     0.05827   0.21620   0.97609   0.00000  Uiso   1.00
O530   O     0.44157   0.28059   0.52188   0.00000  Uiso   1.00
O531   O     0.05997   0.27719   0.47838   0.00000  Uiso   1.00
O532   O     0.19003   0.46981   0.52393   0.00000  Uiso   1.00
O533   O     0.26476   0.06540   0.47765   0.00000  Uiso   1.00
O534   O     0.05803   0.21652   0.52245   0.00000  Uiso   1.00
O535   O     0.44045   0.21960   0.47788   0.00000  Uiso   1.00
O536   O     0.30972   0.03036   0.52384   0.00000  Uiso   1.00
O537   O     0.23487   0.43481   0.47766   0.00000  Uiso   1.00
O538   O     0.18557   0.01857   0.10049   0.00000  Uiso   1.00
O539   O     0.03036   0.25000   0.33683   0.00000  Uiso   1.00
O540   O     0.30863   0.03093   0.89847   0.00000  Uiso   1.00
O541   O     0.01525   0.18536   0.10043   0.00000  Uiso   1.00
O542   O     0.44497   0.28591   0.89715   0.00000  Uiso   1.00
O543   O     0.31366   0.48192   0.10073   0.00000  Uiso   1.00
O544   O     0.19024   0.47109   0.89825   0.00000  Uiso   1.00
O545   O     0.48482   0.31498   0.10018   0.00000  Uiso   1.00
O546   O     0.05561   0.21440   0.89654   0.00000  Uiso   1.00
O547   O     0.43994   0.27785   0.60115   0.00000  Uiso   1.00
O548   O     0.06073   0.27642   0.39896   0.00000  Uiso   1.00
O549   O     0.19282   0.46721   0.60333   0.00000  Uiso   1.00
O550   O     0.46964   0.25000   0.66317   0.00000  Uiso   1.00
O551   O     0.26764   0.06411   0.39949   0.00000  Uiso   1.00
O552   O     0.06001   0.22128   0.60154   0.00000  Uiso   1.00
O553   O     0.43940   0.22248   0.39830   0.00000  Uiso   1.00
O554   O     0.30705   0.03290   0.60321   0.00000  Uiso   1.00
O555   O     0.23240   0.43594   0.39951   0.00000  Uiso   1.00
O556   O     0.25000   0.03036   0.33683   0.00000  Uiso   1.00
Zn557  Zn    0.20660   0.00000   0.21760   0.00000  Uiso   1.00
Zn558  Zn    0.04340   0.25000   0.28240   0.00000  Uiso   1.00
Zn559  Zn    0.25000   0.45660   0.71760   0.00000  Uiso   1.00
Zn560  Zn    0.25000   0.04340   0.28240   0.00000  Uiso   1.00
Zn561  Zn    0.04340   0.25000   0.71760   0.00000  Uiso   1.00
Zn562  Zn    0.45660   0.25000   0.28240   0.00000  Uiso   1.00
Zn563  Zn    0.25000   0.04340   0.71760   0.00000  Uiso   1.00
Zn564  Zn    0.25000   0.45660   0.28240   0.00000  Uiso   1.00
Zn565  Zn    0.29340   0.00000   0.78240   0.00000  Uiso   1.00
Zn566  Zn    0.00000   0.20660   0.21760   0.00000  Uiso   1.00
Zn567  Zn    0.00000   0.29340   0.78240   0.00000  Uiso   1.00
Zn568  Zn    0.29340   0.00000   0.21760   0.00000  Uiso   1.00
Zn569  Zn    0.20660   0.00000   0.78240   0.00000  Uiso   1.00
Zn570  Zn    0.00000   0.29340   0.21760   0.00000  Uiso   1.00
Zn571  Zn    0.00000   0.20660   0.78240   0.00000  Uiso   1.00
Zn572  Zn    0.45660   0.25000   0.71760   0.00000  Uiso   1.00
C573   C     0.71903   0.01329   0.04151   0.00000  Uiso   1.00
C574   C     0.52987   0.26381   0.45873   0.00000  Uiso   1.00
C575   C     0.84818   0.40191   0.74993   0.00000  Uiso   1.00
C576   C     0.90191   0.15183   0.25007   0.00000  Uiso   1.00
C577   C     0.59814   0.34813   0.75000   0.00000  Uiso   1.00
C578   C     0.84801   0.40173   0.24978   0.00000  Uiso   1.00
C579   C     0.65183   0.09810   0.74996   0.00000  Uiso   1.00
C580   C     0.59807   0.15181   0.74988   0.00000  Uiso   1.00
C581   C     0.90171   0.34797   0.24974   0.00000  Uiso   1.00
C582   C     0.65190   0.40185   0.75005   0.00000  Uiso   1.00
C583   C     0.84813   0.09813   0.25002   0.00000  Uiso   1.00
C584   C     0.90195   0.34821   0.74985   0.00000  Uiso   1.00
C585   C     0.71970   0.48547   0.54266   0.00000  Uiso   1.00
C586   C     0.59809   0.15183   0.25008   0.00000  Uiso   1.00
C587   C     0.84809   0.09816   0.75007   0.00000  Uiso   1.00
C588   C     0.65197   0.40177   0.24984   0.00000  Uiso   1.00
C589   C     0.74972   0.49993   0.10210   0.00000  Uiso   1.00
C590   C     0.74974   0.00043   0.89762   0.00000  Uiso   1.00
C591   C     0.99997   0.25004   0.10193   0.00000  Uiso   1.00
C592   C     0.50021   0.25002   0.89710   0.00000  Uiso   1.00
C593   C     0.99996   0.24955   0.60225   0.00000  Uiso   1.00
C594   C     0.50000   0.24959   0.39777   0.00000  Uiso   1.00
C595   C     0.74997   0.49999   0.60296   0.00000  Uiso   1.00
C596   C     0.75600   0.03299   0.45897   0.00000  Uiso   1.00
C597   C     0.74998   0.00003   0.39807   0.00000  Uiso   1.00
C598   C     0.69111   0.06484   0.01912   0.00000  Uiso   1.00
C599   C     0.65385   0.07970   0.00695   0.00000  Uiso   1.00
C600   C     0.65460   0.12116   0.00239   0.00000  Uiso   1.00
C601   C     0.79541   0.07168   0.98690   0.00000  Uiso   1.00
C602   C     0.82806   0.09183   0.00427   0.00000  Uiso   1.00
C603   C     0.81775   0.13055   0.01645   0.00000  Uiso   1.00
C604   C     0.97910   0.16833   0.00815   0.00000  Uiso   1.00
C605   C     0.95685   0.15031   0.04055   0.00000  Uiso   1.00
C606   C     0.92627   0.12652   0.02424   0.00000  Uiso   1.00
C607   C     0.52891   0.23242   0.54166   0.00000  Uiso   1.00
C608   C     0.91695   0.25828   0.99106   0.00000  Uiso   1.00
C609   C     0.89367   0.24143   0.95875   0.00000  Uiso   1.00
C610   C     0.86212   0.21914   0.97531   0.00000  Uiso   1.00
C611   C     0.80872   0.44125   0.00688   0.00000  Uiso   1.00
C612   C     0.80745   0.41190   0.03855   0.00000  Uiso   1.00
C613   C     0.81008   0.37363   0.02129   0.00000  Uiso   1.00
C614   C     0.69913   0.43273   0.99056   0.00000  Uiso   1.00
C615   C     0.69441   0.40443   0.95829   0.00000  Uiso   1.00
C616   C     0.69558   0.36559   0.97419   0.00000  Uiso   1.00
C617   C     0.52292   0.33114   0.00728   0.00000  Uiso   1.00
C618   C     0.97026   0.23382   0.45838   0.00000  Uiso   1.00
C619   C     0.54892   0.34460   0.03908   0.00000  Uiso   1.00
C620   C     0.58060   0.36642   0.02206   0.00000  Uiso   1.00
C621   C     0.58478   0.24140   0.98914   0.00000  Uiso   1.00
C622   C     0.61016   0.25328   0.95621   0.00000  Uiso   1.00
C623   C     0.64326   0.27407   0.97151   0.00000  Uiso   1.00
C624   C     0.95018   0.31710   0.51261   0.00000  Uiso   1.00
C625   C     0.91702   0.33482   0.49351   0.00000  Uiso   1.00
C626   C     0.92535   0.37394   0.48111   0.00000  Uiso   1.00
C627   C     0.55494   0.31462   0.48636   0.00000  Uiso   1.00
C628   C     0.59109   0.33046   0.50074   0.00000  Uiso   1.00
C629   C     0.78008   0.01466   0.54259   0.00000  Uiso   1.00
C630   C     0.58752   0.37090   0.51074   0.00000  Uiso   1.00
C631   C     0.66565   0.49673   0.51015   0.00000  Uiso   1.00
C632   C     0.64311   0.01361   0.54300   0.00000  Uiso   1.00
C633   C     0.61265   0.03777   0.52723   0.00000  Uiso   1.00
C634   C     0.73324   0.08287   0.49230   0.00000  Uiso   1.00
C635   C     0.71123   0.10154   0.46016   0.00000  Uiso   1.00
C636   C     0.68193   0.12665   0.47684   0.00000  Uiso   1.00
C637   C     0.54906   0.18014   0.51299   0.00000  Uiso   1.00
C638   C     0.58194   0.16231   0.49344   0.00000  Uiso   1.00
C639   C     0.57317   0.12341   0.48057   0.00000  Uiso   1.00
C640   C     0.74372   0.46719   0.45897   0.00000  Uiso   1.00
C641   C     0.94400   0.18134   0.48091   0.00000  Uiso   1.00
C642   C     0.90680   0.16519   0.49137   0.00000  Uiso   1.00
C643   C     0.90865   0.12374   0.49563   0.00000  Uiso   1.00
C644   C     0.83393   0.00347   0.50961   0.00000  Uiso   1.00
C645   C     0.85629   0.48588   0.54216   0.00000  Uiso   1.00
C646   C     0.88660   0.46176   0.52594   0.00000  Uiso   1.00
C647   C     0.76635   0.41732   0.49237   0.00000  Uiso   1.00
C648   C     0.78796   0.39799   0.46034   0.00000  Uiso   1.00
C649   C     0.81702   0.37273   0.47717   0.00000  Uiso   1.00
C650   C     0.66407   0.48673   0.10617   0.00000  Uiso   1.00
C651   C     0.71769   0.00954   0.08159   0.00000  Uiso   1.00
C652   C     0.63360   0.48427   0.07597   0.00000  Uiso   1.00
C653   C     0.60676   0.45371   0.08566   0.00000  Uiso   1.00
C654   C     0.83834   0.00628   0.89955   0.00000  Uiso   1.00
C655   C     0.86802   0.01975   0.87197   0.00000  Uiso   1.00
C656   C     0.90029   0.49343   0.87065   0.00000  Uiso   1.00
C657   C     0.55357   0.18138   0.10266   0.00000  Uiso   1.00
C658   C     0.56227   0.14430   0.12062   0.00000  Uiso   1.00
C659   C     0.60337   0.13862   0.12486   0.00000  Uiso   1.00
C660   C     0.95028   0.32413   0.89849   0.00000  Uiso   1.00
C661   C     0.91896   0.34268   0.87696   0.00000  Uiso   1.00
C662   C     0.77944   0.01560   0.91803   0.00000  Uiso   1.00
C663   C     0.92255   0.38420   0.87805   0.00000  Uiso   1.00
C664   C     0.83721   0.01255   0.09992   0.00000  Uiso   1.00
C665   C     0.86945   0.00563   0.12695   0.00000  Uiso   1.00
C666   C     0.89596   0.03783   0.12689   0.00000  Uiso   1.00
C667   C     0.66106   0.49639   0.89855   0.00000  Uiso   1.00
C668   C     0.63104   0.48258   0.87159   0.00000  Uiso   1.00
C669   C     0.59918   0.00935   0.86961   0.00000  Uiso   1.00
C670   C     0.94723   0.31608   0.10998   0.00000  Uiso   1.00
C671   C     0.92661   0.34093   0.08198   0.00000  Uiso   1.00
C672   C     0.88750   0.34749   0.09551   0.00000  Uiso   1.00
C673   C     0.50744   0.21758   0.08133   0.00000  Uiso   1.00
C674   C     0.55090   0.17611   0.89809   0.00000  Uiso   1.00
C675   C     0.58307   0.15797   0.87755   0.00000  Uiso   1.00
C676   C     0.58048   0.11641   0.87928   0.00000  Uiso   1.00
C677   C     0.91111   0.25212   0.60087   0.00000  Uiso   1.00
C678   C     0.88107   0.26519   0.62821   0.00000  Uiso   1.00
C679   C     0.84957   0.23793   0.63003   0.00000  Uiso   1.00
C680   C     0.58904   0.25016   0.39893   0.00000  Uiso   1.00
C681   C     0.61928   0.26294   0.37166   0.00000  Uiso   1.00
C682   C     0.65061   0.23551   0.37014   0.00000  Uiso   1.00
C683   C     0.69567   0.42875   0.60165   0.00000  Uiso   1.00
C684   C     0.77782   0.01842   0.95824   0.00000  Uiso   1.00
C685   C     0.97284   0.26888   0.91728   0.00000  Uiso   1.00
C686   C     0.66284   0.41204   0.62242   0.00000  Uiso   1.00
C687   C     0.66316   0.37042   0.61997   0.00000  Uiso   1.00
C688   C     0.80607   0.06670   0.39699   0.00000  Uiso   1.00
C689   C     0.81600   0.10357   0.37922   0.00000  Uiso   1.00
C690   C     0.85724   0.10787   0.37462   0.00000  Uiso   1.00
C691   C     0.58864   0.24723   0.60054   0.00000  Uiso   1.00
C692   C     0.61888   0.23498   0.62803   0.00000  Uiso   1.00
C693   C     0.65013   0.26256   0.62912   0.00000  Uiso   1.00
C694   C     0.91083   0.24842   0.39931   0.00000  Uiso   1.00
C695   C     0.88028   0.23574   0.37239   0.00000  Uiso   1.00
C696   C     0.78175   0.49077   0.08146   0.00000  Uiso   1.00
C697   C     0.84852   0.26270   0.37221   0.00000  Uiso   1.00
C698   C     0.80396   0.07135   0.60170   0.00000  Uiso   1.00
C699   C     0.83638   0.08822   0.62301   0.00000  Uiso   1.00
C700   C     0.83570   0.12985   0.62088   0.00000  Uiso   1.00
C701   C     0.69400   0.43336   0.39672   0.00000  Uiso   1.00
C702   C     0.68419   0.39632   0.37925   0.00000  Uiso   1.00
C703   C     0.64301   0.39212   0.37403   0.00000  Uiso   1.00
C704   C     0.71956   0.48603   0.91794   0.00000  Uiso   1.00
C705   C     0.99284   0.28261   0.08128   0.00000  Uiso   1.00
C706   C     0.52778   0.23119   0.91698   0.00000  Uiso   1.00
C707   C     0.96955   0.26317   0.58172   0.00000  Uiso   1.00
C708   C     0.53083   0.26226   0.41836   0.00000  Uiso   1.00
C709   C     0.72149   0.48266   0.58298   0.00000  Uiso   1.00
C710   C     0.75866   0.03220   0.41866   0.00000  Uiso   1.00
C711   C     0.53025   0.23534   0.58191   0.00000  Uiso   1.00
C712   C     0.50487   0.21697   0.04104   0.00000  Uiso   1.00
C713   C     0.96923   0.23634   0.41805   0.00000  Uiso   1.00
C714   C     0.77838   0.01737   0.58293   0.00000  Uiso   1.00
C715   C     0.74125   0.46790   0.41866   0.00000  Uiso   1.00
C716   C     0.74970   0.00053   0.02101   0.00000  Uiso   1.00
C717   C     0.74930   0.00100   0.97857   0.00000  Uiso   1.00
C718   C     0.50079   0.25017   0.02057   0.00000  Uiso   1.00
C719   C     0.50054   0.25004   0.97796   0.00000  Uiso   1.00
C720   C     0.99978   0.24852   0.52124   0.00000  Uiso   1.00
C721   C     0.50000   0.24867   0.47879   0.00000  Uiso   1.00
C722   C     0.74986   0.00009   0.52210   0.00000  Uiso   1.00
C723   C     0.97115   0.26631   0.95762   0.00000  Uiso   1.00
C724   C     0.74981   0.00010   0.47946   0.00000  Uiso   1.00
C725   C     0.75001   0.00001   0.35537   0.00000  Uiso   1.00
C726   C     0.75000   0.49999   0.64499   0.00000  Uiso   1.00
C727   C     0.50000   0.24996   0.35527   0.00000  Uiso   1.00
C728   C     0.50000   0.24995   0.64474   0.00000  Uiso   1.00
C729   C     0.50003   0.25001   0.85503   0.00000  Uiso   1.00
C730   C     0.99998   0.25000   0.14463   0.00000  Uiso   1.00
C731   C     0.74996   0.00007   0.85522   0.00000  Uiso   1.00
C732   C     0.74995   0.49998   0.14469   0.00000  Uiso   1.00
C733   C     0.67994   0.07008   0.25000   0.00000  Uiso   1.00
C734   C     0.78073   0.48780   0.04120   0.00000  Uiso   1.00
C735   C     0.82007   0.42993   0.74999   0.00000  Uiso   1.00
C736   C     0.92995   0.17992   0.25003   0.00000  Uiso   1.00
C737   C     0.57007   0.32007   0.74999   0.00000  Uiso   1.00
C738   C     0.82004   0.42990   0.24994   0.00000  Uiso   1.00
C739   C     0.67992   0.07007   0.75000   0.00000  Uiso   1.00
C740   C     0.57006   0.32007   0.25001   0.00000  Uiso   1.00
C741   C     0.92993   0.17993   0.75000   0.00000  Uiso   1.00
C742   C     0.67994   0.42993   0.75001   0.00000  Uiso   1.00
C743   C     0.82007   0.07007   0.25001   0.00000  Uiso   1.00
C744   C     0.92996   0.32009   0.74997   0.00000  Uiso   1.00
C745   C     0.72068   0.48360   0.95822   0.00000  Uiso   1.00
C746   C     0.57006   0.17992   0.25001   0.00000  Uiso   1.00
C747   C     0.82006   0.07007   0.75001   0.00000  Uiso   1.00
C748   C     0.67996   0.42990   0.24996   0.00000  Uiso   1.00
C749   C     0.57006   0.17992   0.74997   0.00000  Uiso   1.00
C750   C     0.92988   0.32002   0.24992   0.00000  Uiso   1.00
C751   C     0.62057   0.40618   0.22717   0.00000  Uiso   1.00
C752   C     0.87909   0.09415   0.77342   0.00000  Uiso   1.00
C753   C     0.59346   0.12016   0.22787   0.00000  Uiso   1.00
C754   C     0.90624   0.37951   0.77272   0.00000  Uiso   1.00
C755   C     0.87989   0.09333   0.22801   0.00000  Uiso   1.00
C756   C     0.99633   0.28335   0.04110   0.00000  Uiso   1.00
C757   C     0.62111   0.40566   0.77376   0.00000  Uiso   1.00
C758   C     0.90335   0.37657   0.22289   0.00000  Uiso   1.00
C759   C     0.59396   0.12073   0.77309   0.00000  Uiso   1.00
C760   C     0.62076   0.09404   0.77321   0.00000  Uiso   1.00
C761   C     0.87662   0.40335   0.22292   0.00000  Uiso   1.00
C762   C     0.59436   0.37890   0.77375   0.00000  Uiso   1.00
C763   C     0.90663   0.12011   0.22795   0.00000  Uiso   1.00
C764   C     0.87943   0.40619   0.77286   0.00000  Uiso   1.00
C765   C     0.62028   0.09351   0.22771   0.00000  Uiso   1.00
C766   C     0.90584   0.12091   0.77341   0.00000  Uiso   1.00
C767   C     0.52976   0.23377   0.95732   0.00000  Uiso   1.00
C768   C     0.59380   0.37944   0.22720   0.00000  Uiso   1.00
C769   C     0.87083   0.15591   0.72672   0.00000  Uiso   1.00
C770   C     0.62959   0.34363   0.27254   0.00000  Uiso   1.00
C771   C     0.84400   0.37071   0.72686   0.00000  Uiso   1.00
C772   C     0.65643   0.12971   0.27243   0.00000  Uiso   1.00
C773   C     0.62895   0.34431   0.72631   0.00000  Uiso   1.00
C774   C     0.87019   0.15659   0.27216   0.00000  Uiso   1.00
C775   C     0.65585   0.12910   0.72659   0.00000  Uiso   1.00
C776   C     0.84626   0.37300   0.27646   0.00000  Uiso   1.00
C777   C     0.87298   0.34624   0.27644   0.00000  Uiso   1.00
C778   C     0.97068   0.26503   0.54139   0.00000  Uiso   1.00
C779   C     0.62910   0.15585   0.72657   0.00000  Uiso   1.00
C780   C     0.84336   0.12992   0.27199   0.00000  Uiso   1.00
C781   C     0.65574   0.37102   0.72640   0.00000  Uiso   1.00
C782   C     0.62968   0.15647   0.27241   0.00000  Uiso   1.00
C783   C     0.87075   0.34397   0.72684   0.00000  Uiso   1.00
C784   C     0.65644   0.37028   0.27233   0.00000  Uiso   1.00
C785   C     0.84403   0.12921   0.72681   0.00000  Uiso   1.00
C786   C     0.59816   0.34809   0.24995   0.00000  Uiso   1.00
C787   C     0.90185   0.15188   0.75002   0.00000  Uiso   1.00
C788   C     0.65188   0.09814   0.25002   0.00000  Uiso   1.00
H789   H     0.61662   0.43028   0.20951   0.00000  Uiso   1.00
H790   H     0.87837   0.42522   0.20193   0.00000  Uiso   1.00
H791   H     0.57935   0.38677   0.48480   0.00000  Uiso   1.00
H792   H     0.61419   0.38143   0.52122   0.00000  Uiso   1.00
H793   H     0.56684   0.37482   0.53387   0.00000  Uiso   1.00
H794   H     0.64663   0.48290   0.48987   0.00000  Uiso   1.00
H795   H     0.67958   0.01811   0.49291   0.00000  Uiso   1.00
H796   H     0.63084   0.49150   0.56078   0.00000  Uiso   1.00
H797   H     0.66109   0.03046   0.56175   0.00000  Uiso   1.00
H798   H     0.62425   0.05963   0.50875   0.00000  Uiso   1.00
H799   H     0.59764   0.05062   0.55157   0.00000  Uiso   1.00
H800   H     0.59313   0.02126   0.50996   0.00000  Uiso   1.00
H801   H     0.57075   0.38238   0.79226   0.00000  Uiso   1.00
H802   H     0.74276   0.10419   0.51282   0.00000  Uiso   1.00
H803   H     0.71576   0.06426   0.50952   0.00000  Uiso   1.00
H804   H     0.72989   0.11796   0.44172   0.00000  Uiso   1.00
H805   H     0.69784   0.08048   0.44187   0.00000  Uiso   1.00
H806   H     0.66349   0.11115   0.49629   0.00000  Uiso   1.00
H807   H     0.66550   0.13853   0.45300   0.00000  Uiso   1.00
H808   H     0.69476   0.14930   0.49334   0.00000  Uiso   1.00
H809   H     0.52583   0.17939   0.49236   0.00000  Uiso   1.00
H810   H     0.54197   0.16427   0.53944   0.00000  Uiso   1.00
H811   H     0.58998   0.17868   0.46775   0.00000  Uiso   1.00
H812   H     0.93099   0.11587   0.21076   0.00000  Uiso   1.00
H813   H     0.60534   0.16174   0.51389   0.00000  Uiso   1.00
H814   H     0.56585   0.10630   0.50591   0.00000  Uiso   1.00
H815   H     0.59738   0.11131   0.46615   0.00000  Uiso   1.00
H816   H     0.55008   0.12345   0.45976   0.00000  Uiso   1.00
H817   H     0.96364   0.17469   0.50436   0.00000  Uiso   1.00
H818   H     0.95338   0.16863   0.45332   0.00000  Uiso   1.00
H819   H     0.89717   0.17729   0.51903   0.00000  Uiso   1.00
H820   H     0.88675   0.17213   0.46839   0.00000  Uiso   1.00
H821   H     0.91747   0.11099   0.46803   0.00000  Uiso   1.00
H822   H     0.88122   0.11298   0.50329   0.00000  Uiso   1.00
H823   H     0.88326   0.43015   0.79078   0.00000  Uiso   1.00
H824   H     0.92815   0.11618   0.51887   0.00000  Uiso   1.00
H825   H     0.85310   0.01749   0.48962   0.00000  Uiso   1.00
H826   H     0.81989   0.48248   0.49195   0.00000  Uiso   1.00
H827   H     0.86868   0.00759   0.56039   0.00000  Uiso   1.00
H828   H     0.83815   0.46884   0.56054   0.00000  Uiso   1.00
H829   H     0.87491   0.44037   0.50691   0.00000  Uiso   1.00
H830   H     0.90141   0.44832   0.55004   0.00000  Uiso   1.00
H831   H     0.90633   0.47845   0.50912   0.00000  Uiso   1.00
H832   H     0.75678   0.39641   0.51332   0.00000  Uiso   1.00
H833   H     0.78414   0.43604   0.50911   0.00000  Uiso   1.00
H834   H     0.61617   0.06926   0.21031   0.00000  Uiso   1.00
H835   H     0.76900   0.38157   0.44224   0.00000  Uiso   1.00
H836   H     0.80150   0.41866   0.44170   0.00000  Uiso   1.00
H837   H     0.83571   0.38822   0.49637   0.00000  Uiso   1.00
H838   H     0.83321   0.36038   0.45339   0.00000  Uiso   1.00
H839   H     0.80399   0.35042   0.49400   0.00000  Uiso   1.00
H840   H     0.65125   0.48901   0.13518   0.00000  Uiso   1.00
H841   H     0.68019   0.46080   0.10640   0.00000  Uiso   1.00
H842   H     0.61865   0.01066   0.07465   0.00000  Uiso   1.00
H843   H     0.64553   0.47857   0.04716   0.00000  Uiso   1.00
H844   H     0.62125   0.42711   0.08725   0.00000  Uiso   1.00
H845   H     0.92961   0.11726   0.79162   0.00000  Uiso   1.00
H846   H     0.58554   0.45197   0.06281   0.00000  Uiso   1.00
H847   H     0.59315   0.45921   0.11375   0.00000  Uiso   1.00
H848   H     0.82984   0.47831   0.89035   0.00000  Uiso   1.00
H849   H     0.84995   0.00481   0.92923   0.00000  Uiso   1.00
H850   H     0.85644   0.02240   0.84244   0.00000  Uiso   1.00
H851   H     0.87773   0.04709   0.88147   0.00000  Uiso   1.00
H852   H     0.91252   0.49040   0.89983   0.00000  Uiso   1.00
H853   H     0.92144   0.00420   0.85067   0.00000  Uiso   1.00
H854   H     0.89129   0.46626   0.86002   0.00000  Uiso   1.00
H855   H     0.56548   0.20330   0.12113   0.00000  Uiso   1.00
H856   H     0.56971   0.38340   0.20954   0.00000  Uiso   1.00
H857   H     0.56638   0.18253   0.07344   0.00000  Uiso   1.00
H858   H     0.54920   0.14250   0.14951   0.00000  Uiso   1.00
H859   H     0.55085   0.12228   0.10208   0.00000  Uiso   1.00
H860   H     0.61694   0.14012   0.09619   0.00000  Uiso   1.00
H861   H     0.60868   0.11127   0.13751   0.00000  Uiso   1.00
H862   H     0.61517   0.15970   0.14429   0.00000  Uiso   1.00
H863   H     0.97656   0.33173   0.88439   0.00000  Uiso   1.00
H864   H     0.95048   0.33438   0.92878   0.00000  Uiso   1.00
H865   H     0.91880   0.33335   0.84641   0.00000  Uiso   1.00
H866   H     0.89257   0.33471   0.89044   0.00000  Uiso   1.00
H867   H     0.86717   0.17970   0.70853   0.00000  Uiso   1.00
H868   H     0.92210   0.39416   0.90837   0.00000  Uiso   1.00
H869   H     0.89932   0.39668   0.86228   0.00000  Uiso   1.00
H870   H     0.94843   0.39290   0.86405   0.00000  Uiso   1.00
H871   H     0.82287   0.03780   0.10978   0.00000  Uiso   1.00
H872   H     0.84788   0.01700   0.07019   0.00000  Uiso   1.00
H873   H     0.85921   0.00126   0.15683   0.00000  Uiso   1.00
H874   H     0.88415   0.48059   0.11759   0.00000  Uiso   1.00
H875   H     0.90736   0.04205   0.09748   0.00000  Uiso   1.00
H876   H     0.91881   0.03222   0.14711   0.00000  Uiso   1.00
H877   H     0.88185   0.06315   0.13635   0.00000  Uiso   1.00
H878   H     0.63355   0.31954   0.29020   0.00000  Uiso   1.00
H879   H     0.67015   0.02383   0.88830   0.00000  Uiso   1.00
H880   H     0.64952   0.49913   0.92816   0.00000  Uiso   1.00
H881   H     0.64243   0.47886   0.84209   0.00000  Uiso   1.00
H882   H     0.62095   0.45570   0.88204   0.00000  Uiso   1.00
H883   H     0.58720   0.01351   0.89877   0.00000  Uiso   1.00
H884   H     0.57773   0.49831   0.85017   0.00000  Uiso   1.00
H885   H     0.60856   0.03601   0.85799   0.00000  Uiso   1.00
H886   H     0.94509   0.32783   0.13951   0.00000  Uiso   1.00
H887   H     0.93376   0.28869   0.11116   0.00000  Uiso   1.00
H888   H     0.94095   0.36762   0.07972   0.00000  Uiso   1.00
H889   H     0.82006   0.36688   0.70893   0.00000  Uiso   1.00
H890   H     0.92587   0.32813   0.05290   0.00000  Uiso   1.00
H891   H     0.87232   0.32125   0.09701   0.00000  Uiso   1.00
H892   H     0.87351   0.36577   0.07474   0.00000  Uiso   1.00
H893   H     0.88735   0.36073   0.12440   0.00000  Uiso   1.00
H894   H     0.52511   0.16803   0.88332   0.00000  Uiso   1.00
H895   H     0.55010   0.16600   0.92840   0.00000  Uiso   1.00
H896   H     0.58363   0.16683   0.84685   0.00000  Uiso   1.00
H897   H     0.60899   0.16677   0.89146   0.00000  Uiso   1.00
H898   H     0.58085   0.10693   0.90976   0.00000  Uiso   1.00
H899   H     0.60422   0.10430   0.86398   0.00000  Uiso   1.00
H900   H     0.88275   0.07037   0.79161   0.00000  Uiso   1.00
H901   H     0.68067   0.13384   0.28983   0.00000  Uiso   1.00
H902   H     0.55500   0.10684   0.86511   0.00000  Uiso   1.00
H903   H     0.92063   0.22472   0.61080   0.00000  Uiso   1.00
H904   H     0.89946   0.24947   0.57131   0.00000  Uiso   1.00
H905   H     0.89255   0.26874   0.65769   0.00000  Uiso   1.00
H906   H     0.87055   0.29204   0.61817   0.00000  Uiso   1.00
H907   H     0.83736   0.23413   0.60093   0.00000  Uiso   1.00
H908   H     0.82817   0.24832   0.64993   0.00000  Uiso   1.00
H909   H     0.85938   0.21119   0.64100   0.00000  Uiso   1.00
H910   H     0.57897   0.22303   0.38876   0.00000  Uiso   1.00
H911   H     0.60072   0.24706   0.42842   0.00000  Uiso   1.00
H912   H     0.63243   0.32069   0.70781   0.00000  Uiso   1.00
H913   H     0.60793   0.26642   0.34211   0.00000  Uiso   1.00
H914   H     0.62994   0.28978   0.38162   0.00000  Uiso   1.00
H915   H     0.66294   0.23217   0.39924   0.00000  Uiso   1.00
H916   H     0.67197   0.24549   0.34995   0.00000  Uiso   1.00
H917   H     0.64062   0.20859   0.35973   0.00000  Uiso   1.00
H918   H     0.72116   0.41942   0.61616   0.00000  Uiso   1.00
H919   H     0.69575   0.41872   0.57128   0.00000  Uiso   1.00
H920   H     0.66320   0.42046   0.65327   0.00000  Uiso   1.00
H921   H     0.63724   0.42238   0.60907   0.00000  Uiso   1.00
H922   H     0.66169   0.36142   0.58935   0.00000  Uiso   1.00
H923   H     0.86598   0.18094   0.28937   0.00000  Uiso   1.00
H924   H     0.63911   0.35932   0.63560   0.00000  Uiso   1.00
H925   H     0.68837   0.35933   0.63339   0.00000  Uiso   1.00
H926   H     0.81701   0.04449   0.37826   0.00000  Uiso   1.00
H927   H     0.81902   0.06489   0.42609   0.00000  Uiso   1.00
H928   H     0.80280   0.10602   0.35046   0.00000  Uiso   1.00
H929   H     0.80552   0.12586   0.39800   0.00000  Uiso   1.00
H930   H     0.87096   0.10581   0.40315   0.00000  Uiso   1.00
H931   H     0.86341   0.13507   0.36201   0.00000  Uiso   1.00
H932   H     0.86814   0.08648   0.35500   0.00000  Uiso   1.00
H933   H     0.57895   0.27476   0.60987   0.00000  Uiso   1.00
H934   H     0.67965   0.13277   0.70841   0.00000  Uiso   1.00
H935   H     0.60016   0.24932   0.57086   0.00000  Uiso   1.00
H936   H     0.60752   0.23192   0.65762   0.00000  Uiso   1.00
H937   H     0.62962   0.20804   0.61852   0.00000  Uiso   1.00
H938   H     0.66217   0.26594   0.59988   0.00000  Uiso   1.00
H939   H     0.67171   0.25275   0.64910   0.00000  Uiso   1.00
H940   H     0.64010   0.28941   0.63961   0.00000  Uiso   1.00
H941   H     0.92049   0.27580   0.38944   0.00000  Uiso   1.00
H942   H     0.89959   0.25095   0.42906   0.00000  Uiso   1.00
H943   H     0.89114   0.23303   0.34254   0.00000  Uiso   1.00
H944   H     0.87022   0.20854   0.38194   0.00000  Uiso   1.00
H945   H     0.82437   0.37124   0.29744   0.00000  Uiso   1.00
H946   H     0.83667   0.26521   0.40164   0.00000  Uiso   1.00
H947   H     0.82695   0.25281   0.35223   0.00000  Uiso   1.00
H948   H     0.85790   0.28999   0.36229   0.00000  Uiso   1.00
H949   H     0.77822   0.08048   0.61589   0.00000  Uiso   1.00
H950   H     0.80422   0.08146   0.57137   0.00000  Uiso   1.00
H951   H     0.83574   0.07960   0.65379   0.00000  Uiso   1.00
H952   H     0.86223   0.07819   0.60991   0.00000  Uiso   1.00
H953   H     0.83732   0.13905   0.59035   0.00000  Uiso   1.00
H954   H     0.85952   0.14108   0.63679   0.00000  Uiso   1.00
H955   H     0.81028   0.14062   0.63418   0.00000  Uiso   1.00
H956   H     0.87121   0.32435   0.29739   0.00000  Uiso   1.00
H957   H     0.68323   0.45539   0.37768   0.00000  Uiso   1.00
H958   H     0.68080   0.43546   0.42569   0.00000  Uiso   1.00
H959   H     0.69783   0.39348   0.35075   0.00000  Uiso   1.00
H960   H     0.69430   0.37422   0.39848   0.00000  Uiso   1.00
H961   H     0.62885   0.39471   0.40229   0.00000  Uiso   1.00
H962   H     0.63691   0.36475   0.36180   0.00000  Uiso   1.00
H963   H     0.63251   0.41325   0.35386   0.00000  Uiso   1.00
H964   H     0.63279   0.17964   0.70838   0.00000  Uiso   1.00
H965   H     0.81886   0.13432   0.28887   0.00000  Uiso   1.00
H966   H     0.67943   0.36747   0.70805   0.00000  Uiso   1.00
H967   H     0.63381   0.18075   0.28974   0.00000  Uiso   1.00
H968   H     0.56909   0.11587   0.21077   0.00000  Uiso   1.00
H969   H     0.86693   0.32001   0.70892   0.00000  Uiso   1.00
H970   H     0.68069   0.36611   0.28963   0.00000  Uiso   1.00
H971   H     0.82017   0.13292   0.70877   0.00000  Uiso   1.00
H972   H     0.71139   0.07211   0.99649   0.00000  Uiso   1.00
H973   H     0.69896   0.07783   0.04709   0.00000  Uiso   1.00
H974   H     0.64570   0.06710   0.97901   0.00000  Uiso   1.00
H975   H     0.63315   0.07227   0.02910   0.00000  Uiso   1.00
H976   H     0.66195   0.13438   0.03022   0.00000  Uiso   1.00
H977   H     0.62717   0.13098   0.99348   0.00000  Uiso   1.00
H978   H     0.67472   0.12919   0.97992   0.00000  Uiso   1.00
H979   H     0.93031   0.38345   0.79041   0.00000  Uiso   1.00
H980   H     0.77330   0.07118   0.00888   0.00000  Uiso   1.00
H981   H     0.78599   0.08676   0.96075   0.00000  Uiso   1.00
H982   H     0.83807   0.07666   0.02998   0.00000  Uiso   1.00
H983   H     0.85050   0.09311   0.98268   0.00000  Uiso   1.00
H984   H     0.80908   0.14674   0.99092   0.00000  Uiso   1.00
H985   H     0.84169   0.14411   0.02991   0.00000  Uiso   1.00
H986   H     0.79519   0.12988   0.03790   0.00000  Uiso   1.00
H987   H     0.98721   0.14687   0.98713   0.00000  Uiso   1.00
H988   H     0.96218   0.18797   0.99161   0.00000  Uiso   1.00
H989   H     0.97510   0.13299   0.05850   0.00000  Uiso   1.00
H990   H     0.88416   0.06888   0.21098   0.00000  Uiso   1.00
H991   H     0.94466   0.17175   0.05925   0.00000  Uiso   1.00
H992   H     0.90830   0.14285   0.00508   0.00000  Uiso   1.00
H993   H     0.90963   0.11528   0.04828   0.00000  Uiso   1.00
H994   H     0.93788   0.10340   0.00748   0.00000  Uiso   1.00
H995   H     0.89853   0.27350   0.01085   0.00000  Uiso   1.00
H996   H     0.92986   0.23682   0.00901   0.00000  Uiso   1.00
H997   H     0.88244   0.26350   0.94020   0.00000  Uiso   1.00
H998   H     0.91087   0.22323   0.94062   0.00000  Uiso   1.00
H999   H     0.87267   0.19747   0.99470   0.00000  Uiso   1.00
H1000  H     0.84664   0.20610   0.95141   0.00000  Uiso   1.00
H1001  H     0.61762   0.42927   0.79225   0.00000  Uiso   1.00
H1002  H     0.84329   0.23707   0.99183   0.00000  Uiso   1.00
H1003  H     0.83319   0.43623   0.98865   0.00000  Uiso   1.00
H1004  H     0.78502   0.43881   0.98716   0.00000  Uiso   1.00
H1005  H     0.83049   0.41616   0.05894   0.00000  Uiso   1.00
H1006  H     0.78142   0.41408   0.05490   0.00000  Uiso   1.00
H1007  H     0.78772   0.36911   0.00018   0.00000  Uiso   1.00
H1008  H     0.80774   0.35298   0.04464   0.00000  Uiso   1.00
H1009  H     0.83678   0.36995   0.00654   0.00000  Uiso   1.00
H1010  H     0.67937   0.42637   0.01397   0.00000  Uiso   1.00
H1011  H     0.72660   0.43059   0.00388   0.00000  Uiso   1.00
H1012  H     0.92520   0.37828   0.20186   0.00000  Uiso   1.00
H1013  H     0.66774   0.40879   0.94366   0.00000  Uiso   1.00
H1014  H     0.71659   0.40774   0.93667   0.00000  Uiso   1.00
H1015  H     0.72177   0.36063   0.98942   0.00000  Uiso   1.00
H1016  H     0.69314   0.34582   0.95001   0.00000  Uiso   1.00
H1017  H     0.67256   0.36105   0.99456   0.00000  Uiso   1.00
H1018  H     0.51508   0.35494   0.98921   0.00000  Uiso   1.00
H1019  H     0.53688   0.31196   0.98742   0.00000  Uiso   1.00
H1020  H     0.53371   0.36222   0.05970   0.00000  Uiso   1.00
H1021  H     0.56016   0.32085   0.05513   0.00000  Uiso   1.00
H1022  H     0.59523   0.35003   0.99997   0.00000  Uiso   1.00
H1023  H     0.57005   0.11696   0.79107   0.00000  Uiso   1.00
H1024  H     0.60012   0.37377   0.04533   0.00000  Uiso   1.00
H1025  H     0.57037   0.39194   0.00852   0.00000  Uiso   1.00
H1026  H     0.60137   0.22718   0.01139   0.00000  Uiso   1.00
H1027  H     0.57266   0.26540   0.00389   0.00000  Uiso   1.00
H1028  H     0.61980   0.22878   0.94021   0.00000  Uiso   1.00
H1029  H     0.59499   0.27118   0.93587   0.00000  Uiso   1.00
H1030  H     0.63442   0.29850   0.98801   0.00000  Uiso   1.00
H1031  H     0.66053   0.28305   0.94692   0.00000  Uiso   1.00
H1032  H     0.65985   0.25621   0.99059   0.00000  Uiso   1.00
H1033  H     0.97321   0.31810   0.49172   0.00000  Uiso   1.00
H1034  H     0.61706   0.07024   0.79137   0.00000  Uiso   1.00
H1035  H     0.95740   0.33292   0.53907   0.00000  Uiso   1.00
H1036  H     0.90901   0.31864   0.46766   0.00000  Uiso   1.00
H1037  H     0.89372   0.33493   0.51412   0.00000  Uiso   1.00
H1038  H     0.93244   0.39089   0.50666   0.00000  Uiso   1.00
H1039  H     0.90101   0.38591   0.46683   0.00000  Uiso   1.00
H1040  H     0.94845   0.37438   0.46030   0.00000  Uiso   1.00
H1041  H     0.53420   0.31802   0.50953   0.00000  Uiso   1.00
H1042  H     0.54631   0.32999   0.46006   0.00000  Uiso   1.00
H1043  H     0.60006   0.31528   0.52688   0.00000  Uiso   1.00
H1044  H     0.61227   0.32712   0.47798   0.00000  Uiso   1.00
O1045  O     0.75000   0.00000   0.25000   0.00000  Uiso   1.00
O1046  O     0.75000   0.46964   0.66317   0.00000  Uiso   1.00
O1047  O     0.96964   0.25000   0.33683   0.00000  Uiso   1.00
O1048  O     0.53036   0.25000   0.66317   0.00000  Uiso   1.00
O1049  O     0.50000   0.21964   0.83683   0.00000  Uiso   1.00
O1050  O     0.50000   0.28036   0.16317   0.00000  Uiso   1.00
O1051  O     0.78036   0.00000   0.83683   0.00000  Uiso   1.00
O1052  O     0.71964   0.00000   0.16317   0.00000  Uiso   1.00
O1053  O     0.50000   0.28036   0.83683   0.00000  Uiso   1.00
O1054  O     0.50000   0.21964   0.16317   0.00000  Uiso   1.00
O1055  O     0.71964   0.00000   0.83683   0.00000  Uiso   1.00
O1056  O     0.75000   0.00000   0.75000   0.00000  Uiso   1.00
O1057  O     0.78036   0.00000   0.16317   0.00000  Uiso   1.00
O1058  O     0.70726   0.07307   0.27282   0.00000  Uiso   1.00
O1059  O     0.79275   0.42693   0.72718   0.00000  Uiso   1.00
O1060  O     0.92693   0.20726   0.27282   0.00000  Uiso   1.00
O1061  O     0.57307   0.29274   0.72718   0.00000  Uiso   1.00
O1062  O     0.79275   0.42693   0.27282   0.00000  Uiso   1.00
O1063  O     0.70726   0.07307   0.72718   0.00000  Uiso   1.00
O1064  O     0.57307   0.29274   0.27282   0.00000  Uiso   1.00
O1065  O     0.92693   0.20726   0.72718   0.00000  Uiso   1.00
O1066  O     0.70726   0.42693   0.72718   0.00000  Uiso   1.00
O1067  O     0.50000   0.25000   0.25000   0.00000  Uiso   1.00
O1068  O     0.79275   0.07307   0.27282   0.00000  Uiso   1.00
O1069  O     0.92693   0.29275   0.72718   0.00000  Uiso   1.00
O1070  O     0.57307   0.20725   0.27282   0.00000  Uiso   1.00
O1071  O     0.79275   0.07307   0.72718   0.00000  Uiso   1.00
O1072  O     0.70726   0.42693   0.27282   0.00000  Uiso   1.00
O1073  O     0.57307   0.20725   0.72718   0.00000  Uiso   1.00
O1074  O     0.92693   0.29275   0.27282   0.00000  Uiso   1.00
O1075  O     0.95726   0.32307   0.77282   0.00000  Uiso   1.00
O1076  O     0.54275   0.17693   0.22718   0.00000  Uiso   1.00
O1077  O     0.67693   0.45725   0.77282   0.00000  Uiso   1.00
O1078  O     0.50000   0.25000   0.75000   0.00000  Uiso   1.00
O1079  O     0.82307   0.04275   0.22718   0.00000  Uiso   1.00
O1080  O     0.54275   0.17693   0.77282   0.00000  Uiso   1.00
O1081  O     0.95726   0.32307   0.22718   0.00000  Uiso   1.00
O1082  O     0.82307   0.04275   0.77282   0.00000  Uiso   1.00
O1083  O     0.67693   0.45725   0.22718   0.00000  Uiso   1.00
O1084  O     0.95726   0.17693   0.22718   0.00000  Uiso   1.00
O1085  O     0.54275   0.32307   0.77282   0.00000  Uiso   1.00
O1086  O     0.67693   0.04275   0.22718   0.00000  Uiso   1.00
O1087  O     0.82307   0.45725   0.77282   0.00000  Uiso   1.00
O1088  O     0.54275   0.32307   0.22718   0.00000  Uiso   1.00
O1089  O     0.75000   0.46964   0.33683   0.00000  Uiso   1.00
O1090  O     0.95726   0.17693   0.77282   0.00000  Uiso   1.00
O1091  O     0.82307   0.45725   0.22718   0.00000  Uiso   1.00
O1092  O     0.67693   0.04275   0.77282   0.00000  Uiso   1.00
O1093  O     0.68867   0.02651   0.02226   0.00000  Uiso   1.00
O1094  O     0.80611   0.03578   0.97745   0.00000  Uiso   1.00
O1095  O     0.51170   0.18411   0.02235   0.00000  Uiso   1.00
O1096  O     0.94256   0.28371   0.97650   0.00000  Uiso   1.00
O1097  O     0.81236   0.47685   0.02232   0.00000  Uiso   1.00
O1098  O     0.69100   0.46830   0.97724   0.00000  Uiso   1.00
O1099  O     0.99023   0.31641   0.02253   0.00000  Uiso   1.00
O1100  O     0.75000   0.03036   0.66317   0.00000  Uiso   1.00
O1101  O     0.55827   0.21620   0.97609   0.00000  Uiso   1.00
O1102  O     0.94157   0.28059   0.52188   0.00000  Uiso   1.00
O1103  O     0.55997   0.27719   0.47838   0.00000  Uiso   1.00
O1104  O     0.69003   0.46981   0.52393   0.00000  Uiso   1.00
O1105  O     0.76476   0.06540   0.47765   0.00000  Uiso   1.00
O1106  O     0.55803   0.21652   0.52245   0.00000  Uiso   1.00
O1107  O     0.94045   0.21960   0.47788   0.00000  Uiso   1.00
O1108  O     0.80972   0.03036   0.52384   0.00000  Uiso   1.00
O1109  O     0.73487   0.43481   0.47766   0.00000  Uiso   1.00
O1110  O     0.68557   0.01857   0.10049   0.00000  Uiso   1.00
O1111  O     0.53036   0.25000   0.33683   0.00000  Uiso   1.00
O1112  O     0.80863   0.03093   0.89847   0.00000  Uiso   1.00
O1113  O     0.51525   0.18536   0.10043   0.00000  Uiso   1.00
O1114  O     0.94497   0.28591   0.89715   0.00000  Uiso   1.00
O1115  O     0.81366   0.48192   0.10073   0.00000  Uiso   1.00
O1116  O     0.69024   0.47109   0.89825   0.00000  Uiso   1.00
O1117  O     0.98482   0.31498   0.10018   0.00000  Uiso   1.00
O1118  O     0.55561   0.21440   0.89654   0.00000  Uiso   1.00
O1119  O     0.93994   0.27785   0.60115   0.00000  Uiso   1.00
O1120  O     0.56073   0.27642   0.39896   0.00000  Uiso   1.00
O1121  O     0.69282   0.46721   0.60333   0.00000  Uiso   1.00
O1122  O     0.96964   0.25000   0.66317   0.00000  Uiso   1.00
O1123  O     0.76764   0.06411   0.39949   0.00000  Uiso   1.00
O1124  O     0.56001   0.22128   0.60154   0.00000  Uiso   1.00
O1125  O     0.93940   0.22248   0.39830   0.00000  Uiso   1.00
O1126  O     0.80705   0.03290   0.60321   0.00000  Uiso   1.00
O1127  O     0.73240   0.43594   0.39951   0.00000  Uiso   1.00
O1128  O     0.75000   0.03036   0.33683   0.00000  Uiso   1.00
Zn1129 Zn    0.70660   0.00000   0.21760   0.00000  Uiso   1.00
Zn1130 Zn    0.54340   0.25000   0.28240   0.00000  Uiso   1.00
Zn1131 Zn    0.75000   0.45660   0.71760   0.00000  Uiso   1.00
Zn1132 Zn    0.75000   0.04340   0.28240   0.00000  Uiso   1.00
Zn1133 Zn    0.54340   0.25000   0.71760   0.00000  Uiso   1.00
Zn1134 Zn    0.95660   0.25000   0.28240   0.00000  Uiso   1.00
Zn1135 Zn    0.75000   0.04340   0.71760   0.00000  Uiso   1.00
Zn1136 Zn    0.75000   0.45660   0.28240   0.00000  Uiso   1.00
Zn1137 Zn    0.79340   0.00000   0.78240   0.00000  Uiso   1.00
Zn1138 Zn    0.50000   0.20660   0.21760   0.00000  Uiso   1.00
Zn1139 Zn    0.50000   0.29340   0.78240   0.00000  Uiso   1.00
Zn1140 Zn    0.79340   0.00000   0.21760   0.00000  Uiso   1.00
Zn1141 Zn    0.70660   0.00000   0.78240   0.00000  Uiso   1.00
Zn1142 Zn    0.50000   0.29340   0.21760   0.00000  Uiso   1.00
Zn1143 Zn    0.50000   0.20660   0.78240   0.00000  Uiso   1.00
Zn1144 Zn    0.95660   0.25000   0.71760   0.00000  Uiso   1.00
C1145  C     0.21903   0.51329   0.04151   0.00000  Uiso   1.00
C1146  C     0.02987   0.76381   0.45873   0.00000  Uiso   1.00
C1147  C     0.34818   0.90191   0.74993   0.00000  Uiso   1.00
C1148  C     0.40191   0.65183   0.25007   0.00000  Uiso   1.00
C1149  C     0.09814   0.84813   0.75000   0.00000  Uiso   1.00
C1150  C     0.34801   0.90173   0.24978   0.00000  Uiso   1.00
C1151  C     0.15183   0.59810   0.74996   0.00000  Uiso   1.00
C1152  C     0.09807   0.65181   0.74988   0.00000  Uiso   1.00
C1153  C     0.40171   0.84797   0.24974   0.00000  Uiso   1.00
C1154  C     0.15190   0.90185   0.75005   0.00000  Uiso   1.00
C1155  C     0.34813   0.59813   0.25002   0.00000  Uiso   1.00
C1156  C     0.40195   0.84821   0.74985   0.00000  Uiso   1.00
C1157  C     0.21970   0.98547   0.54266   0.00000  Uiso   1.00
C1158  C     0.09809   0.65183   0.25008   0.00000  Uiso   1.00
C1159  C     0.34809   0.59816   0.75007   0.00000  Uiso   1.00
C1160  C     0.15197   0.90177   0.24984   0.00000  Uiso   1.00
C1161  C     0.24972   0.99993   0.10210   0.00000  Uiso   1.00
C1162  C     0.24974   0.50043   0.89762   0.00000  Uiso   1.00
C1163  C     0.49997   0.75004   0.10193   0.00000  Uiso   1.00
C1164  C     0.00021   0.75002   0.89710   0.00000  Uiso   1.00
C1165  C     0.49996   0.74955   0.60225   0.00000  Uiso   1.00
C1166  C    -0.00000   0.74959   0.39777   0.00000  Uiso   1.00
C1167  C     0.24997   0.99999   0.60296   0.00000  Uiso   1.00
C1168  C     0.25600   0.53299   0.45897   0.00000  Uiso   1.00
C1169  C     0.24998   0.50003   0.39807   0.00000  Uiso   1.00
C1170  C     0.19111   0.56484   0.01912   0.00000  Uiso   1.00
C1171  C     0.15385   0.57970   0.00695   0.00000  Uiso   1.00
C1172  C     0.15460   0.62116   0.00239   0.00000  Uiso   1.00
C1173  C     0.29541   0.57168   0.98690   0.00000  Uiso   1.00
C1174  C     0.32806   0.59183   0.00427   0.00000  Uiso   1.00
C1175  C     0.31775   0.63055   0.01645   0.00000  Uiso   1.00
C1176  C     0.47910   0.66833   0.00815   0.00000  Uiso   1.00
C1177  C     0.45685   0.65031   0.04055   0.00000  Uiso   1.00
C1178  C     0.42627   0.62652   0.02424   0.00000  Uiso   1.00
C1179  C     0.02891   0.73242   0.54166   0.00000  Uiso   1.00
C1180  C     0.41695   0.75828   0.99106   0.00000  Uiso   1.00
C1181  C     0.39367   0.74143   0.95875   0.00000  Uiso   1.00
C1182  C     0.36212   0.71914   0.97531   0.00000  Uiso   1.00
C1183  C     0.30872   0.94125   0.00688   0.00000  Uiso   1.00
C1184  C     0.30745   0.91190   0.03855   0.00000  Uiso   1.00
C1185  C     0.31008   0.87363   0.02129   0.00000  Uiso   1.00
C1186  C     0.19913   0.93273   0.99056   0.00000  Uiso   1.00
C1187  C     0.19441   0.90443   0.95829   0.00000  Uiso   1.00
C1188  C     0.19558   0.86559   0.97419   0.00000  Uiso   1.00
C1189  C     0.02292   0.83114   0.00728   0.00000  Uiso   1.00
C1190  C     0.47026   0.73382   0.45838   0.00000  Uiso   1.00
C1191  C     0.04892   0.84460   0.03908   0.00000  Uiso   1.00
C1192  C     0.08060   0.86642   0.02206   0.00000  Uiso   1.00
C1193  C     0.08478   0.74140   0.98914   0.00000  Uiso   1.00
C1194  C     0.11016   0.75328   0.95621   0.00000  Uiso   1.00
C1195  C     0.14326   0.77407   0.97151   0.00000  Uiso   1.00
C1196  C     0.45018   0.81710   0.51261   0.00000  Uiso   1.00
C1197  C     0.41702   0.83482   0.49351   0.00000  Uiso   1.00
C1198  C     0.42535   0.87394   0.48111   0.00000  Uiso   1.00
C1199  C     0.05494   0.81462   0.48636   0.00000  Uiso   1.00
C1200  C     0.09109   0.83046   0.50074   0.00000  Uiso   1.00
C1201  C     0.28008   0.51466   0.54259   0.00000  Uiso   1.00
C1202  C     0.08752   0.87090   0.51074   0.00000  Uiso   1.00
C1203  C     0.16565   0.99673   0.51015   0.00000  Uiso   1.00
C1204  C     0.14311   0.51361   0.54300   0.00000  Uiso   1.00
C1205  C     0.11265   0.53777   0.52723   0.00000  Uiso   1.00
C1206  C     0.23324   0.58287   0.49230   0.00000  Uiso   1.00
C1207  C     0.21123   0.60154   0.46016   0.00000  Uiso   1.00
C1208  C     0.18193   0.62665   0.47684   0.00000  Uiso   1.00
C1209  C     0.04906   0.68014   0.51299   0.00000  Uiso   1.00
C1210  C     0.08194   0.66231   0.49344   0.00000  Uiso   1.00
C1211  C     0.07317   0.62341   0.48057   0.00000  Uiso   1.00
C1212  C     0.24372   0.96719   0.45897   0.00000  Uiso   1.00
C1213  C     0.44400   0.68134   0.48091   0.00000  Uiso   1.00
C1214  C     0.40680   0.66519   0.49137   0.00000  Uiso   1.00
C1215  C     0.40865   0.62374   0.49563   0.00000  Uiso   1.00
C1216  C     0.33393   0.50347   0.50961   0.00000  Uiso   1.00
C1217  C     0.35629   0.98588   0.54216   0.00000  Uiso   1.00
C1218  C     0.38660   0.96176   0.52594   0.00000  Uiso   1.00
C1219  C     0.26635   0.91732   0.49237   0.00000  Uiso   1.00
C1220  C     0.28796   0.89799   0.46034   0.00000  Uiso   1.00
C1221  C     0.31702   0.87273   0.47717   0.00000  Uiso   1.00
C1222  C     0.16407   0.98673   0.10617   0.00000  Uiso   1.00
C1223  C     0.21769   0.50954   0.08159   0.00000  Uiso   1.00
C1224  C     0.13360   0.98427   0.07597   0.00000  Uiso   1.00
C1225  C     0.10676   0.95371   0.08566   0.00000  Uiso   1.00
C1226  C     0.33834   0.50628   0.89955   0.00000  Uiso   1.00
C1227  C     0.36802   0.51975   0.87197   0.00000  Uiso   1.00
C1228  C     0.40029   0.99343   0.87065   0.00000  Uiso   1.00
C1229  C     0.05357   0.68138   0.10266   0.00000  Uiso   1.00
C1230  C     0.06227   0.64430   0.12062   0.00000  Uiso   1.00
C1231  C     0.10337   0.63862   0.12486   0.00000  Uiso   1.00
C1232  C     0.45028   0.82413   0.89849   0.00000  Uiso   1.00
C1233  C     0.41896   0.84268   0.87696   0.00000  Uiso   1.00
C1234  C     0.27944   0.51560   0.91803   0.00000  Uiso   1.00
C1235  C     0.42255   0.88420   0.87805   0.00000  Uiso   1.00
C1236  C     0.33721   0.51255   0.09992   0.00000  Uiso   1.00
C1237  C     0.36945   0.50563   0.12695   0.00000  Uiso   1.00
C1238  C     0.39596   0.53783   0.12689   0.00000  Uiso   1.00
C1239  C     0.16106   0.99639   0.89855   0.00000  Uiso   1.00
C1240  C     0.13104   0.98258   0.87159   0.00000  Uiso   1.00
C1241  C     0.09918   0.50935   0.86961   0.00000  Uiso   1.00
C1242  C     0.44723   0.81608   0.10998   0.00000  Uiso   1.00
C1243  C     0.42661   0.84093   0.08198   0.00000  Uiso   1.00
C1244  C     0.38750   0.84749   0.09551   0.00000  Uiso   1.00
C1245  C     0.00744   0.71758   0.08133   0.00000  Uiso   1.00
C1246  C     0.05090   0.67611   0.89809   0.00000  Uiso   1.00
C1247  C     0.08307   0.65797   0.87755   0.00000  Uiso   1.00
C1248  C     0.08048   0.61641   0.87928   0.00000  Uiso   1.00
C1249  C     0.41111   0.75212   0.60087   0.00000  Uiso   1.00
C1250  C     0.38107   0.76519   0.62821   0.00000  Uiso   1.00
C1251  C     0.34957   0.73793   0.63003   0.00000  Uiso   1.00
C1252  C     0.08904   0.75016   0.39893   0.00000  Uiso   1.00
C1253  C     0.11928   0.76294   0.37166   0.00000  Uiso   1.00
C1254  C     0.15061   0.73551   0.37014   0.00000  Uiso   1.00
C1255  C     0.19567   0.92875   0.60165   0.00000  Uiso   1.00
C1256  C     0.27782   0.51842   0.95824   0.00000  Uiso   1.00
C1257  C     0.47284   0.76888   0.91728   0.00000  Uiso   1.00
C1258  C     0.16284   0.91204   0.62242   0.00000  Uiso   1.00
C1259  C     0.16316   0.87042   0.61997   0.00000  Uiso   1.00
C1260  C     0.30607   0.56670   0.39699   0.00000  Uiso   1.00
C1261  C     0.31600   0.60357   0.37922   0.00000  Uiso   1.00
C1262  C     0.35724   0.60787   0.37462   0.00000  Uiso   1.00
C1263  C     0.08864   0.74723   0.60054   0.00000  Uiso   1.00
C1264  C     0.11888   0.73498   0.62803   0.00000  Uiso   1.00
C1265  C     0.15013   0.76256   0.62912   0.00000  Uiso   1.00
C1266  C     0.41083   0.74842   0.39931   0.00000  Uiso   1.00
C1267  C     0.38028   0.73574   0.37239   0.00000  Uiso   1.00
C1268  C     0.28175   0.99077   0.08146   0.00000  Uiso   1.00
C1269  C     0.34852   0.76270   0.37221   0.00000  Uiso   1.00
C1270  C     0.30396   0.57135   0.60170   0.00000  Uiso   1.00
C1271  C     0.33638   0.58822   0.62301   0.00000  Uiso   1.00
C1272  C     0.33570   0.62985   0.62088   0.00000  Uiso   1.00
C1273  C     0.19400   0.93336   0.39672   0.00000  Uiso   1.00
C1274  C     0.18419   0.89632   0.37925   0.00000  Uiso   1.00
C1275  C     0.14301   0.89212   0.37403   0.00000  Uiso   1.00
C1276  C     0.21956   0.98603   0.91794   0.00000  Uiso   1.00
C1277  C     0.49284   0.78261   0.08128   0.00000  Uiso   1.00
C1278  C     0.02778   0.73119   0.91698   0.00000  Uiso   1.00
C1279  C     0.46955   0.76317   0.58172   0.00000  Uiso   1.00
C1280  C     0.03083   0.76226   0.41836   0.00000  Uiso   1.00
C1281  C     0.22149   0.98266   0.58298   0.00000  Uiso   1.00
C1282  C     0.25866   0.53220   0.41866   0.00000  Uiso   1.00
C1283  C     0.03025   0.73534   0.58191   0.00000  Uiso   1.00
C1284  C     0.00487   0.71697   0.04104   0.00000  Uiso   1.00
C1285  C     0.46923   0.73634   0.41805   0.00000  Uiso   1.00
C1286  C     0.27838   0.51737   0.58293   0.00000  Uiso   1.00
C1287  C     0.24125   0.96790   0.41866   0.00000  Uiso   1.00
C1288  C     0.24970   0.50053   0.02101   0.00000  Uiso   1.00
C1289  C     0.24930   0.50100   0.97857   0.00000  Uiso   1.00
C1290  C     0.00079   0.75017   0.02057   0.00000  Uiso   1.00
C1291  C     0.00054   0.75004   0.97796   0.00000  Uiso   1.00
C1292  C     0.49978   0.74852   0.52124   0.00000  Uiso   1.00
C1293  C     0.00000   0.74867   0.47879   0.00000  Uiso   1.00
C1294  C     0.24986   0.50009   0.52210   0.00000  Uiso   1.00
C1295  C     0.47115   0.76631   0.95762   0.00000  Uiso   1.00
C1296  C     0.24981   0.50010   0.47946   0.00000  Uiso   1.00
C1297  C     0.25001   0.50001   0.35537   0.00000  Uiso   1.00
C1298  C     0.25000   0.99999   0.64499   0.00000  Uiso   1.00
C1299  C    -0.00000   0.74996   0.35527   0.00000  Uiso   1.00
C1300  C    -0.00000   0.74995   0.64474   0.00000  Uiso   1.00
C1301  C     0.00003   0.75001   0.85503   0.00000  Uiso   1.00
C1302  C     0.49998   0.75000   0.14463   0.00000  Uiso   1.00
C1303  C     0.24996   0.50007   0.85522   0.00000  Uiso   1.00
C1304  C     0.24995   0.99998   0.14469   0.00000  Uiso   1.00
C1305  C     0.17994   0.57008   0.25000   0.00000  Uiso   1.00
C1306  C     0.28073   0.98780   0.04120   0.00000  Uiso   1.00
C1307  C     0.32007   0.92993   0.74999   0.00000  Uiso   1.00
C1308  C     0.42995   0.67992   0.25003   0.00000  Uiso   1.00
C1309  C     0.07007   0.82007   0.74999   0.00000  Uiso   1.00
C1310  C     0.32004   0.92990   0.24994   0.00000  Uiso   1.00
C1311  C     0.17992   0.57007   0.75000   0.00000  Uiso   1.00
C1312  C     0.07006   0.82007   0.25001   0.00000  Uiso   1.00
C1313  C     0.42993   0.67993   0.75000   0.00000  Uiso   1.00
C1314  C     0.17994   0.92993   0.75001   0.00000  Uiso   1.00
C1315  C     0.32007   0.57007   0.25001   0.00000  Uiso   1.00
C1316  C     0.42996   0.82009   0.74997   0.00000  Uiso   1.00
C1317  C     0.22068   0.98360   0.95822   0.00000  Uiso   1.00
C1318  C     0.07006   0.67992   0.25001   0.00000  Uiso   1.00
C1319  C     0.32006   0.57007   0.75001   0.00000  Uiso   1.00
C1320  C     0.17996   0.92990   0.24996   0.00000  Uiso   1.00
C1321  C     0.07006   0.67992   0.74997   0.00000  Uiso   1.00
C1322  C     0.42988   0.82002   0.24992   0.00000  Uiso   1.00
C1323  C     0.12057   0.90618   0.22717   0.00000  Uiso   1.00
C1324  C     0.37909   0.59415   0.77342   0.00000  Uiso   1.00
C1325  C     0.09346   0.62016   0.22787   0.00000  Uiso   1.00
C1326  C     0.40624   0.87951   0.77272   0.00000  Uiso   1.00
C1327  C     0.37989   0.59333   0.22801   0.00000  Uiso   1.00
C1328  C     0.49633   0.78335   0.04110   0.00000  Uiso   1.00
C1329  C     0.12111   0.90566   0.77376   0.00000  Uiso   1.00
C1330  C     0.40335   0.87657   0.22289   0.00000  Uiso   1.00
C1331  C     0.09396   0.62073   0.77309   0.00000  Uiso   1.00
C1332  C     0.12076   0.59404   0.77321   0.00000  Uiso   1.00
C1333  C     0.37662   0.90335   0.22292   0.00000  Uiso   1.00
C1334  C     0.09436   0.87890   0.77375   0.00000  Uiso   1.00
C1335  C     0.40663   0.62011   0.22795   0.00000  Uiso   1.00
C1336  C     0.37943   0.90619   0.77286   0.00000  Uiso   1.00
C1337  C     0.12028   0.59351   0.22771   0.00000  Uiso   1.00
C1338  C     0.40584   0.62091   0.77341   0.00000  Uiso   1.00
C1339  C     0.02976   0.73377   0.95732   0.00000  Uiso   1.00
C1340  C     0.09380   0.87944   0.22720   0.00000  Uiso   1.00
C1341  C     0.37083   0.65591   0.72672   0.00000  Uiso   1.00
C1342  C     0.12959   0.84363   0.27254   0.00000  Uiso   1.00
C1343  C     0.34400   0.87071   0.72686   0.00000  Uiso   1.00
C1344  C     0.15643   0.62971   0.27243   0.00000  Uiso   1.00
C1345  C     0.12895   0.84431   0.72631   0.00000  Uiso   1.00
C1346  C     0.37019   0.65659   0.27216   0.00000  Uiso   1.00
C1347  C     0.15585   0.62910   0.72659   0.00000  Uiso   1.00
C1348  C     0.34626   0.87300   0.27646   0.00000  Uiso   1.00
C1349  C     0.37298   0.84624   0.27644   0.00000  Uiso   1.00
C1350  C     0.47068   0.76503   0.54139   0.00000  Uiso   1.00
C1351  C     0.12910   0.65585   0.72657   0.00000  Uiso   1.00
C1352  C     0.34336   0.62992   0.27199   0.00000  Uiso   1.00
C1353  C     0.15574   0.87102   0.72640   0.00000  Uiso   1.00
C1354  C     0.12968   0.65647   0.27241   0.00000  Uiso   1.00
C1355  C     0.37075   0.84397   0.72684   0.00000  Uiso   1.00
C1356  C     0.15644   0.87028   0.27233   0.00000  Uiso   1.00
C1357  C     0.34403   0.62921   0.72681   0.00000  Uiso   1.00
C1358  C     0.09816   0.84809   0.24995   0.00000  Uiso   1.00
C1359  C     0.40185   0.65188   0.75002   0.00000  Uiso   1.00
C1360  C     0.15188   0.59814   0.25002   0.00000  Uiso   1.00
H1361  H     0.11662   0.93028   0.20951   0.00000  Uiso   1.00
H1362  H     0.37837   0.92522   0.20193   0.00000  Uiso   1.00
H1363  H     0.07935   0.88677   0.48480   0.00000  Uiso   1.00
H1364  H     0.11419   0.88143   0.52122   0.00000  Uiso   1.00
H1365  H     0.06684   0.87482   0.53387   0.00000  Uiso   1.00
H1366  H     0.14663   0.98290   0.48987   0.00000  Uiso   1.00
H1367  H     0.17958   0.51811   0.49291   0.00000  Uiso   1.00
H1368  H     0.13084   0.99150   0.56078   0.00000  Uiso   1.00
H1369  H     0.16109   0.53046   0.56175   0.00000  Uiso   1.00
H1370  H     0.12425   0.55963   0.50875   0.00000  Uiso   1.00
H1371  H     0.09764   0.55062   0.55157   0.00000  Uiso   1.00
H1372  H     0.09313   0.52126   0.50996   0.00000  Uiso   1.00
H1373  H     0.07075   0.88238   0.79226   0.00000  Uiso   1.00
H1374  H     0.24276   0.60419   0.51282   0.00000  Uiso   1.00
H1375  H     0.21576   0.56426   0.50952   0.00000  Uiso   1.00
H1376  H     0.22989   0.61796   0.44172   0.00000  Uiso   1.00
H1377  H     0.19784   0.58048   0.44187   0.00000  Uiso   1.00
H1378  H     0.16349   0.61115   0.49629   0.00000  Uiso   1.00
H1379  H     0.16550   0.63853   0.45300   0.00000  Uiso   1.00
H1380  H     0.19476   0.64930   0.49334   0.00000  Uiso   1.00
H1381  H     0.02583   0.67939   0.49236   0.00000  Uiso   1.00
H1382  H     0.04197   0.66427   0.53944   0.00000  Uiso   1.00
H1383  H     0.08998   0.67868   0.46775   0.00000  Uiso   1.00
H1384  H     0.43099   0.61587   0.21076   0.00000  Uiso   1.00
H1385  H     0.10534   0.66174   0.51389   0.00000  Uiso   1.00
H1386  H     0.06585   0.60630   0.50591   0.00000  Uiso   1.00
H1387  H     0.09738   0.61131   0.46615   0.00000  Uiso   1.00
H1388  H     0.05008   0.62345   0.45976   0.00000  Uiso   1.00
H1389  H     0.46364   0.67469   0.50436   0.00000  Uiso   1.00
H1390  H     0.45338   0.66863   0.45332   0.00000  Uiso   1.00
H1391  H     0.39717   0.67729   0.51903   0.00000  Uiso   1.00
H1392  H     0.38675   0.67213   0.46839   0.00000  Uiso   1.00
H1393  H     0.41747   0.61099   0.46803   0.00000  Uiso   1.00
H1394  H     0.38122   0.61298   0.50329   0.00000  Uiso   1.00
H1395  H     0.38326   0.93015   0.79078   0.00000  Uiso   1.00
H1396  H     0.42815   0.61618   0.51887   0.00000  Uiso   1.00
H1397  H     0.35310   0.51749   0.48962   0.00000  Uiso   1.00
H1398  H     0.31989   0.98248   0.49195   0.00000  Uiso   1.00
H1399  H     0.36868   0.50759   0.56039   0.00000  Uiso   1.00
H1400  H     0.33815   0.96884   0.56054   0.00000  Uiso   1.00
H1401  H     0.37491   0.94037   0.50691   0.00000  Uiso   1.00
H1402  H     0.40141   0.94832   0.55004   0.00000  Uiso   1.00
H1403  H     0.40633   0.97845   0.50912   0.00000  Uiso   1.00
H1404  H     0.25678   0.89641   0.51332   0.00000  Uiso   1.00
H1405  H     0.28414   0.93604   0.50911   0.00000  Uiso   1.00
H1406  H     0.11617   0.56926   0.21031   0.00000  Uiso   1.00
H1407  H     0.26900   0.88157   0.44224   0.00000  Uiso   1.00
H1408  H     0.30150   0.91866   0.44170   0.00000  Uiso   1.00
H1409  H     0.33571   0.88822   0.49637   0.00000  Uiso   1.00
H1410  H     0.33321   0.86038   0.45339   0.00000  Uiso   1.00
H1411  H     0.30399   0.85042   0.49400   0.00000  Uiso   1.00
H1412  H     0.15125   0.98901   0.13518   0.00000  Uiso   1.00
H1413  H     0.18019   0.96080   0.10640   0.00000  Uiso   1.00
H1414  H     0.11865   0.51066   0.07465   0.00000  Uiso   1.00
H1415  H     0.14553   0.97857   0.04716   0.00000  Uiso   1.00
H1416  H     0.12125   0.92711   0.08725   0.00000  Uiso   1.00
H1417  H     0.42961   0.61726   0.79162   0.00000  Uiso   1.00
H1418  H     0.08554   0.95197   0.06281   0.00000  Uiso   1.00
H1419  H     0.09315   0.95921   0.11375   0.00000  Uiso   1.00
H1420  H     0.32984   0.97831   0.89035   0.00000  Uiso   1.00
H1421  H     0.34995   0.50481   0.92923   0.00000  Uiso   1.00
H1422  H     0.35644   0.52240   0.84244   0.00000  Uiso   1.00
H1423  H     0.37773   0.54709   0.88147   0.00000  Uiso   1.00
H1424  H     0.41252   0.99040   0.89983   0.00000  Uiso   1.00
H1425  H     0.42144   0.50420   0.85067   0.00000  Uiso   1.00
H1426  H     0.39129   0.96626   0.86002   0.00000  Uiso   1.00
H1427  H     0.06548   0.70330   0.12113   0.00000  Uiso   1.00
H1428  H     0.06971   0.88340   0.20954   0.00000  Uiso   1.00
H1429  H     0.06638   0.68253   0.07344   0.00000  Uiso   1.00
H1430  H     0.04920   0.64250   0.14951   0.00000  Uiso   1.00
H1431  H     0.05085   0.62228   0.10208   0.00000  Uiso   1.00
H1432  H     0.11694   0.64012   0.09619   0.00000  Uiso   1.00
H1433  H     0.10868   0.61127   0.13751   0.00000  Uiso   1.00
H1434  H     0.11517   0.65970   0.14429   0.00000  Uiso   1.00
H1435  H     0.47656   0.83173   0.88439   0.00000  Uiso   1.00
H1436  H     0.45048   0.83438   0.92878   0.00000  Uiso   1.00
H1437  H     0.41880   0.83335   0.84641   0.00000  Uiso   1.00
H1438  H     0.39257   0.83471   0.89044   0.00000  Uiso   1.00
H1439  H     0.36717   0.67970   0.70853   0.00000  Uiso   1.00
H1440  H     0.42210   0.89416   0.90837   0.00000  Uiso   1.00
H1441  H     0.39932   0.89668   0.86228   0.00000  Uiso   1.00
H1442  H     0.44843   0.89290   0.86405   0.00000  Uiso   1.00
H1443  H     0.32287   0.53780   0.10978   0.00000  Uiso   1.00
H1444  H     0.34788   0.51700   0.07019   0.00000  Uiso   1.00
H1445  H     0.35921   0.50126   0.15683   0.00000  Uiso   1.00
H1446  H     0.38415   0.98059   0.11759   0.00000  Uiso   1.00
H1447  H     0.40736   0.54205   0.09748   0.00000  Uiso   1.00
H1448  H     0.41881   0.53222   0.14711   0.00000  Uiso   1.00
H1449  H     0.38185   0.56315   0.13635   0.00000  Uiso   1.00
H1450  H     0.13355   0.81954   0.29020   0.00000  Uiso   1.00
H1451  H     0.17015   0.52383   0.88830   0.00000  Uiso   1.00
H1452  H     0.14952   0.99913   0.92816   0.00000  Uiso   1.00
H1453  H     0.14243   0.97886   0.84209   0.00000  Uiso   1.00
H1454  H     0.12095   0.95570   0.88204   0.00000  Uiso   1.00
H1455  H     0.08720   0.51351   0.89877   0.00000  Uiso   1.00
H1456  H     0.07773   0.99831   0.85017   0.00000  Uiso   1.00
H1457  H     0.10856   0.53601   0.85799   0.00000  Uiso   1.00
H1458  H     0.44509   0.82783   0.13951   0.00000  Uiso   1.00
H1459  H     0.43376   0.78869   0.11116   0.00000  Uiso   1.00
H1460  H     0.44095   0.86762   0.07972   0.00000  Uiso   1.00
H1461  H     0.32006   0.86688   0.70893   0.00000  Uiso   1.00
H1462  H     0.42587   0.82813   0.05290   0.00000  Uiso   1.00
H1463  H     0.37232   0.82125   0.09701   0.00000  Uiso   1.00
H1464  H     0.37351   0.86577   0.07474   0.00000  Uiso   1.00
H1465  H     0.38735   0.86073   0.12440   0.00000  Uiso   1.00
H1466  H     0.02511   0.66803   0.88332   0.00000  Uiso   1.00
H1467  H     0.05010   0.66600   0.92840   0.00000  Uiso   1.00
H1468  H     0.08363   0.66683   0.84685   0.00000  Uiso   1.00
H1469  H     0.10899   0.66677   0.89146   0.00000  Uiso   1.00
H1470  H     0.08085   0.60693   0.90976   0.00000  Uiso   1.00
H1471  H     0.10422   0.60430   0.86398   0.00000  Uiso   1.00
H1472  H     0.38275   0.57037   0.79161   0.00000  Uiso   1.00
H1473  H     0.18067   0.63384   0.28983   0.00000  Uiso   1.00
H1474  H     0.05500   0.60684   0.86511   0.00000  Uiso   1.00
H1475  H     0.42063   0.72472   0.61080   0.00000  Uiso   1.00
H1476  H     0.39946   0.74947   0.57131   0.00000  Uiso   1.00
H1477  H     0.39255   0.76874   0.65769   0.00000  Uiso   1.00
H1478  H     0.37055   0.79204   0.61817   0.00000  Uiso   1.00
H1479  H     0.33736   0.73413   0.60093   0.00000  Uiso   1.00
H1480  H     0.32817   0.74832   0.64993   0.00000  Uiso   1.00
H1481  H     0.35938   0.71119   0.64100   0.00000  Uiso   1.00
H1482  H     0.07897   0.72303   0.38876   0.00000  Uiso   1.00
H1483  H     0.10072   0.74706   0.42842   0.00000  Uiso   1.00
H1484  H     0.13243   0.82069   0.70781   0.00000  Uiso   1.00
H1485  H     0.10793   0.76642   0.34211   0.00000  Uiso   1.00
H1486  H     0.12994   0.78978   0.38162   0.00000  Uiso   1.00
H1487  H     0.16294   0.73217   0.39924   0.00000  Uiso   1.00
H1488  H     0.17197   0.74549   0.34995   0.00000  Uiso   1.00
H1489  H     0.14062   0.70859   0.35973   0.00000  Uiso   1.00
H1490  H     0.22116   0.91942   0.61616   0.00000  Uiso   1.00
H1491  H     0.19575   0.91872   0.57128   0.00000  Uiso   1.00
H1492  H     0.16320   0.92046   0.65327   0.00000  Uiso   1.00
H1493  H     0.13724   0.92238   0.60907   0.00000  Uiso   1.00
H1494  H     0.16169   0.86142   0.58935   0.00000  Uiso   1.00
H1495  H     0.36598   0.68094   0.28937   0.00000  Uiso   1.00
H1496  H     0.13911   0.85932   0.63560   0.00000  Uiso   1.00
H1497  H     0.18837   0.85933   0.63339   0.00000  Uiso   1.00
H1498  H     0.31701   0.54449   0.37826   0.00000  Uiso   1.00
H1499  H     0.31902   0.56489   0.42609   0.00000  Uiso   1.00
H1500  H     0.30280   0.60602   0.35046   0.00000  Uiso   1.00
H1501  H     0.30552   0.62586   0.39800   0.00000  Uiso   1.00
H1502  H     0.37096   0.60581   0.40315   0.00000  Uiso   1.00
H1503  H     0.36341   0.63507   0.36201   0.00000  Uiso   1.00
H1504  H     0.36814   0.58648   0.35500   0.00000  Uiso   1.00
H1505  H     0.07895   0.77476   0.60987   0.00000  Uiso   1.00
H1506  H     0.17965   0.63277   0.70841   0.00000  Uiso   1.00
H1507  H     0.10016   0.74932   0.57086   0.00000  Uiso   1.00
H1508  H     0.10752   0.73192   0.65762   0.00000  Uiso   1.00
H1509  H     0.12962   0.70804   0.61852   0.00000  Uiso   1.00
H1510  H     0.16217   0.76594   0.59988   0.00000  Uiso   1.00
H1511  H     0.17171   0.75275   0.64910   0.00000  Uiso   1.00
H1512  H     0.14010   0.78941   0.63961   0.00000  Uiso   1.00
H1513  H     0.42049   0.77580   0.38944   0.00000  Uiso   1.00
H1514  H     0.39959   0.75095   0.42906   0.00000  Uiso   1.00
H1515  H     0.39114   0.73303   0.34254   0.00000  Uiso   1.00
H1516  H     0.37022   0.70854   0.38194   0.00000  Uiso   1.00
H1517  H     0.32437   0.87124   0.29744   0.00000  Uiso   1.00
H1518  H     0.33667   0.76521   0.40164   0.00000  Uiso   1.00
H1519  H     0.32695   0.75281   0.35223   0.00000  Uiso   1.00
H1520  H     0.35790   0.78999   0.36229   0.00000  Uiso   1.00
H1521  H     0.27822   0.58048   0.61589   0.00000  Uiso   1.00
H1522  H     0.30422   0.58146   0.57137   0.00000  Uiso   1.00
H1523  H     0.33574   0.57960   0.65379   0.00000  Uiso   1.00
H1524  H     0.36223   0.57819   0.60991   0.00000  Uiso   1.00
H1525  H     0.33732   0.63905   0.59035   0.00000  Uiso   1.00
H1526  H     0.35952   0.64108   0.63679   0.00000  Uiso   1.00
H1527  H     0.31028   0.64062   0.63418   0.00000  Uiso   1.00
H1528  H     0.37121   0.82435   0.29739   0.00000  Uiso   1.00
H1529  H     0.18323   0.95539   0.37768   0.00000  Uiso   1.00
H1530  H     0.18080   0.93546   0.42569   0.00000  Uiso   1.00
H1531  H     0.19783   0.89348   0.35075   0.00000  Uiso   1.00
H1532  H     0.19430   0.87422   0.39848   0.00000  Uiso   1.00
H1533  H     0.12885   0.89471   0.40229   0.00000  Uiso   1.00
H1534  H     0.13691   0.86475   0.36180   0.00000  Uiso   1.00
H1535  H     0.13251   0.91325   0.35386   0.00000  Uiso   1.00
H1536  H     0.13279   0.67964   0.70838   0.00000  Uiso   1.00
H1537  H     0.31886   0.63432   0.28887   0.00000  Uiso   1.00
H1538  H     0.17943   0.86747   0.70805   0.00000  Uiso   1.00
H1539  H     0.13381   0.68075   0.28974   0.00000  Uiso   1.00
H1540  H     0.06909   0.61587   0.21077   0.00000  Uiso   1.00
H1541  H     0.36693   0.82001   0.70892   0.00000  Uiso   1.00
H1542  H     0.18069   0.86611   0.28963   0.00000  Uiso   1.00
H1543  H     0.32017   0.63292   0.70877   0.00000  Uiso   1.00
H1544  H     0.21139   0.57211   0.99649   0.00000  Uiso   1.00
H1545  H     0.19896   0.57783   0.04709   0.00000  Uiso   1.00
H1546  H     0.14570   0.56710   0.97901   0.00000  Uiso   1.00
H1547  H     0.13315   0.57227   0.02910   0.00000  Uiso   1.00
H1548  H     0.16195   0.63438   0.03022   0.00000  Uiso   1.00
H1549  H     0.12717   0.63098   0.99348   0.00000  Uiso   1.00
H1550  H     0.17472   0.62919   0.97992   0.00000  Uiso   1.00
H1551  H     0.43031   0.88345   0.79041   0.00000  Uiso   1.00
H1552  H     0.27330   0.57118   0.00888   0.00000  Uiso   1.00
H1553  H     0.28599   0.58676   0.96075   0.00000  Uiso   1.00
H1554  H     0.33807   0.57666   0.02998   0.00000  Uiso   1.00
H1555  H     0.35050   0.59311   0.98268   0.00000  Uiso   1.00
H1556  H     0.30908   0.64674   0.99092   0.00000  Uiso   1.00
H1557  H     0.34169   0.64411   0.02991   0.00000  Uiso   1.00
H1558  H     0.29519   0.62988   0.03790   0.00000  Uiso   1.00
H1559  H     0.48721   0.64687   0.98713   0.00000  Uiso   1.00
H1560  H     0.46218   0.68797   0.99161   0.00000  Uiso   1.00
H1561  H     0.47510   0.63299   0.05850   0.00000  Uiso   1.00
H1562  H     0.38416   0.56888   0.21098   0.00000  Uiso   1.00
H1563  H     0.44466   0.67175   0.05925   0.00000  Uiso   1.00
H1564  H     0.40830   0.64285   0.00508   0.00000  Uiso   1.00
H1565  H     0.40963   0.61528   0.04828   0.00000  Uiso   1.00
H1566  H     0.43788   0.60340   0.00748   0.00000  Uiso   1.00
H1567  H     0.39853   0.77350   0.01085   0.00000  Uiso   1.00
H1568  H     0.42986   0.73682   0.00901   0.00000  Uiso   1.00
H1569  H     0.38244   0.76350   0.94020   0.00000  Uiso   1.00
H1570  H     0.41087   0.72323   0.94062   0.00000  Uiso   1.00
H1571  H     0.37267   0.69747   0.99470   0.00000  Uiso   1.00
H1572  H     0.34664   0.70610   0.95141   0.00000  Uiso   1.00
H1573  H     0.11762   0.92927   0.79225   0.00000  Uiso   1.00
H1574  H     0.34329   0.73707   0.99183   0.00000  Uiso   1.00
H1575  H     0.33319   0.93623   0.98865   0.00000  Uiso   1.00
H1576  H     0.28502   0.93881   0.98716   0.00000  Uiso   1.00
H1577  H     0.33049   0.91616   0.05894   0.00000  Uiso   1.00
H1578  H     0.28142   0.91408   0.05490   0.00000  Uiso   1.00
H1579  H     0.28772   0.86911   0.00018   0.00000  Uiso   1.00
H1580  H     0.30774   0.85298   0.04464   0.00000  Uiso   1.00
H1581  H     0.33678   0.86995   0.00654   0.00000  Uiso   1.00
H1582  H     0.17937   0.92637   0.01397   0.00000  Uiso   1.00
H1583  H     0.22660   0.93059   0.00388   0.00000  Uiso   1.00
H1584  H     0.42520   0.87828   0.20186   0.00000  Uiso   1.00
H1585  H     0.16774   0.90879   0.94366   0.00000  Uiso   1.00
H1586  H     0.21659   0.90774   0.93667   0.00000  Uiso   1.00
H1587  H     0.22177   0.86063   0.98942   0.00000  Uiso   1.00
H1588  H     0.19314   0.84582   0.95001   0.00000  Uiso   1.00
H1589  H     0.17256   0.86105   0.99456   0.00000  Uiso   1.00
H1590  H     0.01508   0.85494   0.98921   0.00000  Uiso   1.00
H1591  H     0.03688   0.81196   0.98742   0.00000  Uiso   1.00
H1592  H     0.03371   0.86222   0.05970   0.00000  Uiso   1.00
H1593  H     0.06016   0.82085   0.05513   0.00000  Uiso   1.00
H1594  H     0.09523   0.85003   0.99997   0.00000  Uiso   1.00
H1595  H     0.07005   0.61696   0.79107   0.00000  Uiso   1.00
H1596  H     0.10012   0.87377   0.04533   0.00000  Uiso   1.00
H1597  H     0.07037   0.89194   0.00852   0.00000  Uiso   1.00
H1598  H     0.10137   0.72718   0.01139   0.00000  Uiso   1.00
H1599  H     0.07266   0.76540   0.00389   0.00000  Uiso   1.00
H1600  H     0.11980   0.72878   0.94021   0.00000  Uiso   1.00
H1601  H     0.09499   0.77118   0.93587   0.00000  Uiso   1.00
H1602  H     0.13442   0.79850   0.98801   0.00000  Uiso   1.00
H1603  H     0.16053   0.78305   0.94692   0.00000  Uiso   1.00
H1604  H     0.15985   0.75621   0.99059   0.00000  Uiso   1.00
H1605  H     0.47321   0.81810   0.49172   0.00000  Uiso   1.00
H1606  H     0.11706   0.57024   0.79137   0.00000  Uiso   1.00
H1607  H     0.45740   0.83292   0.53907   0.00000  Uiso   1.00
H1608  H     0.40901   0.81864   0.46766   0.00000  Uiso   1.00
H1609  H     0.39372   0.83493   0.51412   0.00000  Uiso   1.00
H1610  H     0.43244   0.89089   0.50666   0.00000  Uiso   1.00
H1611  H     0.40101   0.88591   0.46683   0.00000  Uiso   1.00
H1612  H     0.44845   0.87438   0.46030   0.00000  Uiso   1.00
H1613  H     0.03420   0.81802   0.50953   0.00000  Uiso   1.00
H1614  H     0.04631   0.82999   0.46006   0.00000  Uiso   1.00
H1615  H     0.10006   0.81528   0.52688   0.00000  Uiso   1.00
H1616  H     0.11227   0.82712   0.47798   0.00000  Uiso   1.00
O1617  O     0.25000   0.50000   0.25000   0.00000  Uiso   1.00
O1618  O     0.25000   0.96964   0.66317   0.00000  Uiso   1.00
O1619  O     0.46964   0.75000   0.33683   0.00000  Uiso   1.00
O1620  O     0.03036   0.75000   0.66317   0.00000  Uiso   1.00
O1621  O     0.00000   0.71964   0.83683   0.00000  Uiso   1.00
O1622  O     0.00000   0.78036   0.16317   0.00000  Uiso   1.00
O1623  O     0.28036   0.50000   0.83683   0.00000  Uiso   1.00
O1624  O     0.21964   0.50000   0.16317   0.00000  Uiso   1.00
O1625  O     0.00000   0.78036   0.83683   0.00000  Uiso   1.00
O1626  O     0.00000   0.71964   0.16317   0.00000  Uiso   1.00
O1627  O     0.21964   0.50000   0.83683   0.00000  Uiso   1.00
O1628  O     0.25000   0.50000   0.75000   0.00000  Uiso   1.00
O1629  O     0.28036   0.50000   0.16317   0.00000  Uiso   1.00
O1630  O     0.20726   0.57307   0.27282   0.00000  Uiso   1.00
O1631  O     0.29275   0.92693   0.72718   0.00000  Uiso   1.00
O1632  O     0.42693   0.70726   0.27282   0.00000  Uiso   1.00
O1633  O     0.07307   0.79274   0.72718   0.00000  Uiso   1.00
O1634  O     0.29275   0.92693   0.27282   0.00000  Uiso   1.00
O1635  O     0.20726   0.57307   0.72718   0.00000  Uiso   1.00
O1636  O     0.07307   0.79274   0.27282   0.00000  Uiso   1.00
O1637  O     0.42693   0.70726   0.72718   0.00000  Uiso   1.00
O1638  O     0.20726   0.92693   0.72718   0.00000  Uiso   1.00
O1639  O     0.00000   0.75000   0.25000   0.00000  Uiso   1.00
O1640  O     0.29275   0.57307   0.27282   0.00000  Uiso   1.00
O1641  O     0.42693   0.79275   0.72718   0.00000  Uiso   1.00
O1642  O     0.07307   0.70725   0.27282   0.00000  Uiso   1.00
O1643  O     0.29275   0.57307   0.72718   0.00000  Uiso   1.00
O1644  O     0.20726   0.92693   0.27282   0.00000  Uiso   1.00
O1645  O     0.07307   0.70725   0.72718   0.00000  Uiso   1.00
O1646  O     0.42693   0.79275   0.27282   0.00000  Uiso   1.00
O1647  O     0.45726   0.82307   0.77282   0.00000  Uiso   1.00
O1648  O     0.04275   0.67693   0.22718   0.00000  Uiso   1.00
O1649  O     0.17693   0.95725   0.77282   0.00000  Uiso   1.00
O1650  O     0.00000   0.75000   0.75000   0.00000  Uiso   1.00
O1651  O     0.32307   0.54275   0.22718   0.00000  Uiso   1.00
O1652  O     0.04275   0.67693   0.77282   0.00000  Uiso   1.00
O1653  O     0.45726   0.82307   0.22718   0.00000  Uiso   1.00
O1654  O     0.32307   0.54275   0.77282   0.00000  Uiso   1.00
O1655  O     0.17693   0.95725   0.22718   0.00000  Uiso   1.00
O1656  O     0.45726   0.67693   0.22718   0.00000  Uiso   1.00
O1657  O     0.04275   0.82307   0.77282   0.00000  Uiso   1.00
O1658  O     0.17693   0.54275   0.22718   0.00000  Uiso   1.00
O1659  O     0.32307   0.95725   0.77282   0.00000  Uiso   1.00
O1660  O     0.04275   0.82307   0.22718   0.00000  Uiso   1.00
O1661  O     0.25000   0.96964   0.33683   0.00000  Uiso   1.00
O1662  O     0.45726   0.67693   0.77282   0.00000  Uiso   1.00
O1663  O     0.32307   0.95725   0.22718   0.00000  Uiso   1.00
O1664  O     0.17693   0.54275   0.77282   0.00000  Uiso   1.00
O1665  O     0.18867   0.52651   0.02226   0.00000  Uiso   1.00
O1666  O     0.30611   0.53578   0.97745   0.00000  Uiso   1.00
O1667  O     0.01170   0.68411   0.02235   0.00000  Uiso   1.00
O1668  O     0.44256   0.78371   0.97650   0.00000  Uiso   1.00
O1669  O     0.31236   0.97685   0.02232   0.00000  Uiso   1.00
O1670  O     0.19100   0.96830   0.97724   0.00000  Uiso   1.00
O1671  O     0.49023   0.81641   0.02253   0.00000  Uiso   1.00
O1672  O     0.25000   0.53036   0.66317   0.00000  Uiso   1.00
O1673  O     0.05827   0.71620   0.97609   0.00000  Uiso   1.00
O1674  O     0.44157   0.78059   0.52188   0.00000  Uiso   1.00
O1675  O     0.05997   0.77719   0.47838   0.00000  Uiso   1.00
O1676  O     0.19003   0.96981   0.52393   0.00000  Uiso   1.00
O1677  O     0.26476   0.56540   0.47765   0.00000  Uiso   1.00
O1678  O     0.05803   0.71652   0.52245   0.00000  Uiso   1.00
O1679  O     0.44045   0.71960   0.47788   0.00000  Uiso   1.00
O1680  O     0.30972   0.53036   0.52384   0.00000  Uiso   1.00
O1681  O     0.23487   0.93481   0.47766   0.00000  Uiso   1.00
O1682  O     0.18557   0.51857   0.10049   0.00000  Uiso   1.00
O1683  O     0.03036   0.75000   0.33683   0.00000  Uiso   1.00
O1684  O     0.30863   0.53093   0.89847   0.00000  Uiso   1.00
O1685  O     0.01525   0.68536   0.10043   0.00000  Uiso   1.00
O1686  O     0.44497   0.78591   0.89715   0.00000  Uiso   1.00
O1687  O     0.31366   0.98192   0.10073   0.00000  Uiso   1.00
O1688  O     0.19024   0.97109   0.89825   0.00000  Uiso   1.00
O1689  O     0.48482   0.81498   0.10018   0.00000  Uiso   1.00
O1690  O     0.05561   0.71440   0.89654   0.00000  Uiso   1.00
O1691  O     0.43994   0.77785   0.60115   0.00000  Uiso   1.00
O1692  O     0.06073   0.77642   0.39896   0.00000  Uiso   1.00
O1693  O     0.19282   0.96721   0.60333   0.00000  Uiso   1.00
O1694  O     0.46964   0.75000   0.66317   0.00000  Uiso   1.00
O1695  O     0.26764   0.56411   0.39949   0.00000  Uiso   1.00
O1696  O     0.06001   0.72128   0.60154   0.00000  Uiso   1.00
O1697  O     0.43940   0.72248   0.39830   0.00000  Uiso   1.00
O1698  O     0.30705   0.53290   0.60321   0.00000  Uiso   1.00
O1699  O     0.23240   0.93594   0.39951   0.00000  Uiso   1.00
O1700  O     0.25000   0.53036   0.33683   0.00000  Uiso   1.00
Zn1701 Zn    0.20660   0.50000   0.21760   0.00000  Uiso   1.00
Zn1702 Zn    0.04340   0.75000   0.28240   0.00000  Uiso   1.00
Zn1703 Zn    0.25000   0.95660   0.71760   0.00000  Uiso   1.00
Zn1704 Zn    0.25000   0.54340   0.28240   0.00000  Uiso   1.00
Zn1705 Zn    0.04340   0.75000   0.71760   0.00000  Uiso   1.00
Zn1706 Zn    0.45660   0.75000   0.28240   0.00000  Uiso   1.00
Zn1707 Zn    0.25000   0.54340   0.71760   0.00000  Uiso   1.00
Zn1708 Zn    0.25000   0.95660   0.28240   0.00000  Uiso   1.00
Zn1709 Zn    0.29340   0.50000   0.78240   0.00000  Uiso   1.00
Zn1710 Zn    0.00000   0.70660   0.21760   0.00000  Uiso   1.00
Zn1711 Zn    0.00000   0.79340   0.78240   0.00000  Uiso   1.00
Zn1712 Zn    0.29340   0.50000   0.21760   0.00000  Uiso   1.00
Zn1713 Zn    0.20660   0.50000   0.78240   0.00000  Uiso   1.00
Zn1714 Zn    0.00000   0.79340   0.21760   0.00000  Uiso   1.00
Zn1715 Zn    0.00000   0.70660   0.78240   0.00000  Uiso   1.00
Zn1716 Zn    0.45660   0.75000   0.71760   0.00000  Uiso   1.00
C1717  C     0.71903   0.51329   0.04151   0.00000  Uiso   1.00
C1718  C     0.52987   0.76381   0.45873   0.00000  Uiso   1.00
C1719  C     0.84818   0.90191   0.74993   0.00000  Uiso   1.00
C1720  C     0.90191   0.65183   0.25007   0.00000  Uiso   1.00
C1721  C     0.59814   0.84813   0.75000   0.00000  Uiso   1.00
C1722  C     0.84801   0.90173   0.24978   0.00000  Uiso   1.00
C1723  C     0.65183   0.59810   0.74996   0.00000  Uiso   1.00
C1724  C     0.59807   0.65181   0.74988   0.00000  Uiso   1.00
C1725  C     0.90171   0.84797   0.24974   0.00000  Uiso   1.00
C1726  C     0.65190   0.90185   0.75005   0.00000  Uiso   1.00
C1727  C     0.84813   0.59813   0.25002   0.00000  Uiso   1.00
C1728  C     0.90195   0.84821   0.74985   0.00000  Uiso   1.00
C1729  C     0.71970   0.98547   0.54266   0.00000  Uiso   1.00
C1730  C     0.59809   0.65183   0.25008   0.00000  Uiso   1.00
C1731  C     0.84809   0.59816   0.75007   0.00000  Uiso   1.00
C1732  C     0.65197   0.90177   0.24984   0.00000  Uiso   1.00
C1733  C     0.74972   0.99993   0.10210   0.00000  Uiso   1.00
C1734  C     0.74974   0.50043   0.89762   0.00000  Uiso   1.00
C1735  C     0.99997   0.75004   0.10193   0.00000  Uiso   1.00
C1736  C     0.50021   0.75002   0.89710   0.00000  Uiso   1.00
C1737  C     0.99996   0.74955   0.60225   0.00000  Uiso   1.00
C1738  C     0.50000   0.74959   0.39777   0.00000  Uiso   1.00
C1739  C     0.74997   0.99999   0.60296   0.00000  Uiso   1.00
C1740  C     0.75600   0.53299   0.45897   0.00000  Uiso   1.00
C1741  C     0.74998   0.50003   0.39807   0.00000  Uiso   1.00
C1742  C     0.69111   0.56484   0.01912   0.00000  Uiso   1.00
C1743  C     0.65385   0.57970   0.00695   0.00000  Uiso   1.00
C1744  C     0.65460   0.62116   0.00239   0.00000  Uiso   1.00
C1745  C     0.79541   0.57168   0.98690   0.00000  Uiso   1.00
C1746  C     0.82806   0.59183   0.00427   0.00000  Uiso   1.00
C1747  C     0.81775   0.63055   0.01645   0.00000  Uiso   1.00
C1748  C     0.97910   0.66833   0.00815   0.00000  Uiso   1.00
C1749  C     0.95685   0.65031   0.04055   0.00000  Uiso   1.00
C1750  C     0.92627   0.62652   0.02424   0.00000  Uiso   1.00
C1751  C     0.52891   0.73242   0.54166   0.00000  Uiso   1.00
C1752  C     0.91695   0.75828   0.99106   0.00000  Uiso   1.00
C1753  C     0.89367   0.74143   0.95875   0.00000  Uiso   1.00
C1754  C     0.86212   0.71914   0.97531   0.00000  Uiso   1.00
C1755  C     0.80872   0.94125   0.00688   0.00000  Uiso   1.00
C1756  C     0.80745   0.91190   0.03855   0.00000  Uiso   1.00
C1757  C     0.81008   0.87363   0.02129   0.00000  Uiso   1.00
C1758  C     0.69913   0.93273   0.99056   0.00000  Uiso   1.00
C1759  C     0.69441   0.90443   0.95829   0.00000  Uiso   1.00
C1760  C     0.69558   0.86559   0.97419   0.00000  Uiso   1.00
C1761  C     0.52292   0.83114   0.00728   0.00000  Uiso   1.00
C1762  C     0.97026   0.73382   0.45838   0.00000  Uiso   1.00
C1763  C     0.54892   0.84460   0.03908   0.00000  Uiso   1.00
C1764  C     0.58060   0.86642   0.02206   0.00000  Uiso   1.00
C1765  C     0.58478   0.74140   0.98914   0.00000  Uiso   1.00
C1766  C     0.61016   0.75328   0.95621   0.00000  Uiso   1.00
C1767  C     0.64326   0.77407   0.97151   0.00000  Uiso   1.00
C1768  C     0.95018   0.81710   0.51261   0.00000  Uiso   1.00
C1769  C     0.91702   0.83482   0.49351   0.00000  Uiso   1.00
C1770  C     0.92535   0.87394   0.48111   0.00000  Uiso   1.00
C1771  C     0.55494   0.81462   0.48636   0.00000  Uiso   1.00
C1772  C     0.59109   0.83046   0.50074   0.00000  Uiso   1.00
C1773  C     0.78008   0.51466   0.54259   0.00000  Uiso   1.00
C1774  C     0.58752   0.87090   0.51074   0.00000  Uiso   1.00
C1775  C     0.66565   0.99673   0.51015   0.00000  Uiso   1.00
C1776  C     0.64311   0.51361   0.54300   0.00000  Uiso   1.00
C1777  C     0.61265   0.53777   0.52723   0.00000  Uiso   1.00
C1778  C     0.73324   0.58287   0.49230   0.00000  Uiso   1.00
C1779  C     0.71123   0.60154   0.46016   0.00000  Uiso   1.00
C1780  C     0.68193   0.62665   0.47684   0.00000  Uiso   1.00
C1781  C     0.54906   0.68014   0.51299   0.00000  Uiso   1.00
C1782  C     0.58194   0.66231   0.49344   0.00000  Uiso   1.00
C1783  C     0.57317   0.62341   0.48057   0.00000  Uiso   1.00
C1784  C     0.74372   0.96719   0.45897   0.00000  Uiso   1.00
C1785  C     0.94400   0.68134   0.48091   0.00000  Uiso   1.00
C1786  C     0.90680   0.66519   0.49137   0.00000  Uiso   1.00
C1787  C     0.90865   0.62374   0.49563   0.00000  Uiso   1.00
C1788  C     0.83393   0.50347   0.50961   0.00000  Uiso   1.00
C1789  C     0.85629   0.98588   0.54216   0.00000  Uiso   1.00
C1790  C     0.88660   0.96176   0.52594   0.00000  Uiso   1.00
C1791  C     0.76635   0.91732   0.49237   0.00000  Uiso   1.00
C1792  C     0.78796   0.89799   0.46034   0.00000  Uiso   1.00
C1793  C     0.81702   0.87273   0.47717   0.00000  Uiso   1.00
C1794  C     0.66407   0.98673   0.10617   0.00000  Uiso   1.00
C1795  C     0.71769   0.50954   0.08159   0.00000  Uiso   1.00
C1796  C     0.63360   0.98427   0.07597   0.00000  Uiso   1.00
C1797  C     0.60676   0.95371   0.08566   0.00000  Uiso   1.00
C1798  C     0.83834   0.50628   0.89955   0.00000  Uiso   1.00
C1799  C     0.86802   0.51975   0.87197   0.00000  Uiso   1.00
C1800  C     0.90029   0.99343   0.87065   0.00000  Uiso   1.00
C1801  C     0.55357   0.68138   0.10266   0.00000  Uiso   1.00
C1802  C     0.56227   0.64430   0.12062   0.00000  Uiso   1.00
C1803  C     0.60337   0.63862   0.12486   0.00000  Uiso   1.00
C1804  C     0.95028   0.82413   0.89849   0.00000  Uiso   1.00
C1805  C     0.91896   0.84268   0.87696   0.00000  Uiso   1.00
C1806  C     0.77944   0.51560   0.91803   0.00000  Uiso   1.00
C1807  C     0.92255   0.88420   0.87805   0.00000  Uiso   1.00
C1808  C     0.83721   0.51255   0.09992   0.00000  Uiso   1.00
C1809  C     0.86945   0.50563   0.12695   0.00000  Uiso   1.00
C1810  C     0.89596   0.53783   0.12689   0.00000  Uiso   1.00
C1811  C     0.66106   0.99639   0.89855   0.00000  Uiso   1.00
C1812  C     0.63104   0.98258   0.87159   0.00000  Uiso   1.00
C1813  C     0.59918   0.50935   0.86961   0.00000  Uiso   1.00
C1814  C     0.94723   0.81608   0.10998   0.00000  Uiso   1.00
C1815  C     0.92661   0.84093   0.08198   0.00000  Uiso   1.00
C1816  C     0.88750   0.84749   0.09551   0.00000  Uiso   1.00
C1817  C     0.50744   0.71758   0.08133   0.00000  Uiso   1.00
C1818  C     0.55090   0.67611   0.89809   0.00000  Uiso   1.00
C1819  C     0.58307   0.65797   0.87755   0.00000  Uiso   1.00
C1820  C     0.58048   0.61641   0.87928   0.00000  Uiso   1.00
C1821  C     0.91111   0.75212   0.60087   0.00000  Uiso   1.00
C1822  C     0.88107   0.76519   0.62821   0.00000  Uiso   1.00
C1823  C     0.84957   0.73793   0.63003   0.00000  Uiso   1.00
C1824  C     0.58904   0.75016   0.39893   0.00000  Uiso   1.00
C1825  C     0.61928   0.76294   0.37166   0.00000  Uiso   1.00
C1826  C     0.65061   0.73551   0.37014   0.00000  Uiso   1.00
C1827  C     0.69567   0.92875   0.60165   0.00000  Uiso   1.00
C1828  C     0.77782   0.51842   0.95824   0.00000  Uiso   1.00
C1829  C     0.97284   0.76888   0.91728   0.00000  Uiso   1.00
C1830  C     0.66284   0.91204   0.62242   0.00000  Uiso   1.00
C1831  C     0.66316   0.87042   0.61997   0.00000  Uiso   1.00
C1832  C     0.80607   0.56670   0.39699   0.00000  Uiso   1.00
C1833  C     0.81600   0.60357   0.37922   0.00000  Uiso   1.00
C1834  C     0.85724   0.60787   0.37462   0.00000  Uiso   1.00
C1835  C     0.58864   0.74723   0.60054   0.00000  Uiso   1.00
C1836  C     0.61888   0.73498   0.62803   0.00000  Uiso   1.00
C1837  C     0.65013   0.76256   0.62912   0.00000  Uiso   1.00
C1838  C     0.91083   0.74842   0.39931   0.00000  Uiso   1.00
C1839  C     0.88028   0.73574   0.37239   0.00000  Uiso   1.00
C1840  C     0.78175   0.99077   0.08146   0.00000  Uiso   1.00
C1841  C     0.84852   0.76270   0.37221   0.00000  Uiso   1.00
C1842  C     0.80396   0.57135   0.60170   0.00000  Uiso   1.00
C1843  C     0.83638   0.58822   0.62301   0.00000  Uiso   1.00
C1844  C     0.83570   0.62985   0.62088   0.00000  Uiso   1.00
C1845  C     0.69400   0.93336   0.39672   0.00000  Uiso   1.00
C1846  C     0.68419   0.89632   0.37925   0.00000  Uiso   1.00
C1847  C     0.64301   0.89212   0.37403   0.00000  Uiso   1.00
C1848  C     0.71956   0.98603   0.91794   0.00000  Uiso   1.00
C1849  C     0.99284   0.78261   0.08128   0.00000  Uiso   1.00
C1850  C     0.52778   0.73119   0.91698   0.00000  Uiso   1.00
C1851  C     0.96955   0.76317   0.58172   0.00000  Uiso   1.00
C1852  C     0.53083   0.76226   0.41836   0.00000  Uiso   1.00
C1853  C     0.72149   0.98266   0.58298   0.00000  Uiso   1.00
C1854  C     0.75866   0.53220   0.41866   0.00000  Uiso   1.00
C1855  C     0.53025   0.73534   0.58191   0.00000  Uiso   1.00
C1856  C     0.50487   0.71697   0.04104   0.00000  Uiso   1.00
C1857  C     0.96923   0.73634   0.41805   0.00000  Uiso   1.00
C1858  C     0.77838   0.51737   0.58293   0.00000  Uiso   1.00
C1859  C     0.74125   0.96790   0.41866   0.00000  Uiso   1.00
C1860  C     0.74970   0.50053   0.02101   0.00000  Uiso   1.00
C1861  C     0.74930   0.50100   0.97857   0.00000  Uiso   1.00
C1862  C     0.50079   0.75017   0.02057   0.00000  Uiso   1.00
C1863  C     0.50054   0.75004   0.97796   0.00000  Uiso   1.00
C1864  C     0.99978   0.74852   0.52124   0.00000  Uiso   1.00
C1865  C     0.50000   0.74867   0.47879   0.00000  Uiso   1.00
C1866  C     0.74986   0.50009   0.52210   0.00000  Uiso   1.00
C1867  C     0.97115   0.76631   0.95762   0.00000  Uiso   1.00
C1868  C     0.74981   0.50010   0.47946   0.00000  Uiso   1.00
C1869  C     0.75001   0.50001   0.35537   0.00000  Uiso   1.00
C1870  C     0.75000   0.99999   0.64499   0.00000  Uiso   1.00
C1871  C     0.50000   0.74996   0.35527   0.00000  Uiso   1.00
C1872  C     0.50000   0.74995   0.64474   0.00000  Uiso   1.00
C1873  C     0.50003   0.75001   0.85503   0.00000  Uiso   1.00
C1874  C     0.99998   0.75000   0.14463   0.00000  Uiso   1.00
C1875  C     0.74996   0.50007   0.85522   0.00000  Uiso   1.00
C1876  C     0.74995   0.99998   0.14469   0.00000  Uiso   1.00
C1877  C     0.67994   0.57008   0.25000   0.00000  Uiso   1.00
C1878  C     0.78073   0.98780   0.04120   0.00000  Uiso   1.00
C1879  C     0.82007   0.92993   0.74999   0.00000  Uiso   1.00
C1880  C     0.92995   0.67992   0.25003   0.00000  Uiso   1.00
C1881  C     0.57007   0.82007   0.74999   0.00000  Uiso   1.00
C1882  C     0.82004   0.92990   0.24994   0.00000  Uiso   1.00
C1883  C     0.67992   0.57007   0.75000   0.00000  Uiso   1.00
C1884  C     0.57006   0.82007   0.25001   0.00000  Uiso   1.00
C1885  C     0.92993   0.67993   0.75000   0.00000  Uiso   1.00
C1886  C     0.67994   0.92993   0.75001   0.00000  Uiso   1.00
C1887  C     0.82007   0.57007   0.25001   0.00000  Uiso   1.00
C1888  C     0.92996   0.82009   0.74997   0.00000  Uiso   1.00
C1889  C     0.72068   0.98360   0.95822   0.00000  Uiso   1.00
C1890  C     0.57006   0.67992   0.25001   0.00000  Uiso   1.00
C1891  C     0.82006   0.57007   0.75001   0.00000  Uiso   1.00
C1892  C     0.67996   0.92990   0.24996   0.00000  Uiso   1.00
C1893  C     0.57006   0.67992   0.74997   0.00000  Uiso   1.00
C1894  C     0.92988   0.82002   0.24992   0.00000  Uiso   1.00
C1895  C     0.62057   0.90618   0.22717   0.00000  Uiso   1.00
C1896  C     0.87909   0.59415   0.77342   0.00000  Uiso   1.00
C1897  C     0.59346   0.62016   0.22787   0.00000  Uiso   1.00
C1898  C     0.90624   0.87951   0.77272   0.00000  Uiso   1.00
C1899  C     0.87989   0.59333   0.22801   0.00000  Uiso   1.00
C1900  C     0.99633   0.78335   0.04110   0.00000  Uiso   1.00
C1901  C     0.62111   0.90566   0.77376   0.00000  Uiso   1.00
C1902  C     0.90335   0.87657   0.22289   0.00000  Uiso   1.00
C1903  C     0.59396   0.62073   0.77309   0.00000  Uiso   1.00
C1904  C     0.62076   0.59404   0.77321   0.00000  Uiso   1.00
C1905  C     0.87662   0.90335   0.22292   0.00000  Uiso   1.00
C1906  C     0.59436   0.87890   0.77375   0.00000  Uiso   1.00
C1907  C     0.90663   0.62011   0.22795   0.00000  Uiso   1.00
C1908  C     0.87943   0.90619   0.77286   0.00000  Uiso   1.00
C1909  C     0.62028   0.59351   0.22771   0.00000  Uiso   1.00
C1910  C     0.90584   0.62091   0.77341   0.00000  Uiso   1.00
C1911  C     0.52976   0.73377   0.95732   0.00000  Uiso   1.00
C1912  C     0.59380   0.87944   0.22720   0.00000  Uiso   1.00
C1913  C     0.87083   0.65591   0.72672   0.00000  Uiso   1.00
C1914  C     0.62959   0.84363   0.27254   0.00000  Uiso   1.00
C1915  C     0.84400   0.87071   0.72686   0.00000  Uiso   1.00
C1916  C     0.65643   0.62971   0.27243   0.00000  Uiso   1.00
C1917  C     0.62895   0.84431   0.72631   0.00000  Uiso   1.00
C1918  C     0.87019   0.65659   0.27216   0.00000  Uiso   1.00
C1919  C     0.65585   0.62910   0.72659   0.00000  Uiso   1.00
C1920  C     0.84626   0.87300   0.27646   0.00000  Uiso   1.00
C1921  C     0.87298   0.84624   0.27644   0.00000  Uiso   1.00
C1922  C     0.97068   0.76503   0.54139   0.00000  Uiso   1.00
C1923  C     0.62910   0.65585   0.72657   0.00000  Uiso   1.00
C1924  C     0.84336   0.62992   0.27199   0.00000  Uiso   1.00
C1925  C     0.65574   0.87102   0.72640   0.00000  Uiso   1.00
C1926  C     0.62968   0.65647   0.27241   0.00000  Uiso   1.00
C1927  C     0.87075   0.84397   0.72684   0.00000  Uiso   1.00
C1928  C     0.65644   0.87028   0.27233   0.00000  Uiso   1.00
C1929  C     0.84403   0.62921   0.72681   0.00000  Uiso   1.00
C1930  C     0.59816   0.84809   0.24995   0.00000  Uiso   1.00
C1931  C     0.90185   0.65188   0.75002   0.00000  Uiso   1.00
C1932  C     0.65188   0.59814   0.25002   0.00000  Uiso   1.00
H1933  H     0.61662   0.93028   0.20951   0.00000  Uiso   1.00
H1934  H     0.87837   0.92522   0.20193   0.00000  Uiso   1.00
H1935  H     0.57935   0.88677   0.48480   0.00000  Uiso   1.00
H1936  H     0.61419   0.88143   0.52122   0.00000  Uiso   1.00
H1937  H     0.56684   0.87482   0.53387   0.00000  Uiso   1.00
H1938  H     0.64663   0.98290   0.48987   0.00000  Uiso   1.00
H1939  H     0.67958   0.51811   0.49291   0.00000  Uiso   1.00
H1940  H     0.63084   0.99150   0.56078   0.00000  Uiso   1.00
H1941  H     0.66109   0.53046   0.56175   0.00000  Uiso   1.00
H1942  H     0.62425   0.55963   0.50875   0.00000  Uiso   1.00
H1943  H     0.59764   0.55062   0.55157   0.00000  Uiso   1.00
H1944  H     0.59313   0.52126   0.50996   0.00000  Uiso   1.00
H1945  H     0.57075   0.88238   0.79226   0.00000  Uiso   1.00
H1946  H     0.74276   0.60419   0.51282   0.00000  Uiso   1.00
H1947  H     0.71576   0.56426   0.50952   0.00000  Uiso   1.00
H1948  H     0.72989   0.61796   0.44172   0.00000  Uiso   1.00
H1949  H     0.69784   0.58048   0.44187   0.00000  Uiso   1.00
H1950  H     0.66349   0.61115   0.49629   0.00000  Uiso   1.00
H1951  H     0.66550   0.63853   0.45300   0.00000  Uiso   1.00
H1952  H     0.69476   0.64930   0.49334   0.00000  Uiso   1.00
H1953  H     0.52583   0.67939   0.49236   0.00000  Uiso   1.00
H1954  H     0.54197   0.66427   0.53944   0.00000  Uiso   1.00
H1955  H     0.58998   0.67868   0.46775   0.00000  Uiso   1.00
H1956  H     0.93099   0.61587   0.21076   0.00000  Uiso   1.00
H1957  H     0.60534   0.66174   0.51389   0.00000  Uiso   1.00
H1958  H     0.56585   0.60630   0.50591   0.00000  Uiso   1.00
H1959  H     0.59738   0.61131   0.46615   0.00000  Uiso   1.00
H1960  H     0.55008   0.62345   0.45976   0.00000  Uiso   1.00
H1961  H     0.96364   0.67469   0.50436   0.00000  Uiso   1.00
H1962  H     0.95338   0.66863   0.45332   0.00000  Uiso   1.00
H1963  H     0.89717   0.67729   0.51903   0.00000  Uiso   1.00
H1964  H     0.88675   0.67213   0.46839   0.00000  Uiso   1.00
H1965  H     0.91747   0.61099   0.46803   0.00000  Uiso   1.00
H1966  H     0.88122   0.61298   0.50329   0.00000  Uiso   1.00
H1967  H     0.88326   0.93015   0.79078   0.00000  Uiso   1.00
H1968  H     0.92815   0.61618   0.51887   0.00000  Uiso   1.00
H1969  H     0.85310   0.51749   0.48962   0.00000  Uiso   1.00
H1970  H     0.81989   0.98248   0.49195   0.00000  Uiso   1.00
H1971  H     0.86868   0.50759   0.56039   0.00000  Uiso   1.00
H1972  H     0.83815   0.96884   0.56054   0.00000  Uiso   1.00
H1973  H     0.87491   0.94037   0.50691   0.00000  Uiso   1.00
H1974  H     0.90141   0.94832   0.55004   0.00000  Uiso   1.00
H1975  H     0.90633   0.97845   0.50912   0.00000  Uiso   1.00
H1976  H     0.75678   0.89641   0.51332   0.00000  Uiso   1.00
H1977  H     0.78414   0.93604   0.50911   0.00000  Uiso   1.00
H1978  H     0.61617   0.56926   0.21031   0.00000  Uiso   1.00
H1979  H     0.76900   0.88157   0.44224   0.00000  Uiso   1.00
H1980  H     0.80150   0.91866   0.44170   0.00000  Uiso   1.00
H1981  H     0.83571   0.88822   0.49637   0.00000  Uiso   1.00
H1982  H     0.83321   0.86038   0.45339   0.00000  Uiso   1.00
H1983  H     0.80399   0.85042   0.49400   0.00000  Uiso   1.00
H1984  H     0.65125   0.98901   0.13518   0.00000  Uiso   1.00
H1985  H     0.68019   0.96080   0.10640   0.00000  Uiso   1.00
H1986  H     0.61865   0.51066   0.07465   0.00000  Uiso   1.00
H1987  H     0.64553   0.97857   0.04716   0.00000  Uiso   1.00
H1988  H     0.62125   0.92711   0.08725   0.00000  Uiso   1.00
H1989  H     0.92961   0.61726   0.79162   0.00000  Uiso   1.00
H1990  H     0.58554   0.95197   0.06281   0.00000  Uiso   1.00
H1991  H     0.59315   0.95921   0.11375   0.00000  Uiso   1.00
H1992  H     0.82984   0.97831   0.89035   0.00000  Uiso   1.00
H1993  H     0.84995   0.50481   0.92923   0.00000  Uiso   1.00
H1994  H     0.85644   0.52240   0.84244   0.00000  Uiso   1.00
H1995  H     0.87773   0.54709   0.88147   0.00000  Uiso   1.00
H1996  H     0.91252   0.99040   0.89983   0.00000  Uiso   1.00
H1997  H     0.92144   0.50420   0.85067   0.00000  Uiso   1.00
H1998  H     0.89129   0.96626   0.86002   0.00000  Uiso   1.00
H1999  H     0.56548   0.70330   0.12113   0.00000  Uiso   1.00
H2000  H     0.56971   0.88340   0.20954   0.00000  Uiso   1.00
H2001  H     0.56638   0.68253   0.07344   0.00000  Uiso   1.00
H2002  H     0.54920   0.64250   0.14951   0.00000  Uiso   1.00
H2003  H     0.55085   0.62228   0.10208   0.00000  Uiso   1.00
H2004  H     0.61694   0.64012   0.09619   0.00000  Uiso   1.00
H2005  H     0.60868   0.61127   0.13751   0.00000  Uiso   1.00
H2006  H     0.61517   0.65970   0.14429   0.00000  Uiso   1.00
H2007  H     0.97656   0.83173   0.88439   0.00000  Uiso   1.00
H2008  H     0.95048   0.83438   0.92878   0.00000  Uiso   1.00
H2009  H     0.91880   0.83335   0.84641   0.00000  Uiso   1.00
H2010  H     0.89257   0.83471   0.89044   0.00000  Uiso   1.00
H2011  H     0.86717   0.67970   0.70853   0.00000  Uiso   1.00
H2012  H     0.92210   0.89416   0.90837   0.00000  Uiso   1.00
H2013  H     0.89932   0.89668   0.86228   0.00000  Uiso   1.00
H2014  H     0.94843   0.89290   0.86405   0.00000  Uiso   1.00
H2015  H     0.82287   0.53780   0.10978   0.00000  Uiso   1.00
H2016  H     0.84788   0.51700   0.07019   0.00000  Uiso   1.00
H2017  H     0.85921   0.50126   0.15683   0.00000  Uiso   1.00
H2018  H     0.88415   0.98059   0.11759   0.00000  Uiso   1.00
H2019  H     0.90736   0.54205   0.09748   0.00000  Uiso   1.00
H2020  H     0.91881   0.53222   0.14711   0.00000  Uiso   1.00
H2021  H     0.88185   0.56315   0.13635   0.00000  Uiso   1.00
H2022  H     0.63355   0.81954   0.29020   0.00000  Uiso   1.00
H2023  H     0.67015   0.52383   0.88830   0.00000  Uiso   1.00
H2024  H     0.64952   0.99913   0.92816   0.00000  Uiso   1.00
H2025  H     0.64243   0.97886   0.84209   0.00000  Uiso   1.00
H2026  H     0.62095   0.95570   0.88204   0.00000  Uiso   1.00
H2027  H     0.58720   0.51351   0.89877   0.00000  Uiso   1.00
H2028  H     0.57773   0.99831   0.85017   0.00000  Uiso   1.00
H2029  H     0.60856   0.53601   0.85799   0.00000  Uiso   1.00
H2030  H     0.94509   0.82783   0.13951   0.00000  Uiso   1.00
H2031  H     0.93376   0.78869   0.11116   0.00000  Uiso   1.00
H2032  H     0.94095   0.86762   0.07972   0.00000  Uiso   1.00
H2033  H     0.82006   0.86688   0.70893   0.00000  Uiso   1.00
H2034  H     0.92587   0.82813   0.05290   0.00000  Uiso   1.00
H2035  H     0.87232   0.82125   0.09701   0.00000  Uiso   1.00
H2036  H     0.87351   0.86577   0.07474   0.00000  Uiso   1.00
H2037  H     0.88735   0.86073   0.12440   0.00000  Uiso   1.00
H2038  H     0.52511   0.66803   0.88332   0.00000  Uiso   1.00
H2039  H     0.55010   0.66600   0.92840   0.00000  Uiso   1.00
H2040  H     0.58363   0.66683   0.84685   0.00000  Uiso   1.00
H2041  H     0.60899   0.66677   0.89146   0.00000  Uiso   1.00
H2042  H     0.58085   0.60693   0.90976   0.00000  Uiso   1.00
H2043  H     0.60422   0.60430   0.86398   0.00000  Uiso   1.00
H2044  H     0.88275   0.57037   0.79161   0.00000  Uiso   1.00
H2045  H     0.68067   0.63384   0.28983   0.00000  Uiso   1.00
H2046  H     0.55500   0.60684   0.86511   0.00000  Uiso   1.00
H2047  H     0.92063   0.72472   0.61080   0.00000  Uiso   1.00
H2048  H     0.89946   0.74947   0.57131   0.00000  Uiso   1.00
H2049  H     0.89255   0.76874   0.65769   0.00000  Uiso   1.00
H2050  H     0.87055   0.79204   0.61817   0.00000  Uiso   1.00
H2051  H     0.83736   0.73413   0.60093   0.00000  Uiso   1.00
H2052  H     0.82817   0.74832   0.64993   0.00000  Uiso   1.00
H2053  H     0.85938   0.71119   0.64100   0.00000  Uiso   1.00
H2054  H     0.57897   0.72303   0.38876   0.00000  Uiso   1.00
H2055  H     0.60072   0.74706   0.42842   0.00000  Uiso   1.00
H2056  H     0.63243   0.82069   0.70781   0.00000  Uiso   1.00
H2057  H     0.60793   0.76642   0.34211   0.00000  Uiso   1.00
H2058  H     0.62994   0.78978   0.38162   0.00000  Uiso   1.00
H2059  H     0.66294   0.73217   0.39924   0.00000  Uiso   1.00
H2060  H     0.67197   0.74549   0.34995   0.00000  Uiso   1.00
H2061  H     0.64062   0.70859   0.35973   0.00000  Uiso   1.00
H2062  H     0.72116   0.91942   0.61616   0.00000  Uiso   1.00
H2063  H     0.69575   0.91872   0.57128   0.00000  Uiso   1.00
H2064  H     0.66320   0.92046   0.65327   0.00000  Uiso   1.00
H2065  H     0.63724   0.92238   0.60907   0.00000  Uiso   1.00
H2066  H     0.66169   0.86142   0.58935   0.00000  Uiso   1.00
H2067  H     0.86598   0.68094   0.28937   0.00000  Uiso   1.00
H2068  H     0.63911   0.85932   0.63560   0.00000  Uiso   1.00
H2069  H     0.68837   0.85933   0.63339   0.00000  Uiso   1.00
H2070  H     0.81701   0.54449   0.37826   0.00000  Uiso   1.00
H2071  H     0.81902   0.56489   0.42609   0.00000  Uiso   1.00
H2072  H     0.80280   0.60602   0.35046   0.00000  Uiso   1.00
H2073  H     0.80552   0.62586   0.39800   0.00000  Uiso   1.00
H2074  H     0.87096   0.60581   0.40315   0.00000  Uiso   1.00
H2075  H     0.86341   0.63507   0.36201   0.00000  Uiso   1.00
H2076  H     0.86814   0.58648   0.35500   0.00000  Uiso   1.00
H2077  H     0.57895   0.77476   0.60987   0.00000  Uiso   1.00
H2078  H     0.67965   0.63277   0.70841   0.00000  Uiso   1.00
H2079  H     0.60016   0.74932   0.57086   0.00000  Uiso   1.00
H2080  H     0.60752   0.73192   0.65762   0.00000  Uiso   1.00
H2081  H     0.62962   0.70804   0.61852   0.00000  Uiso   1.00
H2082  H     0.66217   0.76594   0.59988   0.00000  Uiso   1.00
H2083  H     0.67171   0.75275   0.64910   0.00000  Uiso   1.00
H2084  H     0.64010   0.78941   0.63961   0.00000  Uiso   1.00
H2085  H     0.92049   0.77580   0.38944   0.00000  Uiso   1.00
H2086  H     0.89959   0.75095   0.42906   0.00000  Uiso   1.00
H2087  H     0.89114   0.73303   0.34254   0.00000  Uiso   1.00
H2088  H     0.87022   0.70854   0.38194   0.00000  Uiso   1.00
H2089  H     0.82437   0.87124   0.29744   0.00000  Uiso   1.00
H2090  H     0.83667   0.76521   0.40164   0.00000  Uiso   1.00
H2091  H     0.82695   0.75281   0.35223   0.00000  Uiso   1.00
H2092  H     0.85790   0.78999   0.36229   0.00000  Uiso   1.00
H2093  H     0.77822   0.58048   0.61589   0.00000  Uiso   1.00
H2094  H     0.80422   0.58146   0.57137   0.00000  Uiso   1.00
H2095  H     0.83574   0.57960   0.65379   0.00000  Uiso   1.00
H2096  H     0.86223   0.57819   0.60991   0.00000  Uiso   1.00
H2097  H     0.83732   0.63905   0.59035   0.00000  Uiso   1.00
H2098  H     0.85952   0.64108   0.63679   0.00000  Uiso   1.00
H2099  H     0.81028   0.64062   0.63418   0.00000  Uiso   1.00
H2100  H     0.87121   0.82435   0.29739   0.00000  Uiso   1.00
H2101  H     0.68323   0.95539   0.37768   0.00000  Uiso   1.00
H2102  H     0.68080   0.93546   0.42569   0.00000  Uiso   1.00
H2103  H     0.69783   0.89348   0.35075   0.00000  Uiso   1.00
H2104  H     0.69430   0.87422   0.39848   0.00000  Uiso   1.00
H2105  H     0.62885   0.89471   0.40229   0.00000  Uiso   1.00
H2106  H     0.63691   0.86475   0.36180   0.00000  Uiso   1.00
H2107  H     0.63251   0.91325   0.35386   0.00000  Uiso   1.00
H2108  H     0.63279   0.67964   0.70838   0.00000  Uiso   1.00
H2109  H     0.81886   0.63432   0.28887   0.00000  Uiso   1.00
H2110  H     0.67943   0.86747   0.70805   0.00000  Uiso   1.00
H2111  H     0.63381   0.68075   0.28974   0.00000  Uiso   1.00
H2112  H     0.56909   0.61587   0.21077   0.00000  Uiso   1.00
H2113  H     0.86693   0.82001   0.70892   0.00000  Uiso   1.00
H2114  H     0.68069   0.86611   0.28963   0.00000  Uiso   1.00
H2115  H     0.82017   0.63292   0.70877   0.00000  Uiso   1.00
H2116  H     0.71139   0.57211   0.99649   0.00000  Uiso   1.00
H2117  H     0.69896   0.57783   0.04709   0.00000  Uiso   1.00
H2118  H     0.64570   0.56710   0.97901   0.00000  Uiso   1.00
H2119  H     0.63315   0.57227   0.02910   0.00000  Uiso   1.00
H2120  H     0.66195   0.63438   0.03022   0.00000  Uiso   1.00
H2121  H     0.62717   0.63098   0.99348   0.00000  Uiso   1.00
H2122  H     0.67472   0.62919   0.97992   0.00000  Uiso   1.00
H2123  H     0.93031   0.88345   0.79041   0.00000  Uiso   1.00
H2124  H     0.77330   0.57118   0.00888   0.00000  Uiso   1.00
H2125  H     0.78599   0.58676   0.96075   0.00000  Uiso   1.00
H2126  H     0.83807   0.57666   0.02998   0.00000  Uiso   1.00
H2127  H     0.85050   0.59311   0.98268   0.00000  Uiso   1.00
H2128  H     0.80908   0.64674   0.99092   0.00000  Uiso   1.00
H2129  H     0.84169   0.64411   0.02991   0.00000  Uiso   1.00
H2130  H     0.79519   0.62988   0.03790   0.00000  Uiso   1.00
H2131  H     0.98721   0.64687   0.98713   0.00000  Uiso   1.00
H2132  H     0.96218   0.68797   0.99161   0.00000  Uiso   1.00
H2133  H     0.97510   0.63299   0.05850   0.00000  Uiso   1.00
H2134  H     0.88416   0.56888   0.21098   0.00000  Uiso   1.00
H2135  H     0.94466   0.67175   0.05925   0.00000  Uiso   1.00
H2136  H     0.90830   0.64285   0.00508   0.00000  Uiso   1.00
H2137  H     0.90963   0.61528   0.04828   0.00000  Uiso   1.00
H2138  H     0.93788   0.60340   0.00748   0.00000  Uiso   1.00
H2139  H     0.89853   0.77350   0.01085   0.00000  Uiso   1.00
H2140  H     0.92986   0.73682   0.00901   0.00000  Uiso   1.00
H2141  H     0.88244   0.76350   0.94020   0.00000  Uiso   1.00
H2142  H     0.91087   0.72323   0.94062   0.00000  Uiso   1.00
H2143  H     0.87267   0.69747   0.99470   0.00000  Uiso   1.00
H2144  H     0.84664   0.70610   0.95141   0.00000  Uiso   1.00
H2145  H     0.61762   0.92927   0.79225   0.00000  Uiso   1.00
H2146  H     0.84329   0.73707   0.99183   0.00000  Uiso   1.00
H2147  H     0.83319   0.93623   0.98865   0.00000  Uiso   1.00
H2148  H     0.78502   0.93881   0.98716   0.00000  Uiso   1.00
H2149  H     0.83049   0.91616   0.05894   0.00000  Uiso   1.00
H2150  H     0.78142   0.91408   0.05490   0.00000  Uiso   1.00
H2151  H     0.78772   0.86911   0.00018   0.00000  Uiso   1.00
H2152  H     0.80774   0.85298   0.04464   0.00000  Uiso   1.00
H2153  H     0.83678   0.86995   0.00654   0.00000  Uiso   1.00
H2154  H     0.67937   0.92637   0.01397   0.00000  Uiso   1.00
H2155  H     0.72660   0.93059   0.00388   0.00000  Uiso   1.00
H2156  H     0.92520   0.87828   0.20186   0.00000  Uiso   1.00
H2157  H     0.66774   0.90879   0.94366   0.00000  Uiso   1.00
H2158  H     0.71659   0.90774   0.93667   0.00000  Uiso   1.00
H2159  H     0.72177   0.86063   0.98942   0.00000  Uiso   1.00
H2160  H     0.69314   0.84582   0.95001   0.00000  Uiso   1.00
H2161  H     0.67256   0.86105   0.99456   0.00000  Uiso   1.00
H2162  H     0.51508   0.85494   0.98921   0.00000  Uiso   1.00
H2163  H     0.53688   0.81196   0.98742   0.00000  Uiso   1.00
H2164  H     0.53371   0.86222   0.05970   0.00000  Uiso   1.00
H2165  H     0.56016   0.82085   0.05513   0.00000  Uiso   1.00
H2166  H     0.59523   0.85003   0.99997   0.00000  Uiso   1.00
H2167  H     0.57005   0.61696   0.79107   0.00000  Uiso   1.00
H2168  H     0.60012   0.87377   0.04533   0.00000  Uiso   1.00
H2169  H     0.57037   0.89194   0.00852   0.00000  Uiso   1.00
H2170  H     0.60137   0.72718   0.01139   0.00000  Uiso   1.00
H2171  H     0.57266   0.76540   0.00389   0.00000  Uiso   1.00
H2172  H     0.61980   0.72878   0.94021   0.00000  Uiso   1.00
H2173  H     0.59499   0.77118   0.93587   0.00000  Uiso   1.00
H2174  H     0.63442   0.79850   0.98801   0.00000  Uiso   1.00
H2175  H     0.66053   0.78305   0.94692   0.00000  Uiso   1.00
H2176  H     0.65985   0.75621   0.99059   0.00000  Uiso   1.00
H2177  H     0.97321   0.81810   0.49172   0.00000  Uiso   1.00
H2178  H     0.61706   0.57024   0.79137   0.00000  Uiso   1.00
H2179  H     0.95740   0.83292   0.53907   0.00000  Uiso   1.00
H2180  H     0.90901   0.81864   0.46766   0.00000  Uiso   1.00
H2181  H     0.89372   0.83493   0.51412   0.00000  Uiso   1.00
H2182  H     0.93244   0.89089   0.50666   0.00000  Uiso   1.00
H2183  H     0.90101   0.88591   0.46683   0.00000  Uiso   1.00
H2184  H     0.94845   0.87438   0.46030   0.00000  Uiso   1.00
H2185  H     0.53420   0.81802   0.50953   0.00000  Uiso   1.00
H2186  H     0.54631   0.82999   0.46006   0.00000  Uiso   1.00
H2187  H     0.60006   0.81528   0.52688   0.00000  Uiso   1.00
H2188  H     0.61227   0.82712   0.47798   0.00000  Uiso   1.00
O2189  O     0.75000   0.50000   0.25000   0.00000  Uiso   1.00
O2190  O     0.75000   0.96964   0.66317   0.00000  Uiso   1.00
O2191  O     0.96964   0.75000   0.33683   0.00000  Uiso   1.00
O2192  O     0.53036   0.75000   0.66317   0.00000  Uiso   1.00
O2193  O     0.50000   0.71964   0.83683   0.00000  Uiso   1.00
O2194  O     0.50000   0.78036   0.16317   0.00000  Uiso   1.00
O2195  O     0.78036   0.50000   0.83683   0.00000  Uiso   1.00
O2196  O     0.71964   0.50000   0.16317   0.00000  Uiso   1.00
O2197  O     0.50000   0.78036   0.83683   0.00000  Uiso   1.00
O2198  O     0.50000   0.71964   0.16317   0.00000  Uiso   1.00
O2199  O     0.71964   0.50000   0.83683   0.00000  Uiso   1.00
O2200  O     0.75000   0.50000   0.75000   0.00000  Uiso   1.00
O2201  O     0.78036   0.50000   0.16317   0.00000  Uiso   1.00
O2202  O     0.70726   0.57307   0.27282   0.00000  Uiso   1.00
O2203  O     0.79275   0.92693   0.72718   0.00000  Uiso   1.00
O2204  O     0.92693   0.70726   0.27282   0.00000  Uiso   1.00
O2205  O     0.57307   0.79274   0.72718   0.00000  Uiso   1.00
O2206  O     0.79275   0.92693   0.27282   0.00000  Uiso   1.00
O2207  O     0.70726   0.57307   0.72718   0.00000  Uiso   1.00
O2208  O     0.57307   0.79274   0.27282   0.00000  Uiso   1.00
O2209  O     0.92693   0.70726   0.72718   0.00000  Uiso   1.00
O2210  O     0.70726   0.92693   0.72718   0.00000  Uiso   1.00
O2211  O     0.50000   0.75000   0.25000   0.00000  Uiso   1.00
O2212  O     0.79275   0.57307   0.27282   0.00000  Uiso   1.00
O2213  O     0.92693   0.79275   0.72718   0.00000  Uiso   1.00
O2214  O     0.57307   0.70725   0.27282   0.00000  Uiso   1.00
O2215  O     0.79275   0.57307   0.72718   0.00000  Uiso   1.00
O2216  O     0.70726   0.92693   0.27282   0.00000  Uiso   1.00
O2217  O     0.57307   0.70725   0.72718   0.00000  Uiso   1.00
O2218  O     0.92693   0.79275   0.27282   0.00000  Uiso   1.00
O2219  O     0.95726   0.82307   0.77282   0.00000  Uiso   1.00
O2220  O     0.54275   0.67693   0.22718   0.00000  Uiso   1.00
O2221  O     0.67693   0.95725   0.77282   0.00000  Uiso   1.00
O2222  O     0.50000   0.75000   0.75000   0.00000  Uiso   1.00
O2223  O     0.82307   0.54275   0.22718   0.00000  Uiso   1.00
O2224  O     0.54275   0.67693   0.77282   0.00000  Uiso   1.00
O2225  O     0.95726   0.82307   0.22718   0.00000  Uiso   1.00
O2226  O     0.82307   0.54275   0.77282   0.00000  Uiso   1.00
O2227  O     0.67693   0.95725   0.22718   0.00000  Uiso   1.00
O2228  O     0.95726   0.67693   0.22718   0.00000  Uiso   1.00
O2229  O     0.54275   0.82307   0.77282   0.00000  Uiso   1.00
O2230  O     0.67693   0.54275   0.22718   0.00000  Uiso   1.00
O2231  O     0.82307   0.95725   0.77282   0.00000  Uiso   1.00
O2232  O     0.54275   0.82307   0.22718   0.00000  Uiso   1.00
O2233  O     0.75000   0.96964   0.33683   0.00000  Uiso   1.00
O2234  O     0.95726   0.67693   0.77282   0.00000  Uiso   1.00
O2235  O     0.82307   0.95725   0.22718   0.00000  Uiso   1.00
O2236  O     0.67693   0.54275   0.77282   0.00000  Uiso   1.00
O2237  O     0.68867   0.52651   0.02226   0.00000  Uiso   1.00
O2238  O     0.80611   0.53578   0.97745   0.00000  Uiso   1.00
O2239  O     0.51170   0.68411   0.02235   0.00000  Uiso   1.00
O2240  O     0.94256   0.78371   0.97650   0.00000  Uiso   1.00
O2241  O     0.81236   0.97685   0.02232   0.00000  Uiso   1.00
O2242  O     0.69100   0.96830   0.97724   0.00000  Uiso   1.00
O2243  O     0.99023   0.81641   0.02253   0.00000  Uiso   1.00
O2244  O     0.75000   0.53036   0.66317   0.00000  Uiso   1.00
O2245  O     0.55827   0.71620   0.97609   0.00000  Uiso   1.00
O2246  O     0.94157   0.78059   0.52188   0.00000  Uiso   1.00
O2247  O     0.55997   0.77719   0.47838   0.00000  Uiso   1.00
O2248  O     0.69003   0.96981   0.52393   0.00000  Uiso   1.00
O2249  O     0.76476   0.56540   0.47765   0.00000  Uiso   1.00
O2250  O     0.55803   0.71652   0.52245   0.00000  Uiso   1.00
O2251  O     0.94045   0.71960   0.47788   0.00000  Uiso   1.00
O2252  O     0.80972   0.53036   0.52384   0.00000  Uiso   1.00
O2253  O     0.73487   0.93481   0.47766   0.00000  Uiso   1.00
O2254  O     0.68557   0.51857   0.10049   0.00000  Uiso   1.00
O2255  O     0.53036   0.75000   0.33683   0.00000  Uiso   1.00
O2256  O     0.80863   0.53093   0.89847   0.00000  Uiso   1.00
O2257  O     0.51525   0.68536   0.10043   0.00000  Uiso   1.00
O2258  O     0.94497   0.78591   0.89715   0.00000  Uiso   1.00
O2259  O     0.81366   0.98192   0.10073   0.00000  Uiso   1.00
O2260  O     0.69024   0.97109   0.89825   0.00000  Uiso   1.00
O2261  O     0.98482   0.81498   0.10018   0.00000  Uiso   1.00
O2262  O     0.55561   0.71440   0.89654   0.00000  Uiso   1.00
O2263  O     0.93994   0.77785   0.60115   0.00000  Uiso   1.00
O2264  O     0.56073   0.77642   0.39896   0.00000  Uiso   1.00
O2265  O     0.69282   0.96721   0.60333   0.00000  Uiso   1.00
O2266  O     0.96964   0.75000   0.66317   0.00000  Uiso   1.00
O2267  O     0.76764   0.56411   0.39949   0.00000  Uiso   1.00
O2268  O     0.56001   0.72128   0.60154   0.00000  Uiso   1.00
O2269  O     0.93940   0.72248   0.39830   0.00000  Uiso   1.00
O2270  O     0.80705   0.53290   0.60321   0.00000  Uiso   1.00
O2271  O     0.73240   0.93594   0.39951   0.00000  Uiso   1.00
O2272  O     0.75000   0.53036   0.33683   0.00000  Uiso   1.00
Zn2273 Zn    0.70660   0.50000   0.21760   0.00000  Uiso   1.00
Zn2274 Zn    0.54340   0.75000   0.28240   0.00000  Uiso   1.00
Zn2275 Zn    0.75000   0.95660   0.71760   0.00000  Uiso   1.00
Zn2276 Zn    0.75000   0.54340   0.28240   0.00000  Uiso   1.00
Zn2277 Zn    0.54340   0.75000   0.71760   0.00000  Uiso   1.00
Zn2278 Zn    0.95660   0.75000   0.28240   0.00000  Uiso   1.00
Zn2279 Zn    0.75000   0.54340   0.71760   0.00000  Uiso   1.00
Zn2280 Zn    0.75000   0.95660   0.28240   0.00000  Uiso   1.00
Zn2281 Zn    0.79340   0.50000   0.78240   0.00000  Uiso   1.00
Zn2282 Zn    0.50000   0.70660   0.21760   0.00000  Uiso   1.00
Zn2283 Zn    0.50000   0.79340   0.78240   0.00000  Uiso   1.00
Zn2284 Zn    0.79340   0.50000   0.21760   0.00000  Uiso   1.00
Zn2285 Zn    0.70660   0.50000   0.78240   0.00000  Uiso   1.00
Zn2286 Zn    0.50000   0.79340   0.21760   0.00000  Uiso   1.00
Zn2287 Zn    0.50000   0.70660   0.78240   0.00000  Uiso   1.00
Zn2288 Zn    0.95660   0.75000   0.71760   0.00000  Uiso   1.00
loop_
_geom_bond_atom_site_label_1
_geom_bond_atom_site_label_2
_geom_bond_distance
_geom_bond_site_symmetry_2
_ccdc_geom_bond_type
C1     O521    1.384   .     S
C1     C79     1.395   .     A
C1     C144    1.408   .     A
C2     C149    1.409   .     A
C2     C136    1.399   .     A
C2     O531    1.385   .     S
C3     C192    1.402   .     A
C3     C199    1.402   .     A
C3     C163    1.454   .     S
C4     C191    1.402   .     A
C4     C202    1.401   .     A
C4     C164    1.453   .     S
C5     C201    1.401   .     A
C5     C190    1.401   .     A
C5     C165    1.453   .     S
C6     C166    1.454   .     S
C6     C189    1.402   .     A
C6     C204    1.402   .     A
C7     C203    1.402   .     A
C7     C188    1.401   .     A
C7     C167    1.454   .     S
C8     C207    1.401   .     A
C8     C177    1.453   .     S
C8     C187    1.401   .     A
C9     C186    1.402   .     A
C9     C178    1.453   .     S
C9     C205    1.401   .     A
C10    C185    1.401   .     A
C10    C209    1.401   .     A
C10    C170    1.452   .     S
C11    C171    1.453   .     S
C11    C183    1.401   .     A
C11    C208    1.401   .     A
C12    C172    1.453   .     S
C12    C211    1.401   .     A
C12    C182    1.401   .     A
C13    O532    1.388   .     S
C13    C137    1.401   .     A
C13    C1294   1.418   .     S
C14    C181    1.401   .     A
C14    C174    1.453   .     S
C14    C210    1.401   .     A
C15    C213    1.401   .     A
C15    C175    1.453   .     S
C15    C180    1.401   .     A
C16    C179    1.401   .     A
C16    C212    1.401   .     A
C16    C176    1.453   .     S
C17    C160    1.474   .     S
C17    C124    1.413   .     A
C17    C1223   1.416   .     S
C18    C159    1.468   .     S
C18    C90     1.410   .     A
C18    C1276   1.412   1_545 S
C19    C133    1.415   .     A
C19    C158    1.478   .     S
C19    C673    1.412   .     S
C20    C134    1.403   .     A
C20    C157    1.457   .     S
C20    C685    1.403   1_455 S
C21    C135    1.413   .     A
C21    C728    1.471   .     S
C21    C711    1.413   .     S
C22    C155    1.471   .     S
C22    C713    1.413   1_455 A
C22    C136    1.413   .     S
C23    C154    1.455   .     S
C23    C137    1.402   .     A
C23    C1286   1.403   .     S
C24    O533    1.389   .     S
C24    C152    1.416   .     A
C24    C138    1.399   .     A
C25    C153    1.478   .     S
C25    C138    1.412   .     A
C25    C1287   1.412   1_545 S
C26    H401    1.116   .     S
C26    C27     1.528   .     S
C26    O521    1.410   .     S
C26    H400    1.111   1_554 S
C27    H403    1.112   .     S
C27    C28     1.526   .     S
C27    H402    1.112   1_554 S
C28    H404    1.111   .     S
C28    H405    1.111   1_554 S
C28    H406    1.111   1_554 S
C29    H409    1.116   .     S
C29    O522    1.410   .     S
C29    C30     1.528   1_556 S
C29    H408    1.111   1_556 S
C30    C31     1.526   .     S
C30    H410    1.112   .     S
C30    C29     1.528   1_554 S
C30    H411    1.112   1_554 S
C31    H414    1.111   .     S
C31    H413    1.110   .     S
C31    H412    1.111   1_554 S
C32    C33     1.535   .     S
C32    H415    1.111   1_554 S
C32    H416    1.109   1_554 S
C32    O1095   1.414   .     S
C33    H417    1.112   .     S
C33    H419    1.111   .     S
C33    C34     1.526   .     S
C34    H420    1.109   .     S
C34    H421    1.111   .     S
C34    H422    1.111   .     S
C35    O534    1.385   .     S
C35    C139    1.398   .     A
C35    C720    1.409   1_455 S
C36    O524    1.414   .     S
C36    C37     1.535   .     S
C36    H423    1.111   1_556 S
C36    H424    1.108   1_556 S
C37    C38     1.525   .     S
C37    H426    1.111   .     S
C37    H425    1.112   .     S
C38    H428    1.110   .     S
C38    H427    1.109   .     S
C38    H430    1.111   .     S
C39    C40     1.536   .     S
C39    O525    1.415   .     S
C39    H431    1.111   1_554 S
C39    H432    1.108   1_554 S
C40    H433    1.111   .     S
C40    H434    1.111   .     S
C40    C41     1.526   .     S
C41    H437    1.111   .     S
C41    H435    1.110   .     S
C41    H436    1.110   .     S
C42    O526    1.414   .     S
C42    C43     1.533   .     S
C42    H438    1.111   1_556 S
C42    H439    1.109   1_556 S
C43    C44     1.526   .     S
C43    H442    1.111   .     S
C43    H441    1.112   .     S
C44    H445    1.111   .     S
C44    H444    1.110   .     S
C44    H443    1.110   .     S
C45    C47     1.537   .     S
C45    H446    1.111   1_554 S
C45    H447    1.108   1_554 S
C45    O1099   1.415   1_455 S
C46    C141    1.400   .     A
C46    O535    1.385   .     S
C46    C721    1.407   .     S
C47    C48     1.526   .     S
C47    H449    1.111   .     S
C47    H448    1.111   .     S
C48    H452    1.110   .     S
C48    H453    1.111   .     S
C48    H450    1.110   1_554 S
C49    C50     1.534   .     S
C49    O529    1.413   .     S
C49    H454    1.111   1_556 S
C49    H455    1.109   1_556 S
C50    H457    1.111   .     S
C50    H456    1.112   .     S
C50    C51     1.525   .     S
C51    H460    1.111   .     S
C51    H458    1.109   .     S
C51    H459    1.110   .     S
C52    H463    1.115   .     S
C52    C53     1.528   .     S
C52    H461    1.111   .     S
C52    O530    1.410   .     S
C53    H465    1.112   .     S
C53    C54     1.526   .     S
C53    H464    1.112   .     S
C54    H466    1.111   .     S
C54    H467    1.110   .     S
C54    H468    1.111   .     S
C55    H469    1.112   .     S
C55    C56     1.528   .     S
C55    H470    1.116   .     S
C55    O531    1.410   .     S
C56    H472    1.112   .     S
C56    H471    1.112   .     S
C56    C58     1.526   .     S
C57    C142    1.401   .     A
C57    C150    1.418   .     A
C57    O536    1.389   .     S
C58    H221    1.111   .     S
C58    H220    1.111   .     S
C58    H219    1.111   .     S
C59    H222    1.111   .     S
C59    O532    1.413   .     S
C59    C1204   1.535   .     S
C59    H1367   1.108   .     S
C60    C61     1.525   .     S
C60    H225    1.111   .     S
C60    C1203   1.535   1_545 S
C60    H1368   1.112   1_545 S
C61    H227    1.110   .     S
C61    H226    1.109   .     S
C61    H228    1.111   .     S
C62    H230    1.111   .     S
C62    C63     1.535   .     S
C62    O533    1.414   .     S
C62    H231    1.108   .     S
C63    C64     1.526   .     S
C63    H233    1.111   .     S
C63    H232    1.112   .     S
C64    H235    1.110   .     S
C64    H234    1.109   .     S
C64    H236    1.111   .     S
C65    H238    1.115   .     S
C65    H237    1.111   .     S
C65    O534    1.410   .     S
C65    C66     1.528   .     S
C66    C67     1.526   .     S
C66    H241    1.112   .     S
C66    H239    1.112   .     S
C67    H244    1.111   .     S
C67    H242    1.111   .     S
C67    H243    1.110   .     S
C68    C143    1.399   .     A
C68    O537    1.389   .     S
C68    C1296   1.416   .     S
C69    H245    1.112   .     S
C69    C70     1.528   .     S
C69    H246    1.116   .     S
C69    O535    1.411   .     S
C70    H247    1.112   .     S
C70    C71     1.526   .     S
C70    H248    1.112   .     S
C71    H249    1.111   .     S
C71    H252    1.111   .     S
C71    H250    1.111   .     S
C72    H253    1.111   .     S
C72    O536    1.414   .     S
C72    C1217   1.535   1_545 S
C72    H1398   1.108   1_545 S
C73    H256    1.111   .     S
C73    C74     1.525   .     S
C73    C1216   1.535   .     S
C73    H1399   1.112   .     S
C74    H258    1.110   .     S
C74    H259    1.111   .     S
C74    H257    1.109   .     S
C75    H261    1.109   .     S
C75    O537    1.414   .     S
C75    C76     1.535   .     S
C75    H260    1.111   .     S
C76    C77     1.526   .     S
C76    H264    1.111   .     S
C76    H263    1.112   .     S
C77    H265    1.109   .     S
C77    H266    1.110   .     S
C77    H267    1.111   .     S
C78    H268    1.111   .     S
C78    C80     1.532   .     S
C78    H269    1.118   .     S
C78    O1682   1.420   .     S
C79    O538    1.386   .     S
C79    C1161   1.416   1_545 S
C80    H271    1.109   .     S
C80    C81     1.526   .     S
C80    H1414   1.112   .     S
C81    H274    1.110   .     S
C81    H272    1.111   .     S
C81    H275    1.111   .     S
C82    O540    1.414   .     S
C82    C83     1.528   .     S
C82    H277    1.113   .     S
C82    H1420   1.117   1_545 S
C83    H279    1.112   .     S
C83    H278    1.111   .     S
C83    C1228   1.526   1_545 S
C84    H280    1.111   .     S
C84    H282    1.111   .     S
C84    C1227   1.526   .     S
C84    H1425   1.110   .     S
C85    H283    1.115   .     S
C85    C86     1.527   .     S
C85    O541    1.413   .     S
C85    H285    1.115   .     S
C86    H286    1.111   .     S
C86    H287    1.112   .     S
C86    C87     1.526   .     S
C87    H290    1.111   .     S
C87    H288    1.111   .     S
C87    H289    1.110   .     S
C88    H292    1.113   .     S
C88    C89     1.528   .     S
C88    O542    1.413   .     S
C88    H291    1.114   .     S
C89    H294    1.112   .     S
C89    C91     1.526   .     S
C89    H293    1.111   .     S
C90    O540    1.384   .     S
C90    C112    1.397   .     A
C91    H296    1.111   .     S
C91    H298    1.111   .     S
C91    H297    1.110   .     S
C92    H299    1.117   .     S
C92    C93     1.528   .     S
C92    H300    1.113   .     S
C92    O1687   1.415   1_545 S
C93    C94     1.527   .     S
C93    H301    1.112   .     S
C93    H1446   1.112   1_545 S
C94    H303    1.111   .     S
C94    H305    1.111   .     S
C94    H304    1.110   .     S
C95    H308    1.113   .     S
C95    O544    1.414   .     S
C95    C96     1.528   .     S
C95    H1451   1.116   .     S
C96    H310    1.112   .     S
C96    H309    1.111   .     S
C96    C1241   1.526   .     S
C97    H313    1.110   .     S
C97    H311    1.111   .     S
C97    C1240   1.526   1_545 S
C97    H1456   1.110   1_545 S
C98    H314    1.111   .     S
C98    C99     1.530   .     S
C98    O545    1.418   .     S
C98    H315    1.118   .     S
C99    H316    1.112   .     S
C99    H318    1.110   .     S
C99    C100    1.525   .     S
C100   H321    1.111   .     S
C100   H319    1.111   .     S
C100   H320    1.108   .     S
C101   O541    1.383   .     S
C101   C140    1.398   .     A
C101   C591    1.412   1_455 S
C102   O546    1.413   .     S
C102   H323    1.113   .     S
C102   H322    1.114   .     S
C102   C103    1.528   .     S
C103   H324    1.111   .     S
C103   H325    1.112   .     S
C103   C104    1.526   .     S
C104   H330    1.111   .     S
C104   H327    1.110   .     S
C104   H326    1.111   .     S
C105   H331    1.117   .     S
C105   O547    1.414   .     S
C105   C106    1.528   .     S
C105   H332    1.113   .     S
C106   H334    1.112   .     S
C106   C107    1.526   .     S
C106   H333    1.111   .     S
C107   H336    1.110   .     S
C107   H337    1.110   .     S
C107   H335    1.111   .     S
C108   C109    1.528   .     S
C108   H339    1.113   .     S
C108   O548    1.414   .     S
C108   H338    1.116   .     S
C109   H341    1.111   .     S
C109   C110    1.526   .     S
C109   H342    1.112   .     S
C110   H345    1.111   .     S
C110   H343    1.111   .     S
C110   H344    1.110   .     S
C111   H346    1.114   .     S
C111   H347    1.113   .     S
C111   C114    1.528   .     S
C111   O549    1.413   .     S
C112   O522    1.385   .     S
C112   C145    1.411   .     A
C113   C151    1.401   .     A
C113   O542    1.385   .     S
C113   C592    1.403   .     S
C114   C115    1.526   .     S
C114   H349    1.112   .     S
C114   H348    1.112   .     S
C115   H352    1.110   .     S
C115   H350    1.111   .     S
C115   H353    1.111   .     S
C116   H355    1.115   .     S
C116   H354    1.114   .     S
C116   O551    1.413   .     S
C116   C117    1.527   .     S
C117   H357    1.112   .     S
C117   H356    1.111   .     S
C117   C118    1.526   .     S
C118   H360    1.111   .     S
C118   H358    1.111   .     S
C118   H359    1.110   .     S
C119   H363    1.113   .     S
C119   H361    1.117   .     S
C119   C120    1.528   .     S
C119   O552    1.414   .     S
C120   H364    1.111   .     S
C120   H365    1.112   .     S
C120   C121    1.526   .     S
C121   H366    1.111   .     S
C121   H368    1.110   .     S
C121   H367    1.110   .     S
C122   O553    1.414   .     S
C122   H369    1.116   .     S
C122   H370    1.113   .     S
C122   C123    1.528   .     S
C123   H372    1.112   .     S
C123   C125    1.526   .     S
C123   H371    1.112   .     S
C124   C162    1.398   .     A
C124   O543    1.384   .     S
C125   H375    1.110   .     S
C125   H374    1.111   .     S
C125   H376    1.111   .     S
C126   C127    1.528   .     S
C126   H378    1.113   .     S
C126   O554    1.413   .     S
C126   H377    1.114   .     S
C127   H380    1.112   .     S
C127   C128    1.526   .     S
C127   H379    1.112   .     S
C128   H381    1.111   .     S
C128   H383    1.111   .     S
C128   H382    1.110   .     S
C129   H386    1.116   .     S
C129   C130    1.527   .     S
C129   H385    1.114   .     S
C129   O555    1.412   .     S
C130   H388    1.112   .     S
C130   C131    1.526   .     S
C130   H387    1.111   .     S
C131   H389    1.111   .     S
C131   H390    1.110   .     S
C131   H391    1.111   .     S
C132   O544    1.384   .     S
C132   C173    1.398   .     A
C132   C1162   1.412   .     S
C133   C184    1.397   .     A
C133   O545    1.385   .     S
C134   C195    1.401   .     A
C134   O546    1.385   .     S
C135   C206    1.398   .     A
C135   O547    1.384   .     S
C136   O548    1.385   .     S
C137   O549    1.385   .     S
C138   O551    1.383   .     S
C139   O552    1.384   .     S
C139   C593    1.413   1_455 S
C140   O523    1.389   .     S
C140   C146    1.415   .     A
C141   O553    1.385   .     S
C141   C594    1.413   .     A
C142   O554    1.385   .     S
C142   C1167   1.403   1_545 S
C143   O555    1.383   .     S
C143   C1169   1.412   .     S
C144   C145    1.469   1_554 S
C144   C1306   1.413   1_545 S
C145   C144    1.469   1_556 S
C145   C1317   1.414   1_545 S
C146   C147    1.475   1_554 S
C146   C756    1.416   1_455 S
C147   C195    1.418   .     A
C147   C146    1.475   1_556 S
C147   C723    1.418   1_455 S
C148   C206    1.409   .     A
C148   C607    1.409   .     S
C148   C721    1.469   .     S
C149   C618    1.407   1_455 S
C149   C720    1.469   1_455 S
C150   C152    1.476   .     S
C150   C1157   1.418   1_545 S
C151   O524    1.389   .     S
C151   C719    1.418   .     S
C152   C1212   1.416   1_545 S
C153   O556    1.283   .     A
C153   O1661   1.284   1_545 S
C154   O474    1.277   .     A
C154   O1672   1.277   .     S
C155   O1047   1.282   1_455 A
C155   O539    1.282   .     S
C156   O1122   1.282   1_455 A
C156   C593    1.471   1_455 S
C156   O476    1.282   .     S
C157   O477    1.278   .     S
C157   O481    1.278   .     S
C158   O1050   1.283   .     A
C158   O1054   1.284   .     A
C159   O483    1.280   .     A
C159   O479    1.282   .     A
C160   O1624   1.281   .     S
C160   O1629   1.284   .     S
C161   O486    1.279   .     A
C161   C216    1.453   .     S
C161   O514    1.279   .     A
C162   O525    1.389   .     S
C162   C1288   1.413   .     S
C163   O515    1.279   .     A
C163   O487    1.280   .     A
C164   O488    1.279   .     A
C164   O512    1.279   .     A
C165   O489    1.279   .     A
C165   O513    1.279   .     A
C166   O519    1.279   .     A
C166   O490    1.280   .     A
C167   O520    1.279   .     A
C167   O491    1.279   .     A
C168   C214    1.453   .     S
C168   O492    1.280   .     A
C168   O516    1.280   .     A
C169   O493    1.280   .     A
C169   O518    1.280   .     A
C169   C215    1.453   .     S
C170   O494    1.279   .     A
C170   O505    1.279   .     A
C171   O496    1.279   .     A
C171   O507    1.279   .     A
C172   O497    1.279   .     A
C172   O503    1.280   .     A
C173   O526    1.388   .     S
C173   C1289   1.414   .     S
C174   O498    1.279   .     A
C174   O504    1.280   .     A
C175   O510    1.279   .     A
C175   O499    1.280   .     A
C176   O511    1.280   .     A
C176   O500    1.280   .     A
C177   O501    1.279   .     A
C177   O508    1.279   .     A
C178   O509    1.279   .     A
C178   O502    1.280   .     A
C179   C196    1.385   .     A
C179   H217    1.083   .     S
C180   C194    1.385   .     A
C180   H328    1.083   .     S
C181   H396    1.082   .     S
C181   C193    1.385   .     A
C182   C192    1.385   .     A
C182   H407    1.083   .     S
C183   H418    1.083   .     S
C183   C191    1.385   .     A
C184   O527    1.389   .     S
C184   C718    1.416   .     S
C185   C190    1.385   .     A
C185   H429    1.083   .     S
C186   C189    1.386   .     A
C186   H440    1.083   .     S
C187   H451    1.083   .     S
C187   C188    1.385   .     A
C188   H462    1.083   .     S
C189   H218    1.083   .     S
C190   H229    1.083   .     S
C191   H240    1.083   .     S
C192   H251    1.083   .     S
C193   H262    1.083   .     S
C193   C216    1.401   .     A
C194   H273    1.083   .     S
C194   C215    1.401   .     A
C195   O529    1.388   .     S
C196   H284    1.083   .     S
C196   C214    1.401   .     A
C197   H295    1.083   .     S
C197   C213    1.385   .     A
C197   C215    1.401   .     A
C198   C214    1.401   .     A
C198   C212    1.385   .     A
C198   H306    1.083   .     S
C199   H317    1.083   .     S
C199   C211    1.385   .     A
C200   C216    1.402   .     A
C200   C210    1.385   .     A
C200   H329    1.083   .     S
C201   C209    1.385   .     A
C201   H340    1.083   .     S
C202   C208    1.385   .     A
C202   H351    1.083   .     S
C203   H362    1.083   .     S
C203   C207    1.385   .     A
C204   C205    1.385   .     A
C204   H373    1.083   .     S
C205   H384    1.083   .     S
C206   O530    1.385   .     S
C207   H392    1.083   .     S
C208   H393    1.082   .     S
C209   H394    1.083   .     S
C210   H395    1.083   .     S
C211   H397    1.083   .     S
C212   H398    1.082   .     S
C213   H399    1.083   .     S
H223   C1203   1.108   1_545 S
H224   C1204   1.112   .     S
H254   C1216   1.108   .     S
H255   C1217   1.112   1_545 S
H270   C1224   1.112   1_545 S
H276   C1226   1.117   .     S
H281   C1228   1.110   1_545 S
H302   C1237   1.112   .     S
H307   C1239   1.116   1_545 S
H312   C1241   1.110   .     S
H400   C26     1.111   1_556 S
H402   C27     1.112   1_556 S
H405   C28     1.111   1_556 S
H406   C28     1.111   1_556 S
H408   C29     1.111   1_554 S
H411   C30     1.112   1_556 S
H412   C31     1.111   1_556 S
H415   C32     1.111   1_556 S
H416   C32     1.109   1_556 S
H423   C36     1.111   1_554 S
H424   C36     1.108   1_554 S
H431   C39     1.111   1_556 S
H432   C39     1.108   1_556 S
H438   C42     1.111   1_554 S
H439   C42     1.109   1_554 S
H446   C45     1.111   1_556 S
H447   C45     1.108   1_556 S
H450   C48     1.110   1_556 S
H454   C49     1.111   1_554 S
H455   C49     1.109   1_554 S
O473   Zn568   1.945   .     S
O473   Zn560   1.944   .     S
O473   Zn557   1.945   .     S
O473   Zn1708  1.945   1_545 S
O474   Zn559   1.944   .     S
O475   Zn562   1.944   .     S
O475   C727    1.282   .     A
O476   Zn561   1.944   .     S
O477   Zn571   1.944   .     S
O478   C730    1.283   1_455 A
O478   Zn570   1.944   .     S
O479   Zn565   1.944   .     S
O480   Zn557   1.944   .     S
O480   C1304   1.281   1_545 S
O481   Zn567   1.944   .     S
O482   C730    1.284   1_455 A
O482   Zn566   1.944   .     S
O483   Zn569   1.944   .     S
O484   Zn563   1.945   .     S
O484   Zn565   1.945   .     S
O484   Zn569   1.945   .     S
O484   Zn1703  1.944   1_545 S
O485   Zn568   1.944   .     S
O485   C1304   1.284   1_545 S
O486   Zn560   1.934   .     S
O487   Zn559   1.934   .     S
O488   Zn562   1.933   .     S
O489   Zn561   1.933   .     S
O490   Zn564   1.934   .     S
O491   Zn563   1.934   .     S
O492   Zn558   1.933   .     S
O493   Zn572   1.933   .     S
O494   Zn559   1.933   .     S
O495   Zn1134  1.945   1_455 S
O495   Zn566   1.944   .     S
O495   Zn570   1.945   .     S
O495   Zn558   1.945   .     S
O496   Zn560   1.933   .     S
O497   Zn572   1.934   .     S
O498   Zn558   1.934   .     S
O499   Zn563   1.933   .     S
O500   Zn564   1.933   .     S
O501   Zn561   1.934   .     S
O502   Zn562   1.934   .     S
O503   Zn1139  1.934   .     S
O504   Zn566   1.934   .     S
O505   Zn1713  1.933   .     S
O506   Zn567   1.944   .     S
O506   Zn571   1.945   .     S
O506   Zn1144  1.945   1_455 S
O506   Zn561   1.945   .     S
O507   Zn568   1.933   .     S
O508   Zn571   1.934   .     S
O509   Zn1142  1.934   .     S
O510   Zn565   1.933   .     S
O511   Zn1701  1.933   .     S
O512   Zn1138  1.933   .     S
O513   Zn567   1.933   .     S
O514   Zn557   1.934   .     S
O515   Zn1709  1.934   .     S
O516   Zn570   1.933   .     S
O517   Zn564   1.944   .     S
O517   C1297   1.284   .     S
O518   Zn1143  1.933   .     S
O519   Zn1712  1.934   .     S
O520   Zn569   1.934   .     S
O523   C604    1.414   1_455 S
O527   C617    1.415   .     S
O528   Zn563   1.944   .     S
O528   C1298   1.277   1_545 S
O538   C1222   1.420   1_545 S
O539   Zn558   1.944   .     S
O543   C1236   1.415   .     S
O550   C728    1.282   .     A
O550   Zn572   1.944   .     S
O556   Zn560   1.944   .     S
Zn557  O1655   1.933   1_545 S
Zn559  O1628   1.944   .     S
Zn562  O1067   1.945   .     S
Zn564  O1617   1.945   .     S
Zn565  O1659   1.934   1_545 S
Zn566  O1084   1.933   1_455 S
Zn567  O1075   1.934   1_455 S
Zn568  O1663   1.934   1_545 S
Zn569  O1649   1.933   1_545 S
Zn570  O1081   1.934   1_455 S
Zn571  O1090   1.933   1_455 S
Zn572  O1078   1.945   .     S
C573   O1093   1.384   .     S
C573   C651    1.395   .     A
C573   C716    1.408   .     A
C574   C721    1.409   .     A
C574   C708    1.399   .     A
C574   O1103   1.385   .     S
C575   C764    1.402   .     A
C575   C771    1.402   .     A
C575   C735    1.454   .     S
C576   C763    1.402   .     A
C576   C774    1.401   .     A
C576   C736    1.453   .     S
C577   C773    1.401   .     A
C577   C762    1.401   .     A
C577   C737    1.453   .     S
C578   C738    1.454   .     S
C578   C761    1.402   .     A
C578   C776    1.402   .     A
C579   C775    1.402   .     A
C579   C760    1.401   .     A
C579   C739    1.454   .     S
C580   C779    1.401   .     A
C580   C749    1.453   .     S
C580   C759    1.401   .     A
C581   C758    1.402   .     A
C581   C750    1.453   .     S
C581   C777    1.401   .     A
C582   C757    1.401   .     A
C582   C781    1.401   .     A
C582   C742    1.452   .     S
C583   C743    1.453   .     S
C583   C755    1.401   .     A
C583   C780    1.401   .     A
C584   C744    1.453   .     S
C584   C783    1.401   .     A
C584   C754    1.401   .     A
C585   O1104   1.388   .     S
C585   C709    1.401   .     A
C585   C1866   1.418   .     S
C586   C753    1.401   .     A
C586   C746    1.453   .     S
C586   C782    1.401   .     A
C587   C785    1.401   .     A
C587   C747    1.453   .     S
C587   C752    1.401   .     A
C588   C751    1.401   .     A
C588   C784    1.401   .     A
C588   C748    1.453   .     S
C589   C732    1.474   .     S
C589   C696    1.413   .     A
C589   C1795   1.416   .     S
C590   C731    1.468   .     S
C590   C662    1.410   .     A
C590   C1848   1.412   1_545 S
C591   C705    1.415   .     A
C591   C730    1.478   .     S
C591   C101    1.412   1_655 S
C592   C706    1.403   .     A
C592   C729    1.457   .     S
C593   C707    1.413   .     A
C593   C156    1.471   1_655 S
C593   C139    1.413   1_655 S
C594   C727    1.471   .     S
C594   C708    1.413   .     S
C595   C726    1.455   .     S
C595   C709    1.402   .     A
C595   C1858   1.403   .     S
C596   O1105   1.389   .     S
C596   C724    1.416   .     A
C596   C710    1.399   .     A
C597   C725    1.478   .     S
C597   C710    1.412   .     A
C597   C1859   1.412   1_545 S
C598   H973    1.116   .     S
C598   C599    1.528   .     S
C598   O1093   1.410   .     S
C598   H972    1.111   1_554 S
C599   H975    1.112   .     S
C599   C600    1.526   .     S
C599   H974    1.112   1_554 S
C600   H976    1.111   .     S
C600   H977    1.111   1_554 S
C600   H978    1.111   1_554 S
C601   H981    1.116   .     S
C601   O1094   1.410   .     S
C601   C602    1.528   1_556 S
C601   H980    1.111   1_556 S
C602   C603    1.526   .     S
C602   H982    1.112   .     S
C602   C601    1.528   1_554 S
C602   H983    1.112   1_554 S
C603   H986    1.111   .     S
C603   H985    1.110   .     S
C603   H984    1.111   1_554 S
C604   C605    1.535   .     S
C604   H987    1.111   1_554 S
C604   H988    1.109   1_554 S
C604   O523    1.414   1_655 S
C605   H989    1.112   .     S
C605   H991    1.111   .     S
C605   C606    1.526   .     S
C606   H992    1.109   .     S
C606   H993    1.111   .     S
C606   H994    1.111   .     S
C607   O1106   1.385   .     S
C607   C711    1.398   .     A
C608   O1096   1.414   .     S
C608   C609    1.535   .     S
C608   H995    1.111   1_556 S
C608   H996    1.108   1_556 S
C609   C610    1.525   .     S
C609   H998    1.111   .     S
C609   H997    1.112   .     S
C610   H1000   1.110   .     S
C610   H999    1.109   .     S
C610   H1002   1.111   .     S
C611   C612    1.536   .     S
C611   O1097   1.415   .     S
C611   H1003   1.111   1_554 S
C611   H1004   1.108   1_554 S
C612   H1005   1.111   .     S
C612   H1006   1.111   .     S
C612   C613    1.526   .     S
C613   H1009   1.111   .     S
C613   H1007   1.110   .     S
C613   H1008   1.110   .     S
C614   O1098   1.414   .     S
C614   C615    1.533   .     S
C614   H1010   1.111   1_556 S
C614   H1011   1.109   1_556 S
C615   C616    1.526   .     S
C615   H1014   1.111   .     S
C615   H1013   1.112   .     S
C616   H1017   1.111   .     S
C616   H1016   1.110   .     S
C616   H1015   1.110   .     S
C617   C619    1.537   .     S
C617   H1018   1.111   1_554 S
C617   H1019   1.108   1_554 S
C618   C713    1.400   .     A
C618   O1107   1.385   .     S
C618   C149    1.407   1_655 S
C619   C620    1.526   .     S
C619   H1021   1.111   .     S
C619   H1020   1.111   .     S
C620   H1024   1.110   .     S
C620   H1025   1.111   .     S
C620   H1022   1.110   1_554 S
C621   C622    1.534   .     S
C621   O1101   1.413   .     S
C621   H1026   1.111   1_556 S
C621   H1027   1.109   1_556 S
C622   H1029   1.111   .     S
C622   H1028   1.112   .     S
C622   C623    1.525   .     S
C623   H1032   1.111   .     S
C623   H1030   1.109   .     S
C623   H1031   1.110   .     S
C624   H1035   1.115   .     S
C624   C625    1.528   .     S
C624   H1033   1.111   .     S
C624   O1102   1.410   .     S
C625   H1037   1.112   .     S
C625   C626    1.526   .     S
C625   H1036   1.112   .     S
C626   H1038   1.111   .     S
C626   H1039   1.110   .     S
C626   H1040   1.111   .     S
C627   H1041   1.112   .     S
C627   C628    1.528   .     S
C627   H1042   1.116   .     S
C627   O1103   1.410   .     S
C628   H1044   1.112   .     S
C628   H1043   1.112   .     S
C628   C630    1.526   .     S
C629   C714    1.401   .     A
C629   C722    1.418   .     A
C629   O1108   1.389   .     S
C630   H793    1.111   .     S
C630   H792    1.111   .     S
C630   H791    1.111   .     S
C631   H794    1.111   .     S
C631   O1104   1.413   .     S
C631   C1776   1.535   .     S
C631   H1939   1.108   .     S
C632   C633    1.525   .     S
C632   H797    1.111   .     S
C632   C1775   1.535   1_545 S
C632   H1940   1.112   1_545 S
C633   H799    1.110   .     S
C633   H798    1.109   .     S
C633   H800    1.111   .     S
C634   H802    1.111   .     S
C634   C635    1.535   .     S
C634   O1105   1.414   .     S
C634   H803    1.108   .     S
C635   C636    1.526   .     S
C635   H805    1.111   .     S
C635   H804    1.112   .     S
C636   H807    1.110   .     S
C636   H806    1.109   .     S
C636   H808    1.111   .     S
C637   H810    1.115   .     S
C637   H809    1.111   .     S
C637   O1106   1.410   .     S
C637   C638    1.528   .     S
C638   C639    1.526   .     S
C638   H813    1.112   .     S
C638   H811    1.112   .     S
C639   H816    1.111   .     S
C639   H814    1.111   .     S
C639   H815    1.110   .     S
C640   C715    1.399   .     A
C640   O1109   1.389   .     S
C640   C1868   1.416   .     S
C641   H817    1.112   .     S
C641   C642    1.528   .     S
C641   H818    1.116   .     S
C641   O1107   1.411   .     S
C642   H819    1.112   .     S
C642   C643    1.526   .     S
C642   H820    1.112   .     S
C643   H821    1.111   .     S
C643   H824    1.111   .     S
C643   H822    1.111   .     S
C644   H825    1.111   .     S
C644   O1108   1.414   .     S
C644   C1789   1.535   1_545 S
C644   H1970   1.108   1_545 S
C645   H828    1.111   .     S
C645   C646    1.525   .     S
C645   C1788   1.535   .     S
C645   H1971   1.112   .     S
C646   H830    1.110   .     S
C646   H831    1.111   .     S
C646   H829    1.109   .     S
C647   H833    1.109   .     S
C647   O1109   1.414   .     S
C647   C648    1.535   .     S
C647   H832    1.111   .     S
C648   C649    1.526   .     S
C648   H836    1.111   .     S
C648   H835    1.112   .     S
C649   H837    1.109   .     S
C649   H838    1.110   .     S
C649   H839    1.111   .     S
C650   H840    1.111   .     S
C650   C652    1.532   .     S
C650   H841    1.118   .     S
C650   O2254   1.420   .     S
C651   O1110   1.386   .     S
C651   C1733   1.416   1_545 S
C652   H843    1.109   .     S
C652   C653    1.526   .     S
C652   H1986   1.112   .     S
C653   H846    1.110   .     S
C653   H844    1.111   .     S
C653   H847    1.111   .     S
C654   O1112   1.414   .     S
C654   C655    1.528   .     S
C654   H849    1.113   .     S
C654   H1992   1.117   1_545 S
C655   H851    1.112   .     S
C655   H850    1.111   .     S
C655   C1800   1.526   1_545 S
C656   H852    1.111   .     S
C656   H854    1.111   .     S
C656   C1799   1.526   .     S
C656   H1997   1.110   .     S
C657   H855    1.115   .     S
C657   C658    1.527   .     S
C657   O1113   1.413   .     S
C657   H857    1.115   .     S
C658   H858    1.111   .     S
C658   H859    1.112   .     S
C658   C659    1.526   .     S
C659   H862    1.111   .     S
C659   H860    1.111   .     S
C659   H861    1.110   .     S
C660   H864    1.113   .     S
C660   C661    1.528   .     S
C660   O1114   1.413   .     S
C660   H863    1.114   .     S
C661   H866    1.112   .     S
C661   C663    1.526   .     S
C661   H865    1.111   .     S
C662   O1112   1.384   .     S
C662   C684    1.397   .     A
C663   H868    1.111   .     S
C663   H870    1.111   .     S
C663   H869    1.110   .     S
C664   H871    1.117   .     S
C664   C665    1.528   .     S
C664   H872    1.113   .     S
C664   O2259   1.415   1_545 S
C665   C666    1.527   .     S
C665   H873    1.112   .     S
C665   H2018   1.112   1_545 S
C666   H875    1.111   .     S
C666   H877    1.111   .     S
C666   H876    1.110   .     S
C667   H880    1.113   .     S
C667   O1116   1.414   .     S
C667   C668    1.528   .     S
C667   H2023   1.116   .     S
C668   H882    1.112   .     S
C668   H881    1.111   .     S
C668   C1813   1.526   .     S
C669   H885    1.110   .     S
C669   H883    1.111   .     S
C669   C1812   1.526   1_545 S
C669   H2028   1.110   1_545 S
C670   H886    1.111   .     S
C670   C671    1.530   .     S
C670   O1117   1.418   .     S
C670   H887    1.118   .     S
C671   H888    1.112   .     S
C671   H890    1.110   .     S
C671   C672    1.525   .     S
C672   H893    1.111   .     S
C672   H891    1.111   .     S
C672   H892    1.108   .     S
C673   O1113   1.383   .     S
C673   C712    1.398   .     A
C674   O1118   1.413   .     S
C674   H895    1.113   .     S
C674   H894    1.114   .     S
C674   C675    1.528   .     S
C675   H896    1.111   .     S
C675   H897    1.112   .     S
C675   C676    1.526   .     S
C676   H902    1.111   .     S
C676   H899    1.110   .     S
C676   H898    1.111   .     S
C677   H903    1.117   .     S
C677   O1119   1.414   .     S
C677   C678    1.528   .     S
C677   H904    1.113   .     S
C678   H906    1.112   .     S
C678   C679    1.526   .     S
C678   H905    1.111   .     S
C679   H908    1.110   .     S
C679   H909    1.110   .     S
C679   H907    1.111   .     S
C680   C681    1.528   .     S
C680   H911    1.113   .     S
C680   O1120   1.414   .     S
C680   H910    1.116   .     S
C681   H913    1.111   .     S
C681   C682    1.526   .     S
C681   H914    1.112   .     S
C682   H917    1.111   .     S
C682   H915    1.111   .     S
C682   H916    1.110   .     S
C683   H918    1.114   .     S
C683   H919    1.113   .     S
C683   C686    1.528   .     S
C683   O1121   1.413   .     S
C684   O1094   1.385   .     S
C684   C717    1.411   .     A
C685   C723    1.401   .     A
C685   O1114   1.385   .     S
C685   C20     1.403   1_655 S
C686   C687    1.526   .     S
C686   H921    1.112   .     S
C686   H920    1.112   .     S
C687   H924    1.110   .     S
C687   H922    1.111   .     S
C687   H925    1.111   .     S
C688   H927    1.115   .     S
C688   H926    1.114   .     S
C688   O1123   1.413   .     S
C688   C689    1.527   .     S
C689   H929    1.112   .     S
C689   H928    1.111   .     S
C689   C690    1.526   .     S
C690   H932    1.111   .     S
C690   H930    1.111   .     S
C690   H931    1.110   .     S
C691   H935    1.113   .     S
C691   H933    1.117   .     S
C691   C692    1.528   .     S
C691   O1124   1.414   .     S
C692   H936    1.111   .     S
C692   H937    1.112   .     S
C692   C693    1.526   .     S
C693   H938    1.111   .     S
C693   H940    1.110   .     S
C693   H939    1.110   .     S
C694   O1125   1.414   .     S
C694   H941    1.116   .     S
C694   H942    1.113   .     S
C694   C695    1.528   .     S
C695   H944    1.112   .     S
C695   C697    1.526   .     S
C695   H943    1.112   .     S
C696   C734    1.398   .     A
C696   O1115   1.384   .     S
C697   H947    1.110   .     S
C697   H946    1.111   .     S
C697   H948    1.111   .     S
C698   C699    1.528   .     S
C698   H950    1.113   .     S
C698   O1126   1.413   .     S
C698   H949    1.114   .     S
C699   H952    1.112   .     S
C699   C700    1.526   .     S
C699   H951    1.112   .     S
C700   H953    1.111   .     S
C700   H955    1.111   .     S
C700   H954    1.110   .     S
C701   H958    1.116   .     S
C701   C702    1.527   .     S
C701   H957    1.114   .     S
C701   O1127   1.412   .     S
C702   H960    1.112   .     S
C702   C703    1.526   .     S
C702   H959    1.111   .     S
C703   H961    1.111   .     S
C703   H962    1.110   .     S
C703   H963    1.111   .     S
C704   O1116   1.384   .     S
C704   C745    1.398   .     A
C704   C1734   1.412   .     S
C705   C756    1.397   .     A
C705   O1117   1.385   .     S
C706   C767    1.401   .     A
C706   O1118   1.385   .     S
C707   C778    1.398   .     A
C707   O1119   1.384   .     S
C708   O1120   1.385   .     S
C709   O1121   1.385   .     S
C710   O1123   1.383   .     S
C711   O1124   1.384   .     S
C712   O1095   1.389   .     S
C712   C718    1.415   .     A
C713   O1125   1.385   .     S
C713   C22     1.413   1_655 A
C714   O1126   1.385   .     S
C714   C1739   1.403   1_545 S
C715   O1127   1.383   .     S
C715   C1741   1.412   .     S
C716   C717    1.469   1_554 S
C716   C1878   1.413   1_545 S
C717   C716    1.469   1_556 S
C717   C1889   1.414   1_545 S
C718   C719    1.475   1_554 S
C719   C767    1.418   .     A
C719   C718    1.475   1_556 S
C720   C778    1.409   .     A
C720   C35     1.409   1_655 S
C720   C149    1.469   1_655 S
C722   C724    1.476   .     S
C722   C1729   1.418   1_545 S
C723   O1096   1.389   .     S
C723   C147    1.418   1_655 S
C724   C1784   1.416   1_545 S
C725   O1128   1.283   .     A
C725   O2233   1.284   1_545 S
C726   O1046   1.277   .     A
C726   O2244   1.277   .     S
C727   O1111   1.282   .     S
C728   O1048   1.282   .     S
C729   O1049   1.278   .     S
C729   O1053   1.278   .     S
C730   O478    1.283   1_655 A
C730   O482    1.284   1_655 A
C731   O1055   1.280   .     A
C731   O1051   1.282   .     A
C732   O2196   1.281   .     S
C732   O2201   1.284   .     S
C733   O1058   1.279   .     A
C733   C788    1.453   .     S
C733   O1086   1.279   .     A
C734   O1097   1.389   .     S
C734   C1860   1.413   .     S
C735   O1087   1.279   .     A
C735   O1059   1.280   .     A
C736   O1060   1.279   .     A
C736   O1084   1.279   .     A
C737   O1061   1.279   .     A
C737   O1085   1.279   .     A
C738   O1091   1.279   .     A
C738   O1062   1.280   .     A
C739   O1092   1.279   .     A
C739   O1063   1.279   .     A
C740   C786    1.453   .     S
C740   O1064   1.280   .     A
C740   O1088   1.280   .     A
C741   O1065   1.280   .     A
C741   O1090   1.280   .     A
C741   C787    1.453   .     S
C742   O1066   1.279   .     A
C742   O1077   1.279   .     A
C743   O1068   1.279   .     A
C743   O1079   1.279   .     A
C744   O1069   1.279   .     A
C744   O1075   1.280   .     A
C745   O1098   1.388   .     S
C745   C1861   1.414   .     S
C746   O1070   1.279   .     A
C746   O1076   1.280   .     A
C747   O1082   1.279   .     A
C747   O1071   1.280   .     A
C748   O1083   1.280   .     A
C748   O1072   1.280   .     A
C749   O1073   1.279   .     A
C749   O1080   1.279   .     A
C750   O1081   1.279   .     A
C750   O1074   1.280   .     A
C751   C768    1.385   .     A
C751   H789    1.083   .     S
C752   C766    1.385   .     A
C752   H900    1.083   .     S
C753   H968    1.082   .     S
C753   C765    1.385   .     A
C754   C764    1.385   .     A
C754   H979    1.083   .     S
C755   H990    1.083   .     S
C755   C763    1.385   .     A
C756   O1099   1.389   .     S
C756   C146    1.416   1_655 S
C757   C762    1.385   .     A
C757   H1001   1.083   .     S
C758   C761    1.386   .     A
C758   H1012   1.083   .     S
C759   H1023   1.083   .     S
C759   C760    1.385   .     A
C760   H1034   1.083   .     S
C761   H790    1.083   .     S
C762   H801    1.083   .     S
C763   H812    1.083   .     S
C764   H823    1.083   .     S
C765   H834    1.083   .     S
C765   C788    1.401   .     A
C766   H845    1.083   .     S
C766   C787    1.401   .     A
C767   O1101   1.388   .     S
C768   H856    1.083   .     S
C768   C786    1.401   .     A
C769   H867    1.083   .     S
C769   C785    1.385   .     A
C769   C787    1.401   .     A
C770   C786    1.401   .     A
C770   C784    1.385   .     A
C770   H878    1.083   .     S
C771   H889    1.083   .     S
C771   C783    1.385   .     A
C772   C788    1.402   .     A
C772   C782    1.385   .     A
C772   H901    1.083   .     S
C773   C781    1.385   .     A
C773   H912    1.083   .     S
C774   C780    1.385   .     A
C774   H923    1.083   .     S
C775   H934    1.083   .     S
C775   C779    1.385   .     A
C776   C777    1.385   .     A
C776   H945    1.083   .     S
C777   H956    1.083   .     S
C778   O1102   1.385   .     S
C779   H964    1.083   .     S
C780   H965    1.082   .     S
C781   H966    1.083   .     S
C782   H967    1.083   .     S
C783   H969    1.083   .     S
C784   H970    1.082   .     S
C785   H971    1.083   .     S
H795   C1775   1.108   1_545 S
H796   C1776   1.112   .     S
H826   C1788   1.108   .     S
H827   C1789   1.112   1_545 S
H842   C1796   1.112   1_545 S
H848   C1798   1.117   .     S
H853   C1800   1.110   1_545 S
H874   C1809   1.112   .     S
H879   C1811   1.116   1_545 S
H884   C1813   1.110   .     S
H972   C598    1.111   1_556 S
H974   C599    1.112   1_556 S
H977   C600    1.111   1_556 S
H978   C600    1.111   1_556 S
H980   C601    1.111   1_554 S
H983   C602    1.112   1_556 S
H984   C603    1.111   1_556 S
H987   C604    1.111   1_556 S
H988   C604    1.109   1_556 S
H995   C608    1.111   1_554 S
H996   C608    1.108   1_554 S
H1003  C611    1.111   1_556 S
H1004  C611    1.108   1_556 S
H1010  C614    1.111   1_554 S
H1011  C614    1.109   1_554 S
H1018  C617    1.111   1_556 S
H1019  C617    1.108   1_556 S
H1022  C620    1.110   1_556 S
H1026  C621    1.111   1_554 S
H1027  C621    1.109   1_554 S
O1045  Zn1140  1.945   .     S
O1045  Zn1132  1.944   .     S
O1045  Zn1129  1.945   .     S
O1045  Zn2280  1.945   1_545 S
O1046  Zn1131  1.944   .     S
O1047  Zn1134  1.944   .     S
O1047  C155    1.282   1_655 A
O1048  Zn1133  1.944   .     S
O1049  Zn1143  1.944   .     S
O1050  Zn1142  1.944   .     S
O1051  Zn1137  1.944   .     S
O1052  Zn1129  1.944   .     S
O1052  C1876   1.281   1_545 S
O1053  Zn1139  1.944   .     S
O1054  Zn1138  1.944   .     S
O1055  Zn1141  1.944   .     S
O1056  Zn1135  1.945   .     S
O1056  Zn1137  1.945   .     S
O1056  Zn1141  1.945   .     S
O1056  Zn2275  1.944   1_545 S
O1057  Zn1140  1.944   .     S
O1057  C1876   1.284   1_545 S
O1058  Zn1132  1.934   .     S
O1059  Zn1131  1.934   .     S
O1060  Zn1134  1.933   .     S
O1061  Zn1133  1.933   .     S
O1062  Zn1136  1.934   .     S
O1063  Zn1135  1.934   .     S
O1064  Zn1130  1.933   .     S
O1065  Zn1144  1.933   .     S
O1066  Zn1131  1.933   .     S
O1067  Zn1138  1.944   .     S
O1067  Zn1142  1.945   .     S
O1067  Zn1130  1.945   .     S
O1068  Zn1132  1.933   .     S
O1069  Zn1144  1.934   .     S
O1070  Zn1130  1.934   .     S
O1071  Zn1135  1.933   .     S
O1072  Zn1136  1.933   .     S
O1073  Zn1133  1.934   .     S
O1074  Zn1134  1.934   .     S
O1075  Zn567   1.934   1_655 S
O1076  Zn1138  1.934   .     S
O1077  Zn2285  1.933   .     S
O1078  Zn1139  1.944   .     S
O1078  Zn1143  1.945   .     S
O1078  Zn1133  1.945   .     S
O1079  Zn1140  1.933   .     S
O1080  Zn1143  1.934   .     S
O1081  Zn570   1.934   1_655 S
O1082  Zn1137  1.933   .     S
O1083  Zn2273  1.933   .     S
O1084  Zn566   1.933   1_655 S
O1085  Zn1139  1.933   .     S
O1086  Zn1129  1.934   .     S
O1087  Zn2281  1.934   .     S
O1088  Zn1142  1.933   .     S
O1089  Zn1136  1.944   .     S
O1089  C1869   1.284   .     S
O1090  Zn571   1.933   1_655 S
O1091  Zn2284  1.934   .     S
O1092  Zn1141  1.934   .     S
O1099  C45     1.415   1_655 S
O1100  Zn1135  1.944   .     S
O1100  C1870   1.277   1_545 S
O1110  C1794   1.420   1_545 S
O1111  Zn1130  1.944   .     S
O1115  C1808   1.415   .     S
O1122  C156    1.282   1_655 A
O1122  Zn1144  1.944   .     S
O1128  Zn1132  1.944   .     S
Zn1129 O2227   1.933   1_545 S
Zn1131 O2200   1.944   .     S
Zn1134 O495    1.945   1_655 S
Zn1136 O2189   1.945   .     S
Zn1137 O2231   1.934   1_545 S
Zn1140 O2235   1.934   1_545 S
Zn1141 O2221   1.933   1_545 S
Zn1144 O506    1.945   1_655 S
C1145  O1665   1.384   .     S
C1145  C1223   1.395   .     A
C1145  C1288   1.408   .     A
C1146  C1293   1.409   .     A
C1146  C1280   1.399   .     A
C1146  O1675   1.385   .     S
C1147  C1336   1.402   .     A
C1147  C1343   1.402   .     A
C1147  C1307   1.454   .     S
C1148  C1335   1.402   .     A
C1148  C1346   1.401   .     A
C1148  C1308   1.453   .     S
C1149  C1345   1.401   .     A
C1149  C1334   1.401   .     A
C1149  C1309   1.453   .     S
C1150  C1310   1.454   .     S
C1150  C1333   1.402   .     A
C1150  C1348   1.402   .     A
C1151  C1347   1.402   .     A
C1151  C1332   1.401   .     A
C1151  C1311   1.454   .     S
C1152  C1351   1.401   .     A
C1152  C1321   1.453   .     S
C1152  C1331   1.401   .     A
C1153  C1330   1.402   .     A
C1153  C1322   1.453   .     S
C1153  C1349   1.401   .     A
C1154  C1329   1.401   .     A
C1154  C1353   1.401   .     A
C1154  C1314   1.452   .     S
C1155  C1315   1.453   .     S
C1155  C1327   1.401   .     A
C1155  C1352   1.401   .     A
C1156  C1316   1.453   .     S
C1156  C1355   1.401   .     A
C1156  C1326   1.401   .     A
C1157  O1676   1.388   .     S
C1157  C1281   1.401   .     A
C1157  C150    1.418   1_565 S
C1158  C1325   1.401   .     A
C1158  C1318   1.453   .     S
C1158  C1354   1.401   .     A
C1159  C1357   1.401   .     A
C1159  C1319   1.453   .     S
C1159  C1324   1.401   .     A
C1160  C1323   1.401   .     A
C1160  C1356   1.401   .     A
C1160  C1320   1.453   .     S
C1161  C1304   1.474   .     S
C1161  C1268   1.413   .     A
C1161  C79     1.416   1_565 S
C1162  C1303   1.468   .     S
C1162  C1234   1.410   .     A
C1163  C1277   1.415   .     A
C1163  C1302   1.478   .     S
C1163  C1817   1.412   .     S
C1164  C1278   1.403   .     A
C1164  C1301   1.457   .     S
C1164  C1829   1.403   1_455 S
C1165  C1279   1.413   .     A
C1165  C1872   1.471   .     S
C1165  C1855   1.413   .     S
C1166  C1299   1.471   .     S
C1166  C1857   1.413   1_455 A
C1166  C1280   1.413   .     S
C1167  C1298   1.455   .     S
C1167  C1281   1.402   .     A
C1167  C142    1.403   1_565 S
C1168  O1677   1.389   .     S
C1168  C1296   1.416   .     A
C1168  C1282   1.399   .     A
C1169  C1297   1.478   .     S
C1169  C1282   1.412   .     A
C1170  H1545   1.116   .     S
C1170  C1171   1.528   .     S
C1170  O1665   1.410   .     S
C1170  H1544   1.111   1_554 S
C1171  H1547   1.112   .     S
C1171  C1172   1.526   .     S
C1171  H1546   1.112   1_554 S
C1172  H1548   1.111   .     S
C1172  H1549   1.111   1_554 S
C1172  H1550   1.111   1_554 S
C1173  H1553   1.116   .     S
C1173  O1666   1.410   .     S
C1173  C1174   1.528   1_556 S
C1173  H1552   1.111   1_556 S
C1174  C1175   1.526   .     S
C1174  H1554   1.112   .     S
C1174  C1173   1.528   1_554 S
C1174  H1555   1.112   1_554 S
C1175  H1558   1.111   .     S
C1175  H1557   1.110   .     S
C1175  H1556   1.111   1_554 S
C1176  C1177   1.535   .     S
C1176  H1559   1.111   1_554 S
C1176  H1560   1.109   1_554 S
C1176  O2239   1.414   .     S
C1177  H1561   1.112   .     S
C1177  H1563   1.111   .     S
C1177  C1178   1.526   .     S
C1178  H1564   1.109   .     S
C1178  H1565   1.111   .     S
C1178  H1566   1.111   .     S
C1179  O1678   1.385   .     S
C1179  C1283   1.398   .     A
C1179  C1864   1.409   1_455 S
C1180  O1668   1.414   .     S
C1180  C1181   1.535   .     S
C1180  H1567   1.111   1_556 S
C1180  H1568   1.108   1_556 S
C1181  C1182   1.525   .     S
C1181  H1570   1.111   .     S
C1181  H1569   1.112   .     S
C1182  H1572   1.110   .     S
C1182  H1571   1.109   .     S
C1182  H1574   1.111   .     S
C1183  C1184   1.536   .     S
C1183  O1669   1.415   .     S
C1183  H1575   1.111   1_554 S
C1183  H1576   1.108   1_554 S
C1184  H1577   1.111   .     S
C1184  H1578   1.111   .     S
C1184  C1185   1.526   .     S
C1185  H1581   1.111   .     S
C1185  H1579   1.110   .     S
C1185  H1580   1.110   .     S
C1186  O1670   1.414   .     S
C1186  C1187   1.533   .     S
C1186  H1582   1.111   1_556 S
C1186  H1583   1.109   1_556 S
C1187  C1188   1.526   .     S
C1187  H1586   1.111   .     S
C1187  H1585   1.112   .     S
C1188  H1589   1.111   .     S
C1188  H1588   1.110   .     S
C1188  H1587   1.110   .     S
C1189  C1191   1.537   .     S
C1189  H1590   1.111   1_554 S
C1189  H1591   1.108   1_554 S
C1189  O2243   1.415   1_455 S
C1190  C1285   1.400   .     A
C1190  O1679   1.385   .     S
C1190  C1865   1.407   .     S
C1191  C1192   1.526   .     S
C1191  H1593   1.111   .     S
C1191  H1592   1.111   .     S
C1192  H1596   1.110   .     S
C1192  H1597   1.111   .     S
C1192  H1594   1.110   1_554 S
C1193  C1194   1.534   .     S
C1193  O1673   1.413   .     S
C1193  H1598   1.111   1_556 S
C1193  H1599   1.109   1_556 S
C1194  H1601   1.111   .     S
C1194  H1600   1.112   .     S
C1194  C1195   1.525   .     S
C1195  H1604   1.111   .     S
C1195  H1602   1.109   .     S
C1195  H1603   1.110   .     S
C1196  H1607   1.115   .     S
C1196  C1197   1.528   .     S
C1196  H1605   1.111   .     S
C1196  O1674   1.410   .     S
C1197  H1609   1.112   .     S
C1197  C1198   1.526   .     S
C1197  H1608   1.112   .     S
C1198  H1610   1.111   .     S
C1198  H1611   1.110   .     S
C1198  H1612   1.111   .     S
C1199  H1613   1.112   .     S
C1199  C1200   1.528   .     S
C1199  H1614   1.116   .     S
C1199  O1675   1.410   .     S
C1200  H1616   1.112   .     S
C1200  H1615   1.112   .     S
C1200  C1202   1.526   .     S
C1201  C1286   1.401   .     A
C1201  C1294   1.418   .     A
C1201  O1680   1.389   .     S
C1202  H1365   1.111   .     S
C1202  H1364   1.111   .     S
C1202  H1363   1.111   .     S
C1203  H1366   1.111   .     S
C1203  O1676   1.413   .     S
C1203  C60     1.535   1_565 S
C1203  H223    1.108   1_565 S
C1204  C1205   1.525   .     S
C1204  H1369   1.111   .     S
C1205  H1371   1.110   .     S
C1205  H1370   1.109   .     S
C1205  H1372   1.111   .     S
C1206  H1374   1.111   .     S
C1206  C1207   1.535   .     S
C1206  O1677   1.414   .     S
C1206  H1375   1.108   .     S
C1207  C1208   1.526   .     S
C1207  H1377   1.111   .     S
C1207  H1376   1.112   .     S
C1208  H1379   1.110   .     S
C1208  H1378   1.109   .     S
C1208  H1380   1.111   .     S
C1209  H1382   1.115   .     S
C1209  H1381   1.111   .     S
C1209  O1678   1.410   .     S
C1209  C1210   1.528   .     S
C1210  C1211   1.526   .     S
C1210  H1385   1.112   .     S
C1210  H1383   1.112   .     S
C1211  H1388   1.111   .     S
C1211  H1386   1.111   .     S
C1211  H1387   1.110   .     S
C1212  C1287   1.399   .     A
C1212  O1681   1.389   .     S
C1212  C152    1.416   1_565 S
C1213  H1389   1.112   .     S
C1213  C1214   1.528   .     S
C1213  H1390   1.116   .     S
C1213  O1679   1.411   .     S
C1214  H1391   1.112   .     S
C1214  C1215   1.526   .     S
C1214  H1392   1.112   .     S
C1215  H1393   1.111   .     S
C1215  H1396   1.111   .     S
C1215  H1394   1.111   .     S
C1216  H1397   1.111   .     S
C1216  O1680   1.414   .     S
C1217  H1400   1.111   .     S
C1217  C1218   1.525   .     S
C1217  C72     1.535   1_565 S
C1217  H255    1.112   1_565 S
C1218  H1402   1.110   .     S
C1218  H1403   1.111   .     S
C1218  H1401   1.109   .     S
C1219  H1405   1.109   .     S
C1219  O1681   1.414   .     S
C1219  C1220   1.535   .     S
C1219  H1404   1.111   .     S
C1220  C1221   1.526   .     S
C1220  H1408   1.111   .     S
C1220  H1407   1.112   .     S
C1221  H1409   1.109   .     S
C1221  H1410   1.110   .     S
C1221  H1411   1.111   .     S
C1222  H1412   1.111   .     S
C1222  C1224   1.532   .     S
C1222  H1413   1.118   .     S
C1222  O538    1.420   1_565 S
C1223  O1682   1.386   .     S
C1224  H1415   1.109   .     S
C1224  C1225   1.526   .     S
C1224  H270    1.112   1_565 S
C1225  H1418   1.110   .     S
C1225  H1416   1.111   .     S
C1225  H1419   1.111   .     S
C1226  O1684   1.414   .     S
C1226  C1227   1.528   .     S
C1226  H1421   1.113   .     S
C1227  H1423   1.112   .     S
C1227  H1422   1.111   .     S
C1228  H1424   1.111   .     S
C1228  H1426   1.111   .     S
C1228  C83     1.526   1_565 S
C1228  H281    1.110   1_565 S
C1229  H1427   1.115   .     S
C1229  C1230   1.527   .     S
C1229  O1685   1.413   .     S
C1229  H1429   1.115   .     S
C1230  H1430   1.111   .     S
C1230  H1431   1.112   .     S
C1230  C1231   1.526   .     S
C1231  H1434   1.111   .     S
C1231  H1432   1.111   .     S
C1231  H1433   1.110   .     S
C1232  H1436   1.113   .     S
C1232  C1233   1.528   .     S
C1232  O1686   1.413   .     S
C1232  H1435   1.114   .     S
C1233  H1438   1.112   .     S
C1233  C1235   1.526   .     S
C1233  H1437   1.111   .     S
C1234  O1684   1.384   .     S
C1234  C1256   1.397   .     A
C1235  H1440   1.111   .     S
C1235  H1442   1.111   .     S
C1235  H1441   1.110   .     S
C1236  H1443   1.117   .     S
C1236  C1237   1.528   .     S
C1236  H1444   1.113   .     S
C1237  C1238   1.527   .     S
C1237  H1445   1.112   .     S
C1238  H1447   1.111   .     S
C1238  H1449   1.111   .     S
C1238  H1448   1.110   .     S
C1239  H1452   1.113   .     S
C1239  O1688   1.414   .     S
C1239  C1240   1.528   .     S
C1239  H307    1.116   1_565 S
C1240  H1454   1.112   .     S
C1240  H1453   1.111   .     S
C1240  C97     1.526   1_565 S
C1241  H1457   1.110   .     S
C1241  H1455   1.111   .     S
C1242  H1458   1.111   .     S
C1242  C1243   1.530   .     S
C1242  O1689   1.418   .     S
C1242  H1459   1.118   .     S
C1243  H1460   1.112   .     S
C1243  H1462   1.110   .     S
C1243  C1244   1.525   .     S
C1244  H1465   1.111   .     S
C1244  H1463   1.111   .     S
C1244  H1464   1.108   .     S
C1245  O1685   1.383   .     S
C1245  C1284   1.398   .     A
C1245  C1735   1.412   1_455 S
C1246  O1690   1.413   .     S
C1246  H1467   1.113   .     S
C1246  H1466   1.114   .     S
C1246  C1247   1.528   .     S
C1247  H1468   1.111   .     S
C1247  H1469   1.112   .     S
C1247  C1248   1.526   .     S
C1248  H1474   1.111   .     S
C1248  H1471   1.110   .     S
C1248  H1470   1.111   .     S
C1249  H1475   1.117   .     S
C1249  O1691   1.414   .     S
C1249  C1250   1.528   .     S
C1249  H1476   1.113   .     S
C1250  H1478   1.112   .     S
C1250  C1251   1.526   .     S
C1250  H1477   1.111   .     S
C1251  H1480   1.110   .     S
C1251  H1481   1.110   .     S
C1251  H1479   1.111   .     S
C1252  C1253   1.528   .     S
C1252  H1483   1.113   .     S
C1252  O1692   1.414   .     S
C1252  H1482   1.116   .     S
C1253  H1485   1.111   .     S
C1253  C1254   1.526   .     S
C1253  H1486   1.112   .     S
C1254  H1489   1.111   .     S
C1254  H1487   1.111   .     S
C1254  H1488   1.110   .     S
C1255  H1490   1.114   .     S
C1255  H1491   1.113   .     S
C1255  C1258   1.528   .     S
C1255  O1693   1.413   .     S
C1256  O1666   1.385   .     S
C1256  C1289   1.411   .     A
C1257  C1295   1.401   .     A
C1257  O1686   1.385   .     S
C1257  C1736   1.403   .     S
C1258  C1259   1.526   .     S
C1258  H1493   1.112   .     S
C1258  H1492   1.112   .     S
C1259  H1496   1.110   .     S
C1259  H1494   1.111   .     S
C1259  H1497   1.111   .     S
C1260  H1499   1.115   .     S
C1260  H1498   1.114   .     S
C1260  O1695   1.413   .     S
C1260  C1261   1.527   .     S
C1261  H1501   1.112   .     S
C1261  H1500   1.111   .     S
C1261  C1262   1.526   .     S
C1262  H1504   1.111   .     S
C1262  H1502   1.111   .     S
C1262  H1503   1.110   .     S
C1263  H1507   1.113   .     S
C1263  H1505   1.117   .     S
C1263  C1264   1.528   .     S
C1263  O1696   1.414   .     S
C1264  H1508   1.111   .     S
C1264  H1509   1.112   .     S
C1264  C1265   1.526   .     S
C1265  H1510   1.111   .     S
C1265  H1512   1.110   .     S
C1265  H1511   1.110   .     S
C1266  O1697   1.414   .     S
C1266  H1513   1.116   .     S
C1266  H1514   1.113   .     S
C1266  C1267   1.528   .     S
C1267  H1516   1.112   .     S
C1267  C1269   1.526   .     S
C1267  H1515   1.112   .     S
C1268  C1306   1.398   .     A
C1268  O1687   1.384   .     S
C1269  H1519   1.110   .     S
C1269  H1518   1.111   .     S
C1269  H1520   1.111   .     S
C1270  C1271   1.528   .     S
C1270  H1522   1.113   .     S
C1270  O1698   1.413   .     S
C1270  H1521   1.114   .     S
C1271  H1524   1.112   .     S
C1271  C1272   1.526   .     S
C1271  H1523   1.112   .     S
C1272  H1525   1.111   .     S
C1272  H1527   1.111   .     S
C1272  H1526   1.110   .     S
C1273  H1530   1.116   .     S
C1273  C1274   1.527   .     S
C1273  H1529   1.114   .     S
C1273  O1699   1.412   .     S
C1274  H1532   1.112   .     S
C1274  C1275   1.526   .     S
C1274  H1531   1.111   .     S
C1275  H1533   1.111   .     S
C1275  H1534   1.110   .     S
C1275  H1535   1.111   .     S
C1276  O1688   1.384   .     S
C1276  C1317   1.398   .     A
C1276  C18     1.412   1_565 S
C1277  C1328   1.397   .     A
C1277  O1689   1.385   .     S
C1278  C1339   1.401   .     A
C1278  O1690   1.385   .     S
C1279  C1350   1.398   .     A
C1279  O1691   1.384   .     S
C1280  O1692   1.385   .     S
C1281  O1693   1.385   .     S
C1282  O1695   1.383   .     S
C1283  O1696   1.384   .     S
C1283  C1737   1.413   1_455 S
C1284  O1667   1.389   .     S
C1284  C1290   1.415   .     A
C1285  O1697   1.385   .     S
C1285  C1738   1.413   .     A
C1286  O1698   1.385   .     S
C1287  O1699   1.383   .     S
C1287  C25     1.412   1_565 S
C1288  C1289   1.469   1_554 S
C1289  C1288   1.469   1_556 S
C1290  C1291   1.475   1_554 S
C1290  C1900   1.416   1_455 S
C1291  C1339   1.418   .     A
C1291  C1290   1.475   1_556 S
C1291  C1867   1.418   1_455 S
C1292  C1350   1.409   .     A
C1292  C1751   1.409   .     S
C1292  C1865   1.469   .     S
C1293  C1762   1.407   1_455 S
C1293  C1864   1.469   1_455 S
C1294  C1296   1.476   .     S
C1295  O1668   1.389   .     S
C1295  C1863   1.418   .     S
C1297  O1700   1.283   .     A
C1298  O1618   1.277   .     A
C1298  O528    1.277   1_565 S
C1299  O2191   1.282   1_455 A
C1299  O1683   1.282   .     S
C1300  O2266   1.282   1_455 A
C1300  C1737   1.471   1_455 S
C1300  O1620   1.282   .     S
C1301  O1621   1.278   .     S
C1301  O1625   1.278   .     S
C1302  O2194   1.283   .     A
C1302  O2198   1.284   .     A
C1303  O1627   1.280   .     A
C1303  O1623   1.282   .     A
C1304  O480    1.281   1_565 S
C1304  O485    1.284   1_565 S
C1305  O1630   1.279   .     A
C1305  C1360   1.453   .     S
C1305  O1658   1.279   .     A
C1306  O1669   1.389   .     S
C1306  C144    1.413   1_565 S
C1307  O1659   1.279   .     A
C1307  O1631   1.280   .     A
C1308  O1632   1.279   .     A
C1308  O1656   1.279   .     A
C1309  O1633   1.279   .     A
C1309  O1657   1.279   .     A
C1310  O1663   1.279   .     A
C1310  O1634   1.280   .     A
C1311  O1664   1.279   .     A
C1311  O1635   1.279   .     A
C1312  C1358   1.453   .     S
C1312  O1636   1.280   .     A
C1312  O1660   1.280   .     A
C1313  O1637   1.280   .     A
C1313  O1662   1.280   .     A
C1313  C1359   1.453   .     S
C1314  O1638   1.279   .     A
C1314  O1649   1.279   .     A
C1315  O1640   1.279   .     A
C1315  O1651   1.279   .     A
C1316  O1641   1.279   .     A
C1316  O1647   1.280   .     A
C1317  O1670   1.388   .     S
C1317  C145    1.414   1_565 S
C1318  O1642   1.279   .     A
C1318  O1648   1.280   .     A
C1319  O1654   1.279   .     A
C1319  O1643   1.280   .     A
C1320  O1655   1.280   .     A
C1320  O1644   1.280   .     A
C1321  O1645   1.279   .     A
C1321  O1652   1.279   .     A
C1322  O1653   1.279   .     A
C1322  O1646   1.280   .     A
C1323  C1340   1.385   .     A
C1323  H1361   1.083   .     S
C1324  C1338   1.385   .     A
C1324  H1472   1.083   .     S
C1325  H1540   1.082   .     S
C1325  C1337   1.385   .     A
C1326  C1336   1.385   .     A
C1326  H1551   1.083   .     S
C1327  H1562   1.083   .     S
C1327  C1335   1.385   .     A
C1328  O1671   1.389   .     S
C1328  C1862   1.416   .     S
C1329  C1334   1.385   .     A
C1329  H1573   1.083   .     S
C1330  C1333   1.386   .     A
C1330  H1584   1.083   .     S
C1331  H1595   1.083   .     S
C1331  C1332   1.385   .     A
C1332  H1606   1.083   .     S
C1333  H1362   1.083   .     S
C1334  H1373   1.083   .     S
C1335  H1384   1.083   .     S
C1336  H1395   1.083   .     S
C1337  H1406   1.083   .     S
C1337  C1360   1.401   .     A
C1338  H1417   1.083   .     S
C1338  C1359   1.401   .     A
C1339  O1673   1.388   .     S
C1340  H1428   1.083   .     S
C1340  C1358   1.401   .     A
C1341  H1439   1.083   .     S
C1341  C1357   1.385   .     A
C1341  C1359   1.401   .     A
C1342  C1358   1.401   .     A
C1342  C1356   1.385   .     A
C1342  H1450   1.083   .     S
C1343  H1461   1.083   .     S
C1343  C1355   1.385   .     A
C1344  C1360   1.402   .     A
C1344  C1354   1.385   .     A
C1344  H1473   1.083   .     S
C1345  C1353   1.385   .     A
C1345  H1484   1.083   .     S
C1346  C1352   1.385   .     A
C1346  H1495   1.083   .     S
C1347  H1506   1.083   .     S
C1347  C1351   1.385   .     A
C1348  C1349   1.385   .     A
C1348  H1517   1.083   .     S
C1349  H1528   1.083   .     S
C1350  O1674   1.385   .     S
C1351  H1536   1.083   .     S
C1352  H1537   1.082   .     S
C1353  H1538   1.083   .     S
C1354  H1539   1.083   .     S
C1355  H1541   1.083   .     S
C1356  H1542   1.082   .     S
C1357  H1543   1.083   .     S
H1368  C60     1.112   1_565 S
H1398  C72     1.108   1_565 S
H1420  C82     1.117   1_565 S
H1446  C93     1.112   1_565 S
H1456  C97     1.110   1_565 S
H1544  C1170   1.111   1_556 S
H1546  C1171   1.112   1_556 S
H1549  C1172   1.111   1_556 S
H1550  C1172   1.111   1_556 S
H1552  C1173   1.111   1_554 S
H1555  C1174   1.112   1_556 S
H1556  C1175   1.111   1_556 S
H1559  C1176   1.111   1_556 S
H1560  C1176   1.109   1_556 S
H1567  C1180   1.111   1_554 S
H1568  C1180   1.108   1_554 S
H1575  C1183   1.111   1_556 S
H1576  C1183   1.108   1_556 S
H1582  C1186   1.111   1_554 S
H1583  C1186   1.109   1_554 S
H1590  C1189   1.111   1_556 S
H1591  C1189   1.108   1_556 S
H1594  C1192   1.110   1_556 S
H1598  C1193   1.111   1_554 S
H1599  C1193   1.109   1_554 S
O1617  Zn1712  1.945   .     S
O1617  Zn1704  1.944   .     S
O1617  Zn1701  1.945   .     S
O1618  Zn1703  1.944   .     S
O1619  Zn1706  1.944   .     S
O1619  C1871   1.282   .     A
O1620  Zn1705  1.944   .     S
O1621  Zn1715  1.944   .     S
O1622  C1874   1.283   1_455 A
O1622  Zn1714  1.944   .     S
O1623  Zn1709  1.944   .     S
O1624  Zn1701  1.944   .     S
O1625  Zn1711  1.944   .     S
O1626  C1874   1.284   1_455 A
O1626  Zn1710  1.944   .     S
O1627  Zn1713  1.944   .     S
O1628  Zn1707  1.945   .     S
O1628  Zn1709  1.945   .     S
O1628  Zn1713  1.945   .     S
O1629  Zn1712  1.944   .     S
O1630  Zn1704  1.934   .     S
O1631  Zn1703  1.934   .     S
O1632  Zn1706  1.933   .     S
O1633  Zn1705  1.933   .     S
O1634  Zn1708  1.934   .     S
O1635  Zn1707  1.934   .     S
O1636  Zn1702  1.933   .     S
O1637  Zn1716  1.933   .     S
O1638  Zn1703  1.933   .     S
O1639  Zn2278  1.945   1_455 S
O1639  Zn1710  1.944   .     S
O1639  Zn1714  1.945   .     S
O1639  Zn1702  1.945   .     S
O1640  Zn1704  1.933   .     S
O1641  Zn1716  1.934   .     S
O1642  Zn1702  1.934   .     S
O1643  Zn1707  1.933   .     S
O1644  Zn1708  1.933   .     S
O1645  Zn1705  1.934   .     S
O1646  Zn1706  1.934   .     S
O1647  Zn2283  1.934   .     S
O1648  Zn1710  1.934   .     S
O1649  Zn569   1.933   1_565 S
O1650  Zn1711  1.944   .     S
O1650  Zn1715  1.945   .     S
O1650  Zn2288  1.945   1_455 S
O1650  Zn1705  1.945   .     S
O1651  Zn1712  1.933   .     S
O1652  Zn1715  1.934   .     S
O1653  Zn2286  1.934   .     S
O1654  Zn1709  1.933   .     S
O1655  Zn557   1.933   1_565 S
O1656  Zn2282  1.933   .     S
O1657  Zn1711  1.933   .     S
O1658  Zn1701  1.934   .     S
O1659  Zn565   1.934   1_565 S
O1660  Zn1714  1.933   .     S
O1661  Zn1708  1.944   .     S
O1661  C153    1.284   1_565 S
O1662  Zn2287  1.933   .     S
O1663  Zn568   1.934   1_565 S
O1664  Zn1713  1.934   .     S
O1667  C1748   1.414   1_455 S
O1671  C1761   1.415   .     S
O1672  Zn1707  1.944   .     S
O1683  Zn1702  1.944   .     S
O1687  C92     1.415   1_565 S
O1694  C1872   1.282   .     A
O1694  Zn1716  1.944   .     S
O1700  Zn1704  1.944   .     S
Zn1703 O484    1.944   1_565 S
Zn1706 O2211   1.945   .     S
Zn1708 O473    1.945   1_565 S
Zn1710 O2228   1.933   1_455 S
Zn1711 O2219   1.934   1_455 S
Zn1714 O2225   1.934   1_455 S
Zn1715 O2234   1.933   1_455 S
Zn1716 O2222   1.945   .     S
C1717  O2237   1.384   .     S
C1717  C1795   1.395   .     A
C1717  C1860   1.408   .     A
C1718  C1865   1.409   .     A
C1718  C1852   1.399   .     A
C1718  O2247   1.385   .     S
C1719  C1908   1.402   .     A
C1719  C1915   1.402   .     A
C1719  C1879   1.454   .     S
C1720  C1907   1.402   .     A
C1720  C1918   1.401   .     A
C1720  C1880   1.453   .     S
C1721  C1917   1.401   .     A
C1721  C1906   1.401   .     A
C1721  C1881   1.453   .     S
C1722  C1882   1.454   .     S
C1722  C1905   1.402   .     A
C1722  C1920   1.402   .     A
C1723  C1919   1.402   .     A
C1723  C1904   1.401   .     A
C1723  C1883   1.454   .     S
C1724  C1923   1.401   .     A
C1724  C1893   1.453   .     S
C1724  C1903   1.401   .     A
C1725  C1902   1.402   .     A
C1725  C1894   1.453   .     S
C1725  C1921   1.401   .     A
C1726  C1901   1.401   .     A
C1726  C1925   1.401   .     A
C1726  C1886   1.452   .     S
C1727  C1887   1.453   .     S
C1727  C1899   1.401   .     A
C1727  C1924   1.401   .     A
C1728  C1888   1.453   .     S
C1728  C1927   1.401   .     A
C1728  C1898   1.401   .     A
C1729  O2248   1.388   .     S
C1729  C1853   1.401   .     A
C1729  C722    1.418   1_565 S
C1730  C1897   1.401   .     A
C1730  C1890   1.453   .     S
C1730  C1926   1.401   .     A
C1731  C1929   1.401   .     A
C1731  C1891   1.453   .     S
C1731  C1896   1.401   .     A
C1732  C1895   1.401   .     A
C1732  C1928   1.401   .     A
C1732  C1892   1.453   .     S
C1733  C1876   1.474   .     S
C1733  C1840   1.413   .     A
C1733  C651    1.416   1_565 S
C1734  C1875   1.468   .     S
C1734  C1806   1.410   .     A
C1735  C1849   1.415   .     A
C1735  C1874   1.478   .     S
C1735  C1245   1.412   1_655 S
C1736  C1850   1.403   .     A
C1736  C1873   1.457   .     S
C1737  C1851   1.413   .     A
C1737  C1300   1.471   1_655 S
C1737  C1283   1.413   1_655 S
C1738  C1871   1.471   .     S
C1738  C1852   1.413   .     S
C1739  C1870   1.455   .     S
C1739  C1853   1.402   .     A
C1739  C714    1.403   1_565 S
C1740  O2249   1.389   .     S
C1740  C1868   1.416   .     A
C1740  C1854   1.399   .     A
C1741  C1869   1.478   .     S
C1741  C1854   1.412   .     A
C1742  H2117   1.116   .     S
C1742  C1743   1.528   .     S
C1742  O2237   1.410   .     S
C1742  H2116   1.111   1_554 S
C1743  H2119   1.112   .     S
C1743  C1744   1.526   .     S
C1743  H2118   1.112   1_554 S
C1744  H2120   1.111   .     S
C1744  H2121   1.111   1_554 S
C1744  H2122   1.111   1_554 S
C1745  H2125   1.116   .     S
C1745  O2238   1.410   .     S
C1745  C1746   1.528   1_556 S
C1745  H2124   1.111   1_556 S
C1746  C1747   1.526   .     S
C1746  H2126   1.112   .     S
C1746  C1745   1.528   1_554 S
C1746  H2127   1.112   1_554 S
C1747  H2130   1.111   .     S
C1747  H2129   1.110   .     S
C1747  H2128   1.111   1_554 S
C1748  C1749   1.535   .     S
C1748  H2131   1.111   1_554 S
C1748  H2132   1.109   1_554 S
C1748  O1667   1.414   1_655 S
C1749  H2133   1.112   .     S
C1749  H2135   1.111   .     S
C1749  C1750   1.526   .     S
C1750  H2136   1.109   .     S
C1750  H2137   1.111   .     S
C1750  H2138   1.111   .     S
C1751  O2250   1.385   .     S
C1751  C1855   1.398   .     A
C1752  O2240   1.414   .     S
C1752  C1753   1.535   .     S
C1752  H2139   1.111   1_556 S
C1752  H2140   1.108   1_556 S
C1753  C1754   1.525   .     S
C1753  H2142   1.111   .     S
C1753  H2141   1.112   .     S
C1754  H2144   1.110   .     S
C1754  H2143   1.109   .     S
C1754  H2146   1.111   .     S
C1755  C1756   1.536   .     S
C1755  O2241   1.415   .     S
C1755  H2147   1.111   1_554 S
C1755  H2148   1.108   1_554 S
C1756  H2149   1.111   .     S
C1756  H2150   1.111   .     S
C1756  C1757   1.526   .     S
C1757  H2153   1.111   .     S
C1757  H2151   1.110   .     S
C1757  H2152   1.110   .     S
C1758  O2242   1.414   .     S
C1758  C1759   1.533   .     S
C1758  H2154   1.111   1_556 S
C1758  H2155   1.109   1_556 S
C1759  C1760   1.526   .     S
C1759  H2158   1.111   .     S
C1759  H2157   1.112   .     S
C1760  H2161   1.111   .     S
C1760  H2160   1.110   .     S
C1760  H2159   1.110   .     S
C1761  C1763   1.537   .     S
C1761  H2162   1.111   1_554 S
C1761  H2163   1.108   1_554 S
C1762  C1857   1.400   .     A
C1762  O2251   1.385   .     S
C1762  C1293   1.407   1_655 S
C1763  C1764   1.526   .     S
C1763  H2165   1.111   .     S
C1763  H2164   1.111   .     S
C1764  H2168   1.110   .     S
C1764  H2169   1.111   .     S
C1764  H2166   1.110   1_554 S
C1765  C1766   1.534   .     S
C1765  O2245   1.413   .     S
C1765  H2170   1.111   1_556 S
C1765  H2171   1.109   1_556 S
C1766  H2173   1.111   .     S
C1766  H2172   1.112   .     S
C1766  C1767   1.525   .     S
C1767  H2176   1.111   .     S
C1767  H2174   1.109   .     S
C1767  H2175   1.110   .     S
C1768  H2179   1.115   .     S
C1768  C1769   1.528   .     S
C1768  H2177   1.111   .     S
C1768  O2246   1.410   .     S
C1769  H2181   1.112   .     S
C1769  C1770   1.526   .     S
C1769  H2180   1.112   .     S
C1770  H2182   1.111   .     S
C1770  H2183   1.110   .     S
C1770  H2184   1.111   .     S
C1771  H2185   1.112   .     S
C1771  C1772   1.528   .     S
C1771  H2186   1.116   .     S
C1771  O2247   1.410   .     S
C1772  H2188   1.112   .     S
C1772  H2187   1.112   .     S
C1772  C1774   1.526   .     S
C1773  C1858   1.401   .     A
C1773  C1866   1.418   .     A
C1773  O2252   1.389   .     S
C1774  H1937   1.111   .     S
C1774  H1936   1.111   .     S
C1774  H1935   1.111   .     S
C1775  H1938   1.111   .     S
C1775  O2248   1.413   .     S
C1775  C632    1.535   1_565 S
C1775  H795    1.108   1_565 S
C1776  C1777   1.525   .     S
C1776  H1941   1.111   .     S
C1777  H1943   1.110   .     S
C1777  H1942   1.109   .     S
C1777  H1944   1.111   .     S
C1778  H1946   1.111   .     S
C1778  C1779   1.535   .     S
C1778  O2249   1.414   .     S
C1778  H1947   1.108   .     S
C1779  C1780   1.526   .     S
C1779  H1949   1.111   .     S
C1779  H1948   1.112   .     S
C1780  H1951   1.110   .     S
C1780  H1950   1.109   .     S
C1780  H1952   1.111   .     S
C1781  H1954   1.115   .     S
C1781  H1953   1.111   .     S
C1781  O2250   1.410   .     S
C1781  C1782   1.528   .     S
C1782  C1783   1.526   .     S
C1782  H1957   1.112   .     S
C1782  H1955   1.112   .     S
C1783  H1960   1.111   .     S
C1783  H1958   1.111   .     S
C1783  H1959   1.110   .     S
C1784  C1859   1.399   .     A
C1784  O2253   1.389   .     S
C1784  C724    1.416   1_565 S
C1785  H1961   1.112   .     S
C1785  C1786   1.528   .     S
C1785  H1962   1.116   .     S
C1785  O2251   1.411   .     S
C1786  H1963   1.112   .     S
C1786  C1787   1.526   .     S
C1786  H1964   1.112   .     S
C1787  H1965   1.111   .     S
C1787  H1968   1.111   .     S
C1787  H1966   1.111   .     S
C1788  H1969   1.111   .     S
C1788  O2252   1.414   .     S
C1789  H1972   1.111   .     S
C1789  C1790   1.525   .     S
C1789  C644    1.535   1_565 S
C1789  H827    1.112   1_565 S
C1790  H1974   1.110   .     S
C1790  H1975   1.111   .     S
C1790  H1973   1.109   .     S
C1791  H1977   1.109   .     S
C1791  O2253   1.414   .     S
C1791  C1792   1.535   .     S
C1791  H1976   1.111   .     S
C1792  C1793   1.526   .     S
C1792  H1980   1.111   .     S
C1792  H1979   1.112   .     S
C1793  H1981   1.109   .     S
C1793  H1982   1.110   .     S
C1793  H1983   1.111   .     S
C1794  H1984   1.111   .     S
C1794  C1796   1.532   .     S
C1794  H1985   1.118   .     S
C1794  O1110   1.420   1_565 S
C1795  O2254   1.386   .     S
C1796  H1987   1.109   .     S
C1796  C1797   1.526   .     S
C1796  H842    1.112   1_565 S
C1797  H1990   1.110   .     S
C1797  H1988   1.111   .     S
C1797  H1991   1.111   .     S
C1798  O2256   1.414   .     S
C1798  C1799   1.528   .     S
C1798  H1993   1.113   .     S
C1799  H1995   1.112   .     S
C1799  H1994   1.111   .     S
C1800  H1996   1.111   .     S
C1800  H1998   1.111   .     S
C1800  C655    1.526   1_565 S
C1800  H853    1.110   1_565 S
C1801  H1999   1.115   .     S
C1801  C1802   1.527   .     S
C1801  O2257   1.413   .     S
C1801  H2001   1.115   .     S
C1802  H2002   1.111   .     S
C1802  H2003   1.112   .     S
C1802  C1803   1.526   .     S
C1803  H2006   1.111   .     S
C1803  H2004   1.111   .     S
C1803  H2005   1.110   .     S
C1804  H2008   1.113   .     S
C1804  C1805   1.528   .     S
C1804  O2258   1.413   .     S
C1804  H2007   1.114   .     S
C1805  H2010   1.112   .     S
C1805  C1807   1.526   .     S
C1805  H2009   1.111   .     S
C1806  O2256   1.384   .     S
C1806  C1828   1.397   .     A
C1807  H2012   1.111   .     S
C1807  H2014   1.111   .     S
C1807  H2013   1.110   .     S
C1808  H2015   1.117   .     S
C1808  C1809   1.528   .     S
C1808  H2016   1.113   .     S
C1809  C1810   1.527   .     S
C1809  H2017   1.112   .     S
C1810  H2019   1.111   .     S
C1810  H2021   1.111   .     S
C1810  H2020   1.110   .     S
C1811  H2024   1.113   .     S
C1811  O2260   1.414   .     S
C1811  C1812   1.528   .     S
C1811  H879    1.116   1_565 S
C1812  H2026   1.112   .     S
C1812  H2025   1.111   .     S
C1812  C669    1.526   1_565 S
C1813  H2029   1.110   .     S
C1813  H2027   1.111   .     S
C1814  H2030   1.111   .     S
C1814  C1815   1.530   .     S
C1814  O2261   1.418   .     S
C1814  H2031   1.118   .     S
C1815  H2032   1.112   .     S
C1815  H2034   1.110   .     S
C1815  C1816   1.525   .     S
C1816  H2037   1.111   .     S
C1816  H2035   1.111   .     S
C1816  H2036   1.108   .     S
C1817  O2257   1.383   .     S
C1817  C1856   1.398   .     A
C1818  O2262   1.413   .     S
C1818  H2039   1.113   .     S
C1818  H2038   1.114   .     S
C1818  C1819   1.528   .     S
C1819  H2040   1.111   .     S
C1819  H2041   1.112   .     S
C1819  C1820   1.526   .     S
C1820  H2046   1.111   .     S
C1820  H2043   1.110   .     S
C1820  H2042   1.111   .     S
C1821  H2047   1.117   .     S
C1821  O2263   1.414   .     S
C1821  C1822   1.528   .     S
C1821  H2048   1.113   .     S
C1822  H2050   1.112   .     S
C1822  C1823   1.526   .     S
C1822  H2049   1.111   .     S
C1823  H2052   1.110   .     S
C1823  H2053   1.110   .     S
C1823  H2051   1.111   .     S
C1824  C1825   1.528   .     S
C1824  H2055   1.113   .     S
C1824  O2264   1.414   .     S
C1824  H2054   1.116   .     S
C1825  H2057   1.111   .     S
C1825  C1826   1.526   .     S
C1825  H2058   1.112   .     S
C1826  H2061   1.111   .     S
C1826  H2059   1.111   .     S
C1826  H2060   1.110   .     S
C1827  H2062   1.114   .     S
C1827  H2063   1.113   .     S
C1827  C1830   1.528   .     S
C1827  O2265   1.413   .     S
C1828  O2238   1.385   .     S
C1828  C1861   1.411   .     A
C1829  C1867   1.401   .     A
C1829  O2258   1.385   .     S
C1829  C1164   1.403   1_655 S
C1830  C1831   1.526   .     S
C1830  H2065   1.112   .     S
C1830  H2064   1.112   .     S
C1831  H2068   1.110   .     S
C1831  H2066   1.111   .     S
C1831  H2069   1.111   .     S
C1832  H2071   1.115   .     S
C1832  H2070   1.114   .     S
C1832  O2267   1.413   .     S
C1832  C1833   1.527   .     S
C1833  H2073   1.112   .     S
C1833  H2072   1.111   .     S
C1833  C1834   1.526   .     S
C1834  H2076   1.111   .     S
C1834  H2074   1.111   .     S
C1834  H2075   1.110   .     S
C1835  H2079   1.113   .     S
C1835  H2077   1.117   .     S
C1835  C1836   1.528   .     S
C1835  O2268   1.414   .     S
C1836  H2080   1.111   .     S
C1836  H2081   1.112   .     S
C1836  C1837   1.526   .     S
C1837  H2082   1.111   .     S
C1837  H2084   1.110   .     S
C1837  H2083   1.110   .     S
C1838  O2269   1.414   .     S
C1838  H2085   1.116   .     S
C1838  H2086   1.113   .     S
C1838  C1839   1.528   .     S
C1839  H2088   1.112   .     S
C1839  C1841   1.526   .     S
C1839  H2087   1.112   .     S
C1840  C1878   1.398   .     A
C1840  O2259   1.384   .     S
C1841  H2091   1.110   .     S
C1841  H2090   1.111   .     S
C1841  H2092   1.111   .     S
C1842  C1843   1.528   .     S
C1842  H2094   1.113   .     S
C1842  O2270   1.413   .     S
C1842  H2093   1.114   .     S
C1843  H2096   1.112   .     S
C1843  C1844   1.526   .     S
C1843  H2095   1.112   .     S
C1844  H2097   1.111   .     S
C1844  H2099   1.111   .     S
C1844  H2098   1.110   .     S
C1845  H2102   1.116   .     S
C1845  C1846   1.527   .     S
C1845  H2101   1.114   .     S
C1845  O2271   1.412   .     S
C1846  H2104   1.112   .     S
C1846  C1847   1.526   .     S
C1846  H2103   1.111   .     S
C1847  H2105   1.111   .     S
C1847  H2106   1.110   .     S
C1847  H2107   1.111   .     S
C1848  O2260   1.384   .     S
C1848  C1889   1.398   .     A
C1848  C590    1.412   1_565 S
C1849  C1900   1.397   .     A
C1849  O2261   1.385   .     S
C1850  C1911   1.401   .     A
C1850  O2262   1.385   .     S
C1851  C1922   1.398   .     A
C1851  O2263   1.384   .     S
C1852  O2264   1.385   .     S
C1853  O2265   1.385   .     S
C1854  O2267   1.383   .     S
C1855  O2268   1.384   .     S
C1856  O2239   1.389   .     S
C1856  C1862   1.415   .     A
C1857  O2269   1.385   .     S
C1857  C1166   1.413   1_655 A
C1858  O2270   1.385   .     S
C1859  O2271   1.383   .     S
C1859  C597    1.412   1_565 S
C1860  C1861   1.469   1_554 S
C1861  C1860   1.469   1_556 S
C1862  C1863   1.475   1_554 S
C1863  C1911   1.418   .     A
C1863  C1862   1.475   1_556 S
C1864  C1922   1.409   .     A
C1864  C1179   1.409   1_655 S
C1864  C1293   1.469   1_655 S
C1866  C1868   1.476   .     S
C1867  O2240   1.389   .     S
C1867  C1291   1.418   1_655 S
C1869  O2272   1.283   .     A
C1870  O2190   1.277   .     A
C1870  O1100   1.277   1_565 S
C1871  O2255   1.282   .     S
C1872  O2192   1.282   .     S
C1873  O2193   1.278   .     S
C1873  O2197   1.278   .     S
C1874  O1622   1.283   1_655 A
C1874  O1626   1.284   1_655 A
C1875  O2199   1.280   .     A
C1875  O2195   1.282   .     A
C1876  O1052   1.281   1_565 S
C1876  O1057   1.284   1_565 S
C1877  O2202   1.279   .     A
C1877  C1932   1.453   .     S
C1877  O2230   1.279   .     A
C1878  O2241   1.389   .     S
C1878  C716    1.413   1_565 S
C1879  O2231   1.279   .     A
C1879  O2203   1.280   .     A
C1880  O2204   1.279   .     A
C1880  O2228   1.279   .     A
C1881  O2205   1.279   .     A
C1881  O2229   1.279   .     A
C1882  O2235   1.279   .     A
C1882  O2206   1.280   .     A
C1883  O2236   1.279   .     A
C1883  O2207   1.279   .     A
C1884  C1930   1.453   .     S
C1884  O2208   1.280   .     A
C1884  O2232   1.280   .     A
C1885  O2209   1.280   .     A
C1885  O2234   1.280   .     A
C1885  C1931   1.453   .     S
C1886  O2210   1.279   .     A
C1886  O2221   1.279   .     A
C1887  O2212   1.279   .     A
C1887  O2223   1.279   .     A
C1888  O2213   1.279   .     A
C1888  O2219   1.280   .     A
C1889  O2242   1.388   .     S
C1889  C717    1.414   1_565 S
C1890  O2214   1.279   .     A
C1890  O2220   1.280   .     A
C1891  O2226   1.279   .     A
C1891  O2215   1.280   .     A
C1892  O2227   1.280   .     A
C1892  O2216   1.280   .     A
C1893  O2217   1.279   .     A
C1893  O2224   1.279   .     A
C1894  O2225   1.279   .     A
C1894  O2218   1.280   .     A
C1895  C1912   1.385   .     A
C1895  H1933   1.083   .     S
C1896  C1910   1.385   .     A
C1896  H2044   1.083   .     S
C1897  H2112   1.082   .     S
C1897  C1909   1.385   .     A
C1898  C1908   1.385   .     A
C1898  H2123   1.083   .     S
C1899  H2134   1.083   .     S
C1899  C1907   1.385   .     A
C1900  O2243   1.389   .     S
C1900  C1290   1.416   1_655 S
C1901  C1906   1.385   .     A
C1901  H2145   1.083   .     S
C1902  C1905   1.386   .     A
C1902  H2156   1.083   .     S
C1903  H2167   1.083   .     S
C1903  C1904   1.385   .     A
C1904  H2178   1.083   .     S
C1905  H1934   1.083   .     S
C1906  H1945   1.083   .     S
C1907  H1956   1.083   .     S
C1908  H1967   1.083   .     S
C1909  H1978   1.083   .     S
C1909  C1932   1.401   .     A
C1910  H1989   1.083   .     S
C1910  C1931   1.401   .     A
C1911  O2245   1.388   .     S
C1912  H2000   1.083   .     S
C1912  C1930   1.401   .     A
C1913  H2011   1.083   .     S
C1913  C1929   1.385   .     A
C1913  C1931   1.401   .     A
C1914  C1930   1.401   .     A
C1914  C1928   1.385   .     A
C1914  H2022   1.083   .     S
C1915  H2033   1.083   .     S
C1915  C1927   1.385   .     A
C1916  C1932   1.402   .     A
C1916  C1926   1.385   .     A
C1916  H2045   1.083   .     S
C1917  C1925   1.385   .     A
C1917  H2056   1.083   .     S
C1918  C1924   1.385   .     A
C1918  H2067   1.083   .     S
C1919  H2078   1.083   .     S
C1919  C1923   1.385   .     A
C1920  C1921   1.385   .     A
C1920  H2089   1.083   .     S
C1921  H2100   1.083   .     S
C1922  O2246   1.385   .     S
C1923  H2108   1.083   .     S
C1924  H2109   1.082   .     S
C1925  H2110   1.083   .     S
C1926  H2111   1.083   .     S
C1927  H2113   1.083   .     S
C1928  H2114   1.082   .     S
C1929  H2115   1.083   .     S
H1940  C632    1.112   1_565 S
H1970  C644    1.108   1_565 S
H1992  C654    1.117   1_565 S
H2018  C665    1.112   1_565 S
H2028  C669    1.110   1_565 S
H2116  C1742   1.111   1_556 S
H2118  C1743   1.112   1_556 S
H2121  C1744   1.111   1_556 S
H2122  C1744   1.111   1_556 S
H2124  C1745   1.111   1_554 S
H2127  C1746   1.112   1_556 S
H2128  C1747   1.111   1_556 S
H2131  C1748   1.111   1_556 S
H2132  C1748   1.109   1_556 S
H2139  C1752   1.111   1_554 S
H2140  C1752   1.108   1_554 S
H2147  C1755   1.111   1_556 S
H2148  C1755   1.108   1_556 S
H2154  C1758   1.111   1_554 S
H2155  C1758   1.109   1_554 S
H2162  C1761   1.111   1_556 S
H2163  C1761   1.108   1_556 S
H2166  C1764   1.110   1_556 S
H2170  C1765   1.111   1_554 S
H2171  C1765   1.109   1_554 S
O2189  Zn2284  1.945   .     S
O2189  Zn2276  1.944   .     S
O2189  Zn2273  1.945   .     S
O2190  Zn2275  1.944   .     S
O2191  Zn2278  1.944   .     S
O2191  C1299   1.282   1_655 A
O2192  Zn2277  1.944   .     S
O2193  Zn2287  1.944   .     S
O2194  Zn2286  1.944   .     S
O2195  Zn2281  1.944   .     S
O2196  Zn2273  1.944   .     S
O2197  Zn2283  1.944   .     S
O2198  Zn2282  1.944   .     S
O2199  Zn2285  1.944   .     S
O2200  Zn2279  1.945   .     S
O2200  Zn2281  1.945   .     S
O2200  Zn2285  1.945   .     S
O2201  Zn2284  1.944   .     S
O2202  Zn2276  1.934   .     S
O2203  Zn2275  1.934   .     S
O2204  Zn2278  1.933   .     S
O2205  Zn2277  1.933   .     S
O2206  Zn2280  1.934   .     S
O2207  Zn2279  1.934   .     S
O2208  Zn2274  1.933   .     S
O2209  Zn2288  1.933   .     S
O2210  Zn2275  1.933   .     S
O2211  Zn2282  1.944   .     S
O2211  Zn2286  1.945   .     S
O2211  Zn2274  1.945   .     S
O2212  Zn2276  1.933   .     S
O2213  Zn2288  1.934   .     S
O2214  Zn2274  1.934   .     S
O2215  Zn2279  1.933   .     S
O2216  Zn2280  1.933   .     S
O2217  Zn2277  1.934   .     S
O2218  Zn2278  1.934   .     S
O2219  Zn1711  1.934   1_655 S
O2220  Zn2282  1.934   .     S
O2221  Zn1141  1.933   1_565 S
O2222  Zn2283  1.944   .     S
O2222  Zn2287  1.945   .     S
O2222  Zn2277  1.945   .     S
O2223  Zn2284  1.933   .     S
O2224  Zn2287  1.934   .     S
O2225  Zn1714  1.934   1_655 S
O2226  Zn2281  1.933   .     S
O2227  Zn1129  1.933   1_565 S
O2228  Zn1710  1.933   1_655 S
O2229  Zn2283  1.933   .     S
O2230  Zn2273  1.934   .     S
O2231  Zn1137  1.934   1_565 S
O2232  Zn2286  1.933   .     S
O2233  Zn2280  1.944   .     S
O2233  C725    1.284   1_565 S
O2234  Zn1715  1.933   1_655 S
O2235  Zn1140  1.934   1_565 S
O2236  Zn2285  1.934   .     S
O2243  C1189   1.415   1_655 S
O2244  Zn2279  1.944   .     S
O2255  Zn2274  1.944   .     S
O2259  C664    1.415   1_565 S
O2266  C1300   1.282   1_655 A
O2266  Zn2288  1.944   .     S
O2272  Zn2276  1.944   .     S
Zn2275 O1056   1.944   1_565 S
Zn2278 O1639   1.945   1_655 S
Zn2280 O1045   1.945   1_565 S
Zn2288 O1650   1.945   1_655 S
