data_str_m1_o10_o16_pcu_sym.153
_audit_creation_date              2020-01-03
_audit_creation_method            'Materials Studio'
_symmetry_space_group_name_H-M    'P1'
_symmetry_Int_Tables_number       1
_symmetry_cell_setting            triclinic
loop_
_symmetry_equiv_pos_as_xyz
  x,y,z
_cell_length_a                    32.7568
_cell_length_b                    32.4930
_cell_length_c                    30.9555
_cell_angle_alpha                 96.0564
_cell_angle_beta                  74.3493
_cell_angle_gamma                 98.4111
loop_
_atom_site_label
_atom_site_type_symbol
_atom_site_fract_x
_atom_site_fract_y
_atom_site_fract_z
_atom_site_U_iso_or_equiv
_atom_site_adp_type
_atom_site_occupancy
Br1    Br    0.30841   0.12644   0.31565   0.00000  Uiso   1.00
Br2    Br    0.03170   0.20633   0.18793   0.00000  Uiso   1.00
C3     C     0.05312   0.16005   0.25967   0.00000  Uiso   1.00
C4     C     0.16629   0.15297   0.05899   0.00000  Uiso   1.00
C5     C     0.23704   0.13744   0.05618   0.00000  Uiso   1.00
C6     C     0.28080   0.17378   0.24016   0.00000  Uiso   1.00
C7     C     0.13876   0.19085   0.42017   0.00000  Uiso   1.00
C8     C     0.32647   0.17593   0.23621   0.00000  Uiso   1.00
C9     C     0.00807   0.15721   0.26491   0.00000  Uiso   1.00
C10    C     0.18074   0.32261   0.23635   0.00000  Uiso   1.00
C11    C     0.15226   0.01178   0.26399   0.00000  Uiso   1.00
C12    C     0.15634   0.05591   0.26016   0.00000  Uiso   1.00
C13    C     0.17669   0.27797   0.24011   0.00000  Uiso   1.00
C14    C     0.08155   0.19059   0.48857   0.00000  Uiso   1.00
C15    C     0.18576   0.14830   0.12927   0.00000  Uiso   1.00
C16    C     0.14885   0.18500   0.37083   0.00000  Uiso   1.00
C17    C     0.25045   0.14438   0.01075   0.00000  Uiso   1.00
C18    C     0.19534   0.14282   0.08052   0.00000  Uiso   1.00
C19    C     0.09632   0.19572   0.44293   0.00000  Uiso   1.00
C20    C     0.23582   0.21384   0.38584   0.00000  Uiso   1.00
C21    C     0.10824   0.17887   0.01189   0.00000  Uiso   1.00
C22    C     0.15172   0.17488   0.49049   0.00000  Uiso   1.00
C23    C     0.16808   0.18476   0.44467   0.00000  Uiso   1.00
C24    C     0.17943   0.16151   0.01313   0.00000  Uiso   1.00
C25    C     0.22259   0.15795   0.48951   0.00000  Uiso   1.00
C26    C     0.23880   0.17146   0.44630   0.00000  Uiso   1.00
C27    C     0.21298   0.18796   0.42513   0.00000  Uiso   1.00
H28    H     0.25990   0.13026   0.07301   0.00000  Uiso   1.00
H29    H     0.26344   0.23437   0.39389   0.00000  Uiso   1.00
H30    H     0.24819   0.19337   0.35554   0.00000  Uiso   1.00
H31    H     0.21527   0.23503   0.37855   0.00000  Uiso   1.00
H32    H     0.20706   0.00394   0.21090   0.00000  Uiso   1.00
H33    H     0.12558   0.33121   0.28954   0.00000  Uiso   1.00
H34    H     0.27269   0.17211   0.43018   0.00000  Uiso   1.00
H35    H     0.28342   0.14166   0.49292   0.00000  Uiso   1.00
H36    H     0.13496   0.15739   0.07996   0.00000  Uiso   1.00
H37    H     0.07372   0.20118   0.42488   0.00000  Uiso   1.00
H38    H     0.09358   0.17306   0.04658   0.00000  Uiso   1.00
H39    H     0.04846   0.19355   0.00555   0.00000  Uiso   1.00
O40    O     0.16667   0.16667   0.25000   0.00000  Uiso   1.00
O41    O     0.15451   0.12637   0.15459   0.00000  Uiso   1.00
O42    O     0.12940   0.20391   0.34968   0.00000  Uiso   1.00
O43    O     0.20824   0.17759   0.14606   0.00000  Uiso   1.00
O44    O     0.17451   0.15880   0.34968   0.00000  Uiso   1.00
O45    O     0.17930   0.08019   0.28214   0.00000  Uiso   1.00
O46    O     0.14632   0.26085   0.27014   0.00000  Uiso   1.00
O47    O     0.07412   0.13291   0.23413   0.00000  Uiso   1.00
O48    O     0.26693   0.19272   0.21361   0.00000  Uiso   1.00
O49    O     0.07071   0.18878   0.28213   0.00000  Uiso   1.00
O50    O     0.25491   0.15226   0.27014   0.00000  Uiso   1.00
O51    O     0.13760   0.06944   0.23413   0.00000  Uiso   1.00
O52    O     0.20345   0.25620   0.21361   0.00000  Uiso   1.00
Zn53   Zn    0.19338   0.13994   0.28734   0.00000  Uiso   1.00
Zn54   Zn    0.13379   0.12458   0.21876   0.00000  Uiso   1.00
Zn55   Zn    0.21056   0.19775   0.20657   0.00000  Uiso   1.00
Zn56   Zn    0.12893   0.20439   0.28734   0.00000  Uiso   1.00
Br57   Br    0.64175   0.12644   0.31565   0.00000  Uiso   1.00
Br58   Br    0.36504   0.20633   0.18793   0.00000  Uiso   1.00
C59    C     0.38645   0.16005   0.25967   0.00000  Uiso   1.00
C60    C     0.49962   0.15297   0.05899   0.00000  Uiso   1.00
C61    C     0.57038   0.13744   0.05618   0.00000  Uiso   1.00
C62    C     0.61413   0.17378   0.24016   0.00000  Uiso   1.00
C63    C     0.47209   0.19085   0.42017   0.00000  Uiso   1.00
C64    C     0.65980   0.17593   0.23621   0.00000  Uiso   1.00
C65    C     0.34141   0.15721   0.26491   0.00000  Uiso   1.00
C66    C     0.51407   0.32261   0.23635   0.00000  Uiso   1.00
C67    C     0.48559   0.01178   0.26399   0.00000  Uiso   1.00
C68    C     0.48967   0.05591   0.26016   0.00000  Uiso   1.00
C69    C     0.51003   0.27797   0.24011   0.00000  Uiso   1.00
C70    C     0.41488   0.19059   0.48857   0.00000  Uiso   1.00
C71    C     0.51909   0.14830   0.12927   0.00000  Uiso   1.00
C72    C     0.48218   0.18500   0.37083   0.00000  Uiso   1.00
C73    C     0.58379   0.14438   0.01075   0.00000  Uiso   1.00
C74    C     0.52868   0.14282   0.08052   0.00000  Uiso   1.00
C75    C     0.42966   0.19572   0.44293   0.00000  Uiso   1.00
C76    C     0.56915   0.21384   0.38584   0.00000  Uiso   1.00
C77    C     0.44158   0.17887   0.01189   0.00000  Uiso   1.00
C78    C     0.48506   0.17488   0.49049   0.00000  Uiso   1.00
C79    C     0.50141   0.18476   0.44467   0.00000  Uiso   1.00
C80    C     0.51276   0.16151   0.01313   0.00000  Uiso   1.00
C81    C     0.55592   0.15795   0.48951   0.00000  Uiso   1.00
C82    C     0.57213   0.17146   0.44630   0.00000  Uiso   1.00
C83    C     0.54631   0.18796   0.42513   0.00000  Uiso   1.00
H84    H     0.59324   0.13026   0.07301   0.00000  Uiso   1.00
H85    H     0.59677   0.23437   0.39389   0.00000  Uiso   1.00
H86    H     0.58152   0.19337   0.35554   0.00000  Uiso   1.00
H87    H     0.54860   0.23503   0.37855   0.00000  Uiso   1.00
H88    H     0.54039   0.00394   0.21090   0.00000  Uiso   1.00
H89    H     0.45891   0.33121   0.28954   0.00000  Uiso   1.00
H90    H     0.60603   0.17211   0.43018   0.00000  Uiso   1.00
H91    H     0.61675   0.14166   0.49292   0.00000  Uiso   1.00
H92    H     0.46829   0.15739   0.07996   0.00000  Uiso   1.00
H93    H     0.40705   0.20118   0.42488   0.00000  Uiso   1.00
H94    H     0.42692   0.17306   0.04658   0.00000  Uiso   1.00
H95    H     0.38179   0.19355   0.00555   0.00000  Uiso   1.00
O96    O     0.50000   0.16667   0.25000   0.00000  Uiso   1.00
O97    O     0.48784   0.12637   0.15459   0.00000  Uiso   1.00
O98    O     0.46274   0.20391   0.34968   0.00000  Uiso   1.00
O99    O     0.54157   0.17759   0.14606   0.00000  Uiso   1.00
O100   O     0.50785   0.15880   0.34968   0.00000  Uiso   1.00
O101   O     0.51264   0.08019   0.28214   0.00000  Uiso   1.00
O102   O     0.47965   0.26085   0.27014   0.00000  Uiso   1.00
O103   O     0.40745   0.13291   0.23413   0.00000  Uiso   1.00
O104   O     0.60026   0.19272   0.21361   0.00000  Uiso   1.00
O105   O     0.40405   0.18878   0.28213   0.00000  Uiso   1.00
O106   O     0.58824   0.15226   0.27014   0.00000  Uiso   1.00
O107   O     0.47093   0.06944   0.23413   0.00000  Uiso   1.00
O108   O     0.53678   0.25620   0.21361   0.00000  Uiso   1.00
Zn109  Zn    0.52672   0.13994   0.28734   0.00000  Uiso   1.00
Zn110  Zn    0.46713   0.12458   0.21876   0.00000  Uiso   1.00
Zn111  Zn    0.54389   0.19775   0.20657   0.00000  Uiso   1.00
Zn112  Zn    0.46226   0.20439   0.28734   0.00000  Uiso   1.00
Br113  Br    0.97508   0.12644   0.31565   0.00000  Uiso   1.00
Br114  Br    0.69837   0.20633   0.18793   0.00000  Uiso   1.00
C115   C     0.71978   0.16005   0.25967   0.00000  Uiso   1.00
C116   C     0.83295   0.15297   0.05899   0.00000  Uiso   1.00
C117   C     0.90371   0.13744   0.05618   0.00000  Uiso   1.00
C118   C     0.94747   0.17378   0.24016   0.00000  Uiso   1.00
C119   C     0.80542   0.19085   0.42017   0.00000  Uiso   1.00
C120   C     0.99314   0.17593   0.23621   0.00000  Uiso   1.00
C121   C     0.67474   0.15721   0.26491   0.00000  Uiso   1.00
C122   C     0.84740   0.32261   0.23635   0.00000  Uiso   1.00
C123   C     0.81893   0.01178   0.26399   0.00000  Uiso   1.00
C124   C     0.82301   0.05591   0.26016   0.00000  Uiso   1.00
C125   C     0.84336   0.27797   0.24011   0.00000  Uiso   1.00
C126   C     0.74821   0.19059   0.48857   0.00000  Uiso   1.00
C127   C     0.85243   0.14830   0.12927   0.00000  Uiso   1.00
C128   C     0.81552   0.18500   0.37083   0.00000  Uiso   1.00
C129   C     0.91712   0.14438   0.01075   0.00000  Uiso   1.00
C130   C     0.86201   0.14282   0.08052   0.00000  Uiso   1.00
C131   C     0.76299   0.19572   0.44293   0.00000  Uiso   1.00
C132   C     0.90249   0.21384   0.38584   0.00000  Uiso   1.00
C133   C     0.77491   0.17887   0.01189   0.00000  Uiso   1.00
C134   C     0.81839   0.17488   0.49049   0.00000  Uiso   1.00
C135   C     0.83474   0.18476   0.44467   0.00000  Uiso   1.00
C136   C     0.84610   0.16151   0.01313   0.00000  Uiso   1.00
C137   C     0.88926   0.15795   0.48951   0.00000  Uiso   1.00
C138   C     0.90547   0.17146   0.44630   0.00000  Uiso   1.00
C139   C     0.87965   0.18796   0.42513   0.00000  Uiso   1.00
H140   H     0.92657   0.13026   0.07301   0.00000  Uiso   1.00
H141   H     0.93010   0.23437   0.39389   0.00000  Uiso   1.00
H142   H     0.91486   0.19337   0.35554   0.00000  Uiso   1.00
H143   H     0.88193   0.23503   0.37855   0.00000  Uiso   1.00
H144   H     0.87373   0.00394   0.21090   0.00000  Uiso   1.00
H145   H     0.79225   0.33121   0.28954   0.00000  Uiso   1.00
H146   H     0.93936   0.17211   0.43018   0.00000  Uiso   1.00
H147   H     0.95009   0.14166   0.49292   0.00000  Uiso   1.00
H148   H     0.80163   0.15739   0.07996   0.00000  Uiso   1.00
H149   H     0.74039   0.20118   0.42488   0.00000  Uiso   1.00
H150   H     0.76025   0.17306   0.04658   0.00000  Uiso   1.00
H151   H     0.71513   0.19355   0.00555   0.00000  Uiso   1.00
O152   O     0.83333   0.16667   0.25000   0.00000  Uiso   1.00
O153   O     0.82118   0.12637   0.15459   0.00000  Uiso   1.00
O154   O     0.79607   0.20391   0.34968   0.00000  Uiso   1.00
O155   O     0.87491   0.17759   0.14606   0.00000  Uiso   1.00
O156   O     0.84118   0.15880   0.34968   0.00000  Uiso   1.00
O157   O     0.84597   0.08019   0.28214   0.00000  Uiso   1.00
O158   O     0.81298   0.26085   0.27014   0.00000  Uiso   1.00
O159   O     0.74078   0.13291   0.23413   0.00000  Uiso   1.00
O160   O     0.93360   0.19272   0.21361   0.00000  Uiso   1.00
O161   O     0.73738   0.18878   0.28213   0.00000  Uiso   1.00
O162   O     0.92158   0.15226   0.27014   0.00000  Uiso   1.00
O163   O     0.80426   0.06944   0.23413   0.00000  Uiso   1.00
O164   O     0.87012   0.25620   0.21361   0.00000  Uiso   1.00
Zn165  Zn    0.86005   0.13994   0.28734   0.00000  Uiso   1.00
Zn166  Zn    0.80046   0.12458   0.21876   0.00000  Uiso   1.00
Zn167  Zn    0.87723   0.19775   0.20657   0.00000  Uiso   1.00
Zn168  Zn    0.79560   0.20439   0.28734   0.00000  Uiso   1.00
Br169  Br    0.30841   0.45977   0.31565   0.00000  Uiso   1.00
Br170  Br    0.03170   0.53967   0.18793   0.00000  Uiso   1.00
C171   C     0.05312   0.49338   0.25967   0.00000  Uiso   1.00
C172   C     0.16629   0.48630   0.05899   0.00000  Uiso   1.00
C173   C     0.23704   0.47078   0.05618   0.00000  Uiso   1.00
C174   C     0.28080   0.50711   0.24016   0.00000  Uiso   1.00
C175   C     0.13876   0.52419   0.42017   0.00000  Uiso   1.00
C176   C     0.32647   0.50927   0.23621   0.00000  Uiso   1.00
C177   C     0.00807   0.49055   0.26491   0.00000  Uiso   1.00
C178   C     0.18074   0.65595   0.23635   0.00000  Uiso   1.00
C179   C     0.15226   0.34511   0.26399   0.00000  Uiso   1.00
C180   C     0.15634   0.38925   0.26016   0.00000  Uiso   1.00
C181   C     0.17669   0.61130   0.24011   0.00000  Uiso   1.00
C182   C     0.08155   0.52392   0.48857   0.00000  Uiso   1.00
C183   C     0.18576   0.48164   0.12927   0.00000  Uiso   1.00
C184   C     0.14885   0.51833   0.37083   0.00000  Uiso   1.00
C185   C     0.25045   0.47771   0.01075   0.00000  Uiso   1.00
C186   C     0.19534   0.47615   0.08052   0.00000  Uiso   1.00
C187   C     0.09632   0.52906   0.44293   0.00000  Uiso   1.00
C188   C     0.23582   0.54717   0.38584   0.00000  Uiso   1.00
C189   C     0.10824   0.51220   0.01189   0.00000  Uiso   1.00
C190   C     0.15172   0.50822   0.49049   0.00000  Uiso   1.00
C191   C     0.16808   0.51810   0.44467   0.00000  Uiso   1.00
C192   C     0.17943   0.49484   0.01313   0.00000  Uiso   1.00
C193   C     0.22259   0.49129   0.48951   0.00000  Uiso   1.00
C194   C     0.23880   0.50479   0.44630   0.00000  Uiso   1.00
C195   C     0.21298   0.52129   0.42513   0.00000  Uiso   1.00
H196   H     0.25990   0.46360   0.07301   0.00000  Uiso   1.00
H197   H     0.26344   0.56770   0.39389   0.00000  Uiso   1.00
H198   H     0.24819   0.52670   0.35554   0.00000  Uiso   1.00
H199   H     0.21527   0.56836   0.37855   0.00000  Uiso   1.00
H200   H     0.20706   0.33727   0.21090   0.00000  Uiso   1.00
H201   H     0.12558   0.66454   0.28954   0.00000  Uiso   1.00
H202   H     0.27269   0.50544   0.43018   0.00000  Uiso   1.00
H203   H     0.28342   0.47499   0.49292   0.00000  Uiso   1.00
H204   H     0.13496   0.49072   0.07996   0.00000  Uiso   1.00
H205   H     0.07372   0.53451   0.42488   0.00000  Uiso   1.00
H206   H     0.09358   0.50640   0.04658   0.00000  Uiso   1.00
H207   H     0.04846   0.52688   0.00555   0.00000  Uiso   1.00
O208   O     0.16667   0.50000   0.25000   0.00000  Uiso   1.00
O209   O     0.15451   0.45970   0.15459   0.00000  Uiso   1.00
O210   O     0.12940   0.53724   0.34968   0.00000  Uiso   1.00
O211   O     0.20824   0.51092   0.14606   0.00000  Uiso   1.00
O212   O     0.17451   0.49213   0.34968   0.00000  Uiso   1.00
O213   O     0.17930   0.41352   0.28214   0.00000  Uiso   1.00
O214   O     0.14632   0.59418   0.27014   0.00000  Uiso   1.00
O215   O     0.07412   0.46625   0.23413   0.00000  Uiso   1.00
O216   O     0.26693   0.52605   0.21361   0.00000  Uiso   1.00
O217   O     0.07071   0.52211   0.28213   0.00000  Uiso   1.00
O218   O     0.25491   0.48559   0.27014   0.00000  Uiso   1.00
O219   O     0.13760   0.40277   0.23413   0.00000  Uiso   1.00
O220   O     0.20345   0.58953   0.21361   0.00000  Uiso   1.00
Zn221  Zn    0.19338   0.47327   0.28734   0.00000  Uiso   1.00
Zn222  Zn    0.13379   0.45791   0.21876   0.00000  Uiso   1.00
Zn223  Zn    0.21056   0.53109   0.20657   0.00000  Uiso   1.00
Zn224  Zn    0.12893   0.53773   0.28734   0.00000  Uiso   1.00
Br225  Br    0.64175   0.45977   0.31565   0.00000  Uiso   1.00
Br226  Br    0.36504   0.53967   0.18793   0.00000  Uiso   1.00
C227   C     0.38645   0.49338   0.25967   0.00000  Uiso   1.00
C228   C     0.49962   0.48630   0.05899   0.00000  Uiso   1.00
C229   C     0.57038   0.47078   0.05618   0.00000  Uiso   1.00
C230   C     0.61413   0.50711   0.24016   0.00000  Uiso   1.00
C231   C     0.47209   0.52419   0.42017   0.00000  Uiso   1.00
C232   C     0.65980   0.50927   0.23621   0.00000  Uiso   1.00
C233   C     0.34141   0.49055   0.26491   0.00000  Uiso   1.00
C234   C     0.51407   0.65595   0.23635   0.00000  Uiso   1.00
C235   C     0.48559   0.34511   0.26399   0.00000  Uiso   1.00
C236   C     0.48967   0.38925   0.26016   0.00000  Uiso   1.00
C237   C     0.51003   0.61130   0.24011   0.00000  Uiso   1.00
C238   C     0.41488   0.52392   0.48857   0.00000  Uiso   1.00
C239   C     0.51909   0.48164   0.12927   0.00000  Uiso   1.00
C240   C     0.48218   0.51833   0.37083   0.00000  Uiso   1.00
C241   C     0.58379   0.47771   0.01075   0.00000  Uiso   1.00
C242   C     0.52868   0.47615   0.08052   0.00000  Uiso   1.00
C243   C     0.42966   0.52906   0.44293   0.00000  Uiso   1.00
C244   C     0.56915   0.54717   0.38584   0.00000  Uiso   1.00
C245   C     0.44158   0.51220   0.01189   0.00000  Uiso   1.00
C246   C     0.48506   0.50822   0.49049   0.00000  Uiso   1.00
C247   C     0.50141   0.51810   0.44467   0.00000  Uiso   1.00
C248   C     0.51276   0.49484   0.01313   0.00000  Uiso   1.00
C249   C     0.55592   0.49129   0.48951   0.00000  Uiso   1.00
C250   C     0.57213   0.50479   0.44630   0.00000  Uiso   1.00
C251   C     0.54631   0.52129   0.42513   0.00000  Uiso   1.00
H252   H     0.59324   0.46360   0.07301   0.00000  Uiso   1.00
H253   H     0.59677   0.56770   0.39389   0.00000  Uiso   1.00
H254   H     0.58152   0.52670   0.35554   0.00000  Uiso   1.00
H255   H     0.54860   0.56836   0.37855   0.00000  Uiso   1.00
H256   H     0.54039   0.33727   0.21090   0.00000  Uiso   1.00
H257   H     0.45891   0.66454   0.28954   0.00000  Uiso   1.00
H258   H     0.60603   0.50544   0.43018   0.00000  Uiso   1.00
H259   H     0.61675   0.47499   0.49292   0.00000  Uiso   1.00
H260   H     0.46829   0.49072   0.07996   0.00000  Uiso   1.00
H261   H     0.40705   0.53451   0.42488   0.00000  Uiso   1.00
H262   H     0.42692   0.50640   0.04658   0.00000  Uiso   1.00
H263   H     0.38179   0.52688   0.00555   0.00000  Uiso   1.00
O264   O     0.50000   0.50000   0.25000   0.00000  Uiso   1.00
O265   O     0.48784   0.45970   0.15459   0.00000  Uiso   1.00
O266   O     0.46274   0.53724   0.34968   0.00000  Uiso   1.00
O267   O     0.54157   0.51092   0.14606   0.00000  Uiso   1.00
O268   O     0.50785   0.49213   0.34968   0.00000  Uiso   1.00
O269   O     0.51264   0.41352   0.28214   0.00000  Uiso   1.00
O270   O     0.47965   0.59418   0.27014   0.00000  Uiso   1.00
O271   O     0.40745   0.46625   0.23413   0.00000  Uiso   1.00
O272   O     0.60026   0.52605   0.21361   0.00000  Uiso   1.00
O273   O     0.40405   0.52211   0.28213   0.00000  Uiso   1.00
O274   O     0.58824   0.48559   0.27014   0.00000  Uiso   1.00
O275   O     0.47093   0.40277   0.23413   0.00000  Uiso   1.00
O276   O     0.53678   0.58953   0.21361   0.00000  Uiso   1.00
Zn277  Zn    0.52672   0.47327   0.28734   0.00000  Uiso   1.00
Zn278  Zn    0.46713   0.45791   0.21876   0.00000  Uiso   1.00
Zn279  Zn    0.54389   0.53109   0.20657   0.00000  Uiso   1.00
Zn280  Zn    0.46226   0.53773   0.28734   0.00000  Uiso   1.00
Br281  Br    0.97508   0.45977   0.31565   0.00000  Uiso   1.00
Br282  Br    0.69837   0.53967   0.18793   0.00000  Uiso   1.00
C283   C     0.71978   0.49338   0.25967   0.00000  Uiso   1.00
C284   C     0.83295   0.48630   0.05899   0.00000  Uiso   1.00
C285   C     0.90371   0.47078   0.05618   0.00000  Uiso   1.00
C286   C     0.94747   0.50711   0.24016   0.00000  Uiso   1.00
C287   C     0.80542   0.52419   0.42017   0.00000  Uiso   1.00
C288   C     0.99314   0.50927   0.23621   0.00000  Uiso   1.00
C289   C     0.67474   0.49055   0.26491   0.00000  Uiso   1.00
C290   C     0.84740   0.65595   0.23635   0.00000  Uiso   1.00
C291   C     0.81893   0.34511   0.26399   0.00000  Uiso   1.00
C292   C     0.82301   0.38925   0.26016   0.00000  Uiso   1.00
C293   C     0.84336   0.61130   0.24011   0.00000  Uiso   1.00
C294   C     0.74821   0.52392   0.48857   0.00000  Uiso   1.00
C295   C     0.85243   0.48164   0.12927   0.00000  Uiso   1.00
C296   C     0.81552   0.51833   0.37083   0.00000  Uiso   1.00
C297   C     0.91712   0.47771   0.01075   0.00000  Uiso   1.00
C298   C     0.86201   0.47615   0.08052   0.00000  Uiso   1.00
C299   C     0.76299   0.52906   0.44293   0.00000  Uiso   1.00
C300   C     0.90249   0.54717   0.38584   0.00000  Uiso   1.00
C301   C     0.77491   0.51220   0.01189   0.00000  Uiso   1.00
C302   C     0.81839   0.50822   0.49049   0.00000  Uiso   1.00
C303   C     0.83474   0.51810   0.44467   0.00000  Uiso   1.00
C304   C     0.84610   0.49484   0.01313   0.00000  Uiso   1.00
C305   C     0.88926   0.49129   0.48951   0.00000  Uiso   1.00
C306   C     0.90547   0.50479   0.44630   0.00000  Uiso   1.00
C307   C     0.87965   0.52129   0.42513   0.00000  Uiso   1.00
H308   H     0.92657   0.46360   0.07301   0.00000  Uiso   1.00
H309   H     0.93010   0.56770   0.39389   0.00000  Uiso   1.00
H310   H     0.91486   0.52670   0.35554   0.00000  Uiso   1.00
H311   H     0.88193   0.56836   0.37855   0.00000  Uiso   1.00
H312   H     0.87373   0.33727   0.21090   0.00000  Uiso   1.00
H313   H     0.79225   0.66454   0.28954   0.00000  Uiso   1.00
H314   H     0.93936   0.50544   0.43018   0.00000  Uiso   1.00
H315   H     0.95009   0.47499   0.49292   0.00000  Uiso   1.00
H316   H     0.80163   0.49072   0.07996   0.00000  Uiso   1.00
H317   H     0.74039   0.53451   0.42488   0.00000  Uiso   1.00
H318   H     0.76025   0.50640   0.04658   0.00000  Uiso   1.00
H319   H     0.71513   0.52688   0.00555   0.00000  Uiso   1.00
O320   O     0.83333   0.50000   0.25000   0.00000  Uiso   1.00
O321   O     0.82118   0.45970   0.15459   0.00000  Uiso   1.00
O322   O     0.79607   0.53724   0.34968   0.00000  Uiso   1.00
O323   O     0.87491   0.51092   0.14606   0.00000  Uiso   1.00
O324   O     0.84118   0.49213   0.34968   0.00000  Uiso   1.00
O325   O     0.84597   0.41352   0.28214   0.00000  Uiso   1.00
O326   O     0.81298   0.59418   0.27014   0.00000  Uiso   1.00
O327   O     0.74078   0.46625   0.23413   0.00000  Uiso   1.00
O328   O     0.93360   0.52605   0.21361   0.00000  Uiso   1.00
O329   O     0.73738   0.52211   0.28213   0.00000  Uiso   1.00
O330   O     0.92158   0.48559   0.27014   0.00000  Uiso   1.00
O331   O     0.80426   0.40277   0.23413   0.00000  Uiso   1.00
O332   O     0.87012   0.58953   0.21361   0.00000  Uiso   1.00
Zn333  Zn    0.86005   0.47327   0.28734   0.00000  Uiso   1.00
Zn334  Zn    0.80046   0.45791   0.21876   0.00000  Uiso   1.00
Zn335  Zn    0.87723   0.53109   0.20657   0.00000  Uiso   1.00
Zn336  Zn    0.79560   0.53773   0.28734   0.00000  Uiso   1.00
Br337  Br    0.30841   0.79311   0.31565   0.00000  Uiso   1.00
Br338  Br    0.03170   0.87300   0.18793   0.00000  Uiso   1.00
C339   C     0.05312   0.82672   0.25967   0.00000  Uiso   1.00
C340   C     0.16629   0.81963   0.05899   0.00000  Uiso   1.00
C341   C     0.23704   0.80411   0.05618   0.00000  Uiso   1.00
C342   C     0.28080   0.84045   0.24016   0.00000  Uiso   1.00
C343   C     0.13876   0.85752   0.42017   0.00000  Uiso   1.00
C344   C     0.32647   0.84260   0.23621   0.00000  Uiso   1.00
C345   C     0.00807   0.82388   0.26491   0.00000  Uiso   1.00
C346   C     0.18074   0.98928   0.23635   0.00000  Uiso   1.00
C347   C     0.15226   0.67845   0.26399   0.00000  Uiso   1.00
C348   C     0.15634   0.72258   0.26016   0.00000  Uiso   1.00
C349   C     0.17669   0.94464   0.24011   0.00000  Uiso   1.00
C350   C     0.08155   0.85725   0.48857   0.00000  Uiso   1.00
C351   C     0.18576   0.81497   0.12927   0.00000  Uiso   1.00
C352   C     0.14885   0.85166   0.37083   0.00000  Uiso   1.00
C353   C     0.25045   0.81105   0.01075   0.00000  Uiso   1.00
C354   C     0.19534   0.80949   0.08052   0.00000  Uiso   1.00
C355   C     0.09632   0.86239   0.44293   0.00000  Uiso   1.00
C356   C     0.23582   0.88051   0.38584   0.00000  Uiso   1.00
C357   C     0.10824   0.84553   0.01189   0.00000  Uiso   1.00
C358   C     0.15172   0.84155   0.49049   0.00000  Uiso   1.00
C359   C     0.16808   0.85143   0.44467   0.00000  Uiso   1.00
C360   C     0.17943   0.82817   0.01313   0.00000  Uiso   1.00
C361   C     0.22259   0.82462   0.48951   0.00000  Uiso   1.00
C362   C     0.23880   0.83812   0.44630   0.00000  Uiso   1.00
C363   C     0.21298   0.85462   0.42513   0.00000  Uiso   1.00
H364   H     0.25990   0.79693   0.07301   0.00000  Uiso   1.00
H365   H     0.26344   0.90103   0.39389   0.00000  Uiso   1.00
H366   H     0.24819   0.86003   0.35554   0.00000  Uiso   1.00
H367   H     0.21527   0.90169   0.37855   0.00000  Uiso   1.00
H368   H     0.20706   0.67060   0.21090   0.00000  Uiso   1.00
H369   H     0.12558   0.99787   0.28954   0.00000  Uiso   1.00
H370   H     0.27269   0.83877   0.43018   0.00000  Uiso   1.00
H371   H     0.28342   0.80832   0.49292   0.00000  Uiso   1.00
H372   H     0.13496   0.82405   0.07996   0.00000  Uiso   1.00
H373   H     0.07372   0.86784   0.42488   0.00000  Uiso   1.00
H374   H     0.09358   0.83973   0.04658   0.00000  Uiso   1.00
H375   H     0.04846   0.86022   0.00555   0.00000  Uiso   1.00
O376   O     0.16667   0.83333   0.25000   0.00000  Uiso   1.00
O377   O     0.15451   0.79304   0.15459   0.00000  Uiso   1.00
O378   O     0.12940   0.87058   0.34968   0.00000  Uiso   1.00
O379   O     0.20824   0.84425   0.14606   0.00000  Uiso   1.00
O380   O     0.17451   0.82546   0.34968   0.00000  Uiso   1.00
O381   O     0.17930   0.74686   0.28214   0.00000  Uiso   1.00
O382   O     0.14632   0.92751   0.27014   0.00000  Uiso   1.00
O383   O     0.07412   0.79958   0.23413   0.00000  Uiso   1.00
O384   O     0.26693   0.85939   0.21361   0.00000  Uiso   1.00
O385   O     0.07071   0.85544   0.28213   0.00000  Uiso   1.00
O386   O     0.25491   0.81892   0.27014   0.00000  Uiso   1.00
O387   O     0.13760   0.73610   0.23413   0.00000  Uiso   1.00
O388   O     0.20345   0.92286   0.21361   0.00000  Uiso   1.00
Zn389  Zn    0.19338   0.80661   0.28734   0.00000  Uiso   1.00
Zn390  Zn    0.13379   0.79124   0.21876   0.00000  Uiso   1.00
Zn391  Zn    0.21056   0.86442   0.20657   0.00000  Uiso   1.00
Zn392  Zn    0.12893   0.87106   0.28734   0.00000  Uiso   1.00
Br393  Br    0.64175   0.79311   0.31565   0.00000  Uiso   1.00
Br394  Br    0.36504   0.87300   0.18793   0.00000  Uiso   1.00
C395   C     0.38645   0.82672   0.25967   0.00000  Uiso   1.00
C396   C     0.49962   0.81963   0.05899   0.00000  Uiso   1.00
C397   C     0.57038   0.80411   0.05618   0.00000  Uiso   1.00
C398   C     0.61413   0.84045   0.24016   0.00000  Uiso   1.00
C399   C     0.47209   0.85752   0.42017   0.00000  Uiso   1.00
C400   C     0.65980   0.84260   0.23621   0.00000  Uiso   1.00
C401   C     0.34141   0.82388   0.26491   0.00000  Uiso   1.00
C402   C     0.51407   0.98928   0.23635   0.00000  Uiso   1.00
C403   C     0.48559   0.67845   0.26399   0.00000  Uiso   1.00
C404   C     0.48967   0.72258   0.26016   0.00000  Uiso   1.00
C405   C     0.51003   0.94464   0.24011   0.00000  Uiso   1.00
C406   C     0.41488   0.85725   0.48857   0.00000  Uiso   1.00
C407   C     0.51909   0.81497   0.12927   0.00000  Uiso   1.00
C408   C     0.48218   0.85166   0.37083   0.00000  Uiso   1.00
C409   C     0.58379   0.81105   0.01075   0.00000  Uiso   1.00
C410   C     0.52868   0.80949   0.08052   0.00000  Uiso   1.00
C411   C     0.42966   0.86239   0.44293   0.00000  Uiso   1.00
C412   C     0.56915   0.88051   0.38584   0.00000  Uiso   1.00
C413   C     0.44158   0.84553   0.01189   0.00000  Uiso   1.00
C414   C     0.48506   0.84155   0.49049   0.00000  Uiso   1.00
C415   C     0.50141   0.85143   0.44467   0.00000  Uiso   1.00
C416   C     0.51276   0.82817   0.01313   0.00000  Uiso   1.00
C417   C     0.55592   0.82462   0.48951   0.00000  Uiso   1.00
C418   C     0.57213   0.83812   0.44630   0.00000  Uiso   1.00
C419   C     0.54631   0.85462   0.42513   0.00000  Uiso   1.00
H420   H     0.59324   0.79693   0.07301   0.00000  Uiso   1.00
H421   H     0.59677   0.90103   0.39389   0.00000  Uiso   1.00
H422   H     0.58152   0.86003   0.35554   0.00000  Uiso   1.00
H423   H     0.54860   0.90169   0.37855   0.00000  Uiso   1.00
H424   H     0.54039   0.67060   0.21090   0.00000  Uiso   1.00
H425   H     0.45891   0.99787   0.28954   0.00000  Uiso   1.00
H426   H     0.60603   0.83877   0.43018   0.00000  Uiso   1.00
H427   H     0.61675   0.80832   0.49292   0.00000  Uiso   1.00
H428   H     0.46829   0.82405   0.07996   0.00000  Uiso   1.00
H429   H     0.40705   0.86784   0.42488   0.00000  Uiso   1.00
H430   H     0.42692   0.83973   0.04658   0.00000  Uiso   1.00
H431   H     0.38179   0.86022   0.00555   0.00000  Uiso   1.00
O432   O     0.50000   0.83333   0.25000   0.00000  Uiso   1.00
O433   O     0.48784   0.79304   0.15459   0.00000  Uiso   1.00
O434   O     0.46274   0.87058   0.34968   0.00000  Uiso   1.00
O435   O     0.54157   0.84425   0.14606   0.00000  Uiso   1.00
O436   O     0.50785   0.82546   0.34968   0.00000  Uiso   1.00
O437   O     0.51264   0.74686   0.28214   0.00000  Uiso   1.00
O438   O     0.47965   0.92751   0.27014   0.00000  Uiso   1.00
O439   O     0.40745   0.79958   0.23413   0.00000  Uiso   1.00
O440   O     0.60026   0.85939   0.21361   0.00000  Uiso   1.00
O441   O     0.40405   0.85544   0.28213   0.00000  Uiso   1.00
O442   O     0.58824   0.81892   0.27014   0.00000  Uiso   1.00
O443   O     0.47093   0.73610   0.23413   0.00000  Uiso   1.00
O444   O     0.53678   0.92286   0.21361   0.00000  Uiso   1.00
Zn445  Zn    0.52672   0.80661   0.28734   0.00000  Uiso   1.00
Zn446  Zn    0.46713   0.79124   0.21876   0.00000  Uiso   1.00
Zn447  Zn    0.54389   0.86442   0.20657   0.00000  Uiso   1.00
Zn448  Zn    0.46226   0.87106   0.28734   0.00000  Uiso   1.00
Br449  Br    0.97508   0.79311   0.31565   0.00000  Uiso   1.00
Br450  Br    0.69837   0.87300   0.18793   0.00000  Uiso   1.00
C451   C     0.71978   0.82672   0.25967   0.00000  Uiso   1.00
C452   C     0.83295   0.81963   0.05899   0.00000  Uiso   1.00
C453   C     0.90371   0.80411   0.05618   0.00000  Uiso   1.00
C454   C     0.94747   0.84045   0.24016   0.00000  Uiso   1.00
C455   C     0.80542   0.85752   0.42017   0.00000  Uiso   1.00
C456   C     0.99314   0.84260   0.23621   0.00000  Uiso   1.00
C457   C     0.67474   0.82388   0.26491   0.00000  Uiso   1.00
C458   C     0.84740   0.98928   0.23635   0.00000  Uiso   1.00
C459   C     0.81893   0.67845   0.26399   0.00000  Uiso   1.00
C460   C     0.82301   0.72258   0.26016   0.00000  Uiso   1.00
C461   C     0.84336   0.94464   0.24011   0.00000  Uiso   1.00
C462   C     0.74821   0.85725   0.48857   0.00000  Uiso   1.00
C463   C     0.85243   0.81497   0.12927   0.00000  Uiso   1.00
C464   C     0.81552   0.85166   0.37083   0.00000  Uiso   1.00
C465   C     0.91712   0.81105   0.01075   0.00000  Uiso   1.00
C466   C     0.86201   0.80949   0.08052   0.00000  Uiso   1.00
C467   C     0.76299   0.86239   0.44293   0.00000  Uiso   1.00
C468   C     0.90249   0.88051   0.38584   0.00000  Uiso   1.00
C469   C     0.77491   0.84553   0.01189   0.00000  Uiso   1.00
C470   C     0.81839   0.84155   0.49049   0.00000  Uiso   1.00
C471   C     0.83474   0.85143   0.44467   0.00000  Uiso   1.00
C472   C     0.84610   0.82817   0.01313   0.00000  Uiso   1.00
C473   C     0.88926   0.82462   0.48951   0.00000  Uiso   1.00
C474   C     0.90547   0.83812   0.44630   0.00000  Uiso   1.00
C475   C     0.87965   0.85462   0.42513   0.00000  Uiso   1.00
H476   H     0.92657   0.79693   0.07301   0.00000  Uiso   1.00
H477   H     0.93010   0.90103   0.39389   0.00000  Uiso   1.00
H478   H     0.91486   0.86003   0.35554   0.00000  Uiso   1.00
H479   H     0.88193   0.90169   0.37855   0.00000  Uiso   1.00
H480   H     0.87373   0.67060   0.21090   0.00000  Uiso   1.00
H481   H     0.79225   0.99787   0.28954   0.00000  Uiso   1.00
H482   H     0.93936   0.83877   0.43018   0.00000  Uiso   1.00
H483   H     0.95009   0.80832   0.49292   0.00000  Uiso   1.00
H484   H     0.80163   0.82405   0.07996   0.00000  Uiso   1.00
H485   H     0.74039   0.86784   0.42488   0.00000  Uiso   1.00
H486   H     0.76025   0.83973   0.04658   0.00000  Uiso   1.00
H487   H     0.71513   0.86022   0.00555   0.00000  Uiso   1.00
O488   O     0.83333   0.83333   0.25000   0.00000  Uiso   1.00
O489   O     0.82118   0.79304   0.15459   0.00000  Uiso   1.00
O490   O     0.79607   0.87058   0.34968   0.00000  Uiso   1.00
O491   O     0.87491   0.84425   0.14606   0.00000  Uiso   1.00
O492   O     0.84118   0.82546   0.34968   0.00000  Uiso   1.00
O493   O     0.84597   0.74686   0.28214   0.00000  Uiso   1.00
O494   O     0.81298   0.92751   0.27014   0.00000  Uiso   1.00
O495   O     0.74078   0.79958   0.23413   0.00000  Uiso   1.00
O496   O     0.93360   0.85939   0.21361   0.00000  Uiso   1.00
O497   O     0.73738   0.85544   0.28213   0.00000  Uiso   1.00
O498   O     0.92158   0.81892   0.27014   0.00000  Uiso   1.00
O499   O     0.80426   0.73610   0.23413   0.00000  Uiso   1.00
O500   O     0.87012   0.92286   0.21361   0.00000  Uiso   1.00
Zn501  Zn    0.86005   0.80661   0.28734   0.00000  Uiso   1.00
Zn502  Zn    0.80046   0.79124   0.21876   0.00000  Uiso   1.00
Zn503  Zn    0.87723   0.86442   0.20657   0.00000  Uiso   1.00
Zn504  Zn    0.79560   0.87106   0.28734   0.00000  Uiso   1.00
Br505  Br    0.30841   0.12644   0.81565   0.00000  Uiso   1.00
Br506  Br    0.03170   0.20633   0.68793   0.00000  Uiso   1.00
C507   C     0.05312   0.16005   0.75967   0.00000  Uiso   1.00
C508   C     0.16629   0.15297   0.55899   0.00000  Uiso   1.00
C509   C     0.23704   0.13744   0.55618   0.00000  Uiso   1.00
C510   C     0.28080   0.17378   0.74016   0.00000  Uiso   1.00
C511   C     0.13876   0.19085   0.92017   0.00000  Uiso   1.00
C512   C     0.32647   0.17593   0.73621   0.00000  Uiso   1.00
C513   C     0.00807   0.15721   0.76491   0.00000  Uiso   1.00
C514   C     0.18074   0.32261   0.73635   0.00000  Uiso   1.00
C515   C     0.15226   0.01178   0.76399   0.00000  Uiso   1.00
C516   C     0.15634   0.05591   0.76016   0.00000  Uiso   1.00
C517   C     0.17669   0.27797   0.74011   0.00000  Uiso   1.00
C518   C     0.08155   0.19059   0.98857   0.00000  Uiso   1.00
C519   C     0.18576   0.14830   0.62927   0.00000  Uiso   1.00
C520   C     0.14885   0.18500   0.87083   0.00000  Uiso   1.00
C521   C     0.25045   0.14438   0.51075   0.00000  Uiso   1.00
C522   C     0.19534   0.14282   0.58052   0.00000  Uiso   1.00
C523   C     0.09632   0.19572   0.94293   0.00000  Uiso   1.00
C524   C     0.23582   0.21384   0.88584   0.00000  Uiso   1.00
C525   C     0.10824   0.17887   0.51189   0.00000  Uiso   1.00
C526   C     0.15172   0.17488   0.99049   0.00000  Uiso   1.00
C527   C     0.16808   0.18476   0.94467   0.00000  Uiso   1.00
C528   C     0.17943   0.16151   0.51313   0.00000  Uiso   1.00
C529   C     0.22259   0.15795   0.98951   0.00000  Uiso   1.00
C530   C     0.23880   0.17146   0.94630   0.00000  Uiso   1.00
C531   C     0.21298   0.18796   0.92513   0.00000  Uiso   1.00
H532   H     0.25990   0.13026   0.57301   0.00000  Uiso   1.00
H533   H     0.26344   0.23437   0.89389   0.00000  Uiso   1.00
H534   H     0.24819   0.19337   0.85554   0.00000  Uiso   1.00
H535   H     0.21527   0.23503   0.87855   0.00000  Uiso   1.00
H536   H     0.20706   0.00394   0.71090   0.00000  Uiso   1.00
H537   H     0.12558   0.33121   0.78954   0.00000  Uiso   1.00
H538   H     0.27269   0.17211   0.93018   0.00000  Uiso   1.00
H539   H     0.28342   0.14166   0.99292   0.00000  Uiso   1.00
H540   H     0.13496   0.15739   0.57996   0.00000  Uiso   1.00
H541   H     0.07372   0.20118   0.92488   0.00000  Uiso   1.00
H542   H     0.09358   0.17306   0.54658   0.00000  Uiso   1.00
H543   H     0.04846   0.19355   0.50555   0.00000  Uiso   1.00
O544   O     0.16667   0.16667   0.75000   0.00000  Uiso   1.00
O545   O     0.15451   0.12637   0.65459   0.00000  Uiso   1.00
O546   O     0.12940   0.20391   0.84968   0.00000  Uiso   1.00
O547   O     0.20824   0.17759   0.64606   0.00000  Uiso   1.00
O548   O     0.17451   0.15880   0.84968   0.00000  Uiso   1.00
O549   O     0.17930   0.08019   0.78214   0.00000  Uiso   1.00
O550   O     0.14632   0.26085   0.77014   0.00000  Uiso   1.00
O551   O     0.07412   0.13291   0.73413   0.00000  Uiso   1.00
O552   O     0.26693   0.19272   0.71361   0.00000  Uiso   1.00
O553   O     0.07071   0.18878   0.78213   0.00000  Uiso   1.00
O554   O     0.25491   0.15226   0.77014   0.00000  Uiso   1.00
O555   O     0.13760   0.06944   0.73413   0.00000  Uiso   1.00
O556   O     0.20345   0.25620   0.71361   0.00000  Uiso   1.00
Zn557  Zn    0.19338   0.13994   0.78734   0.00000  Uiso   1.00
Zn558  Zn    0.13379   0.12458   0.71876   0.00000  Uiso   1.00
Zn559  Zn    0.21056   0.19775   0.70657   0.00000  Uiso   1.00
Zn560  Zn    0.12893   0.20439   0.78734   0.00000  Uiso   1.00
Br561  Br    0.64175   0.12644   0.81565   0.00000  Uiso   1.00
Br562  Br    0.36504   0.20633   0.68793   0.00000  Uiso   1.00
C563   C     0.38645   0.16005   0.75967   0.00000  Uiso   1.00
C564   C     0.49962   0.15297   0.55899   0.00000  Uiso   1.00
C565   C     0.57038   0.13744   0.55618   0.00000  Uiso   1.00
C566   C     0.61413   0.17378   0.74016   0.00000  Uiso   1.00
C567   C     0.47209   0.19085   0.92017   0.00000  Uiso   1.00
C568   C     0.65980   0.17593   0.73621   0.00000  Uiso   1.00
C569   C     0.34141   0.15721   0.76491   0.00000  Uiso   1.00
C570   C     0.51407   0.32261   0.73635   0.00000  Uiso   1.00
C571   C     0.48559   0.01178   0.76399   0.00000  Uiso   1.00
C572   C     0.48967   0.05591   0.76016   0.00000  Uiso   1.00
C573   C     0.51003   0.27797   0.74011   0.00000  Uiso   1.00
C574   C     0.41488   0.19059   0.98857   0.00000  Uiso   1.00
C575   C     0.51909   0.14830   0.62927   0.00000  Uiso   1.00
C576   C     0.48218   0.18500   0.87083   0.00000  Uiso   1.00
C577   C     0.58379   0.14438   0.51075   0.00000  Uiso   1.00
C578   C     0.52868   0.14282   0.58052   0.00000  Uiso   1.00
C579   C     0.42966   0.19572   0.94293   0.00000  Uiso   1.00
C580   C     0.56915   0.21384   0.88584   0.00000  Uiso   1.00
C581   C     0.44158   0.17887   0.51189   0.00000  Uiso   1.00
C582   C     0.48506   0.17488   0.99049   0.00000  Uiso   1.00
C583   C     0.50141   0.18476   0.94467   0.00000  Uiso   1.00
C584   C     0.51276   0.16151   0.51313   0.00000  Uiso   1.00
C585   C     0.55592   0.15795   0.98951   0.00000  Uiso   1.00
C586   C     0.57213   0.17146   0.94630   0.00000  Uiso   1.00
C587   C     0.54631   0.18796   0.92513   0.00000  Uiso   1.00
H588   H     0.59324   0.13026   0.57301   0.00000  Uiso   1.00
H589   H     0.59677   0.23437   0.89389   0.00000  Uiso   1.00
H590   H     0.58152   0.19337   0.85554   0.00000  Uiso   1.00
H591   H     0.54860   0.23503   0.87855   0.00000  Uiso   1.00
H592   H     0.54039   0.00394   0.71090   0.00000  Uiso   1.00
H593   H     0.45891   0.33121   0.78954   0.00000  Uiso   1.00
H594   H     0.60603   0.17211   0.93018   0.00000  Uiso   1.00
H595   H     0.61675   0.14166   0.99292   0.00000  Uiso   1.00
H596   H     0.46829   0.15739   0.57996   0.00000  Uiso   1.00
H597   H     0.40705   0.20118   0.92488   0.00000  Uiso   1.00
H598   H     0.42692   0.17306   0.54658   0.00000  Uiso   1.00
H599   H     0.38179   0.19355   0.50555   0.00000  Uiso   1.00
O600   O     0.50000   0.16667   0.75000   0.00000  Uiso   1.00
O601   O     0.48784   0.12637   0.65459   0.00000  Uiso   1.00
O602   O     0.46274   0.20391   0.84968   0.00000  Uiso   1.00
O603   O     0.54157   0.17759   0.64606   0.00000  Uiso   1.00
O604   O     0.50785   0.15880   0.84968   0.00000  Uiso   1.00
O605   O     0.51264   0.08019   0.78214   0.00000  Uiso   1.00
O606   O     0.47965   0.26085   0.77014   0.00000  Uiso   1.00
O607   O     0.40745   0.13291   0.73413   0.00000  Uiso   1.00
O608   O     0.60026   0.19272   0.71361   0.00000  Uiso   1.00
O609   O     0.40405   0.18878   0.78213   0.00000  Uiso   1.00
O610   O     0.58824   0.15226   0.77014   0.00000  Uiso   1.00
O611   O     0.47093   0.06944   0.73413   0.00000  Uiso   1.00
O612   O     0.53678   0.25620   0.71361   0.00000  Uiso   1.00
Zn613  Zn    0.52672   0.13994   0.78734   0.00000  Uiso   1.00
Zn614  Zn    0.46713   0.12458   0.71876   0.00000  Uiso   1.00
Zn615  Zn    0.54389   0.19775   0.70657   0.00000  Uiso   1.00
Zn616  Zn    0.46226   0.20439   0.78734   0.00000  Uiso   1.00
Br617  Br    0.97508   0.12644   0.81565   0.00000  Uiso   1.00
Br618  Br    0.69837   0.20633   0.68793   0.00000  Uiso   1.00
C619   C     0.71978   0.16005   0.75967   0.00000  Uiso   1.00
C620   C     0.83295   0.15297   0.55899   0.00000  Uiso   1.00
C621   C     0.90371   0.13744   0.55618   0.00000  Uiso   1.00
C622   C     0.94747   0.17378   0.74016   0.00000  Uiso   1.00
C623   C     0.80542   0.19085   0.92017   0.00000  Uiso   1.00
C624   C     0.99314   0.17593   0.73621   0.00000  Uiso   1.00
C625   C     0.67474   0.15721   0.76491   0.00000  Uiso   1.00
C626   C     0.84740   0.32261   0.73635   0.00000  Uiso   1.00
C627   C     0.81893   0.01178   0.76399   0.00000  Uiso   1.00
C628   C     0.82301   0.05591   0.76016   0.00000  Uiso   1.00
C629   C     0.84336   0.27797   0.74011   0.00000  Uiso   1.00
C630   C     0.74821   0.19059   0.98857   0.00000  Uiso   1.00
C631   C     0.85243   0.14830   0.62927   0.00000  Uiso   1.00
C632   C     0.81552   0.18500   0.87083   0.00000  Uiso   1.00
C633   C     0.91712   0.14438   0.51075   0.00000  Uiso   1.00
C634   C     0.86201   0.14282   0.58052   0.00000  Uiso   1.00
C635   C     0.76299   0.19572   0.94293   0.00000  Uiso   1.00
C636   C     0.90249   0.21384   0.88584   0.00000  Uiso   1.00
C637   C     0.77491   0.17887   0.51189   0.00000  Uiso   1.00
C638   C     0.81839   0.17488   0.99049   0.00000  Uiso   1.00
C639   C     0.83474   0.18476   0.94467   0.00000  Uiso   1.00
C640   C     0.84610   0.16151   0.51313   0.00000  Uiso   1.00
C641   C     0.88926   0.15795   0.98951   0.00000  Uiso   1.00
C642   C     0.90547   0.17146   0.94630   0.00000  Uiso   1.00
C643   C     0.87965   0.18796   0.92513   0.00000  Uiso   1.00
H644   H     0.92657   0.13026   0.57301   0.00000  Uiso   1.00
H645   H     0.93010   0.23437   0.89389   0.00000  Uiso   1.00
H646   H     0.91486   0.19337   0.85554   0.00000  Uiso   1.00
H647   H     0.88193   0.23503   0.87855   0.00000  Uiso   1.00
H648   H     0.87373   0.00394   0.71090   0.00000  Uiso   1.00
H649   H     0.79225   0.33121   0.78954   0.00000  Uiso   1.00
H650   H     0.93936   0.17211   0.93018   0.00000  Uiso   1.00
H651   H     0.95009   0.14166   0.99292   0.00000  Uiso   1.00
H652   H     0.80163   0.15739   0.57996   0.00000  Uiso   1.00
H653   H     0.74039   0.20118   0.92488   0.00000  Uiso   1.00
H654   H     0.76025   0.17306   0.54658   0.00000  Uiso   1.00
H655   H     0.71513   0.19355   0.50555   0.00000  Uiso   1.00
O656   O     0.83333   0.16667   0.75000   0.00000  Uiso   1.00
O657   O     0.82118   0.12637   0.65459   0.00000  Uiso   1.00
O658   O     0.79607   0.20391   0.84968   0.00000  Uiso   1.00
O659   O     0.87491   0.17759   0.64606   0.00000  Uiso   1.00
O660   O     0.84118   0.15880   0.84968   0.00000  Uiso   1.00
O661   O     0.84597   0.08019   0.78214   0.00000  Uiso   1.00
O662   O     0.81298   0.26085   0.77014   0.00000  Uiso   1.00
O663   O     0.74078   0.13291   0.73413   0.00000  Uiso   1.00
O664   O     0.93360   0.19272   0.71361   0.00000  Uiso   1.00
O665   O     0.73738   0.18878   0.78213   0.00000  Uiso   1.00
O666   O     0.92158   0.15226   0.77014   0.00000  Uiso   1.00
O667   O     0.80426   0.06944   0.73413   0.00000  Uiso   1.00
O668   O     0.87012   0.25620   0.71361   0.00000  Uiso   1.00
Zn669  Zn    0.86005   0.13994   0.78734   0.00000  Uiso   1.00
Zn670  Zn    0.80046   0.12458   0.71876   0.00000  Uiso   1.00
Zn671  Zn    0.87723   0.19775   0.70657   0.00000  Uiso   1.00
Zn672  Zn    0.79560   0.20439   0.78734   0.00000  Uiso   1.00
Br673  Br    0.30841   0.45977   0.81565   0.00000  Uiso   1.00
Br674  Br    0.03170   0.53967   0.68793   0.00000  Uiso   1.00
C675   C     0.05312   0.49338   0.75967   0.00000  Uiso   1.00
C676   C     0.16629   0.48630   0.55899   0.00000  Uiso   1.00
C677   C     0.23704   0.47078   0.55618   0.00000  Uiso   1.00
C678   C     0.28080   0.50711   0.74016   0.00000  Uiso   1.00
C679   C     0.13876   0.52419   0.92017   0.00000  Uiso   1.00
C680   C     0.32647   0.50927   0.73621   0.00000  Uiso   1.00
C681   C     0.00807   0.49055   0.76491   0.00000  Uiso   1.00
C682   C     0.18074   0.65595   0.73635   0.00000  Uiso   1.00
C683   C     0.15226   0.34511   0.76399   0.00000  Uiso   1.00
C684   C     0.15634   0.38925   0.76016   0.00000  Uiso   1.00
C685   C     0.17669   0.61130   0.74011   0.00000  Uiso   1.00
C686   C     0.08155   0.52392   0.98857   0.00000  Uiso   1.00
C687   C     0.18576   0.48164   0.62927   0.00000  Uiso   1.00
C688   C     0.14885   0.51833   0.87083   0.00000  Uiso   1.00
C689   C     0.25045   0.47771   0.51075   0.00000  Uiso   1.00
C690   C     0.19534   0.47615   0.58052   0.00000  Uiso   1.00
C691   C     0.09632   0.52906   0.94293   0.00000  Uiso   1.00
C692   C     0.23582   0.54717   0.88584   0.00000  Uiso   1.00
C693   C     0.10824   0.51220   0.51189   0.00000  Uiso   1.00
C694   C     0.15172   0.50822   0.99049   0.00000  Uiso   1.00
C695   C     0.16808   0.51810   0.94467   0.00000  Uiso   1.00
C696   C     0.17943   0.49484   0.51313   0.00000  Uiso   1.00
C697   C     0.22259   0.49129   0.98951   0.00000  Uiso   1.00
C698   C     0.23880   0.50479   0.94630   0.00000  Uiso   1.00
C699   C     0.21298   0.52129   0.92513   0.00000  Uiso   1.00
H700   H     0.25990   0.46360   0.57301   0.00000  Uiso   1.00
H701   H     0.26344   0.56770   0.89389   0.00000  Uiso   1.00
H702   H     0.24819   0.52670   0.85554   0.00000  Uiso   1.00
H703   H     0.21527   0.56836   0.87855   0.00000  Uiso   1.00
H704   H     0.20706   0.33727   0.71090   0.00000  Uiso   1.00
H705   H     0.12558   0.66454   0.78954   0.00000  Uiso   1.00
H706   H     0.27269   0.50544   0.93018   0.00000  Uiso   1.00
H707   H     0.28342   0.47499   0.99292   0.00000  Uiso   1.00
H708   H     0.13496   0.49072   0.57996   0.00000  Uiso   1.00
H709   H     0.07372   0.53451   0.92488   0.00000  Uiso   1.00
H710   H     0.09358   0.50640   0.54658   0.00000  Uiso   1.00
H711   H     0.04846   0.52688   0.50555   0.00000  Uiso   1.00
O712   O     0.16667   0.50000   0.75000   0.00000  Uiso   1.00
O713   O     0.15451   0.45970   0.65459   0.00000  Uiso   1.00
O714   O     0.12940   0.53724   0.84968   0.00000  Uiso   1.00
O715   O     0.20824   0.51092   0.64606   0.00000  Uiso   1.00
O716   O     0.17451   0.49213   0.84968   0.00000  Uiso   1.00
O717   O     0.17930   0.41352   0.78214   0.00000  Uiso   1.00
O718   O     0.14632   0.59418   0.77014   0.00000  Uiso   1.00
O719   O     0.07412   0.46625   0.73413   0.00000  Uiso   1.00
O720   O     0.26693   0.52605   0.71361   0.00000  Uiso   1.00
O721   O     0.07071   0.52211   0.78213   0.00000  Uiso   1.00
O722   O     0.25491   0.48559   0.77014   0.00000  Uiso   1.00
O723   O     0.13760   0.40277   0.73413   0.00000  Uiso   1.00
O724   O     0.20345   0.58953   0.71361   0.00000  Uiso   1.00
Zn725  Zn    0.19338   0.47327   0.78734   0.00000  Uiso   1.00
Zn726  Zn    0.13379   0.45791   0.71876   0.00000  Uiso   1.00
Zn727  Zn    0.21056   0.53109   0.70657   0.00000  Uiso   1.00
Zn728  Zn    0.12893   0.53773   0.78734   0.00000  Uiso   1.00
Br729  Br    0.64175   0.45977   0.81565   0.00000  Uiso   1.00
Br730  Br    0.36504   0.53967   0.68793   0.00000  Uiso   1.00
C731   C     0.38645   0.49338   0.75967   0.00000  Uiso   1.00
C732   C     0.49962   0.48630   0.55899   0.00000  Uiso   1.00
C733   C     0.57038   0.47078   0.55618   0.00000  Uiso   1.00
C734   C     0.61413   0.50711   0.74016   0.00000  Uiso   1.00
C735   C     0.47209   0.52419   0.92017   0.00000  Uiso   1.00
C736   C     0.65980   0.50927   0.73621   0.00000  Uiso   1.00
C737   C     0.34141   0.49055   0.76491   0.00000  Uiso   1.00
C738   C     0.51407   0.65595   0.73635   0.00000  Uiso   1.00
C739   C     0.48559   0.34511   0.76399   0.00000  Uiso   1.00
C740   C     0.48967   0.38925   0.76016   0.00000  Uiso   1.00
C741   C     0.51003   0.61130   0.74011   0.00000  Uiso   1.00
C742   C     0.41488   0.52392   0.98857   0.00000  Uiso   1.00
C743   C     0.51909   0.48164   0.62927   0.00000  Uiso   1.00
C744   C     0.48218   0.51833   0.87083   0.00000  Uiso   1.00
C745   C     0.58379   0.47771   0.51075   0.00000  Uiso   1.00
C746   C     0.52868   0.47615   0.58052   0.00000  Uiso   1.00
C747   C     0.42966   0.52906   0.94293   0.00000  Uiso   1.00
C748   C     0.56915   0.54717   0.88584   0.00000  Uiso   1.00
C749   C     0.44158   0.51220   0.51189   0.00000  Uiso   1.00
C750   C     0.48506   0.50822   0.99049   0.00000  Uiso   1.00
C751   C     0.50141   0.51810   0.94467   0.00000  Uiso   1.00
C752   C     0.51276   0.49484   0.51313   0.00000  Uiso   1.00
C753   C     0.55592   0.49129   0.98951   0.00000  Uiso   1.00
C754   C     0.57213   0.50479   0.94630   0.00000  Uiso   1.00
C755   C     0.54631   0.52129   0.92513   0.00000  Uiso   1.00
H756   H     0.59324   0.46360   0.57301   0.00000  Uiso   1.00
H757   H     0.59677   0.56770   0.89389   0.00000  Uiso   1.00
H758   H     0.58152   0.52670   0.85554   0.00000  Uiso   1.00
H759   H     0.54860   0.56836   0.87855   0.00000  Uiso   1.00
H760   H     0.54039   0.33727   0.71090   0.00000  Uiso   1.00
H761   H     0.45891   0.66454   0.78954   0.00000  Uiso   1.00
H762   H     0.60603   0.50544   0.93018   0.00000  Uiso   1.00
H763   H     0.61675   0.47499   0.99292   0.00000  Uiso   1.00
H764   H     0.46829   0.49072   0.57996   0.00000  Uiso   1.00
H765   H     0.40705   0.53451   0.92488   0.00000  Uiso   1.00
H766   H     0.42692   0.50640   0.54658   0.00000  Uiso   1.00
H767   H     0.38179   0.52688   0.50555   0.00000  Uiso   1.00
O768   O     0.50000   0.50000   0.75000   0.00000  Uiso   1.00
O769   O     0.48784   0.45970   0.65459   0.00000  Uiso   1.00
O770   O     0.46274   0.53724   0.84968   0.00000  Uiso   1.00
O771   O     0.54157   0.51092   0.64606   0.00000  Uiso   1.00
O772   O     0.50785   0.49213   0.84968   0.00000  Uiso   1.00
O773   O     0.51264   0.41352   0.78214   0.00000  Uiso   1.00
O774   O     0.47965   0.59418   0.77014   0.00000  Uiso   1.00
O775   O     0.40745   0.46625   0.73413   0.00000  Uiso   1.00
O776   O     0.60026   0.52605   0.71361   0.00000  Uiso   1.00
O777   O     0.40405   0.52211   0.78213   0.00000  Uiso   1.00
O778   O     0.58824   0.48559   0.77014   0.00000  Uiso   1.00
O779   O     0.47093   0.40277   0.73413   0.00000  Uiso   1.00
O780   O     0.53678   0.58953   0.71361   0.00000  Uiso   1.00
Zn781  Zn    0.52672   0.47327   0.78734   0.00000  Uiso   1.00
Zn782  Zn    0.46713   0.45791   0.71876   0.00000  Uiso   1.00
Zn783  Zn    0.54389   0.53109   0.70657   0.00000  Uiso   1.00
Zn784  Zn    0.46226   0.53773   0.78734   0.00000  Uiso   1.00
Br785  Br    0.97508   0.45977   0.81565   0.00000  Uiso   1.00
Br786  Br    0.69837   0.53967   0.68793   0.00000  Uiso   1.00
C787   C     0.71978   0.49338   0.75967   0.00000  Uiso   1.00
C788   C     0.83295   0.48630   0.55899   0.00000  Uiso   1.00
C789   C     0.90371   0.47078   0.55618   0.00000  Uiso   1.00
C790   C     0.94747   0.50711   0.74016   0.00000  Uiso   1.00
C791   C     0.80542   0.52419   0.92017   0.00000  Uiso   1.00
C792   C     0.99314   0.50927   0.73621   0.00000  Uiso   1.00
C793   C     0.67474   0.49055   0.76491   0.00000  Uiso   1.00
C794   C     0.84740   0.65595   0.73635   0.00000  Uiso   1.00
C795   C     0.81893   0.34511   0.76399   0.00000  Uiso   1.00
C796   C     0.82301   0.38925   0.76016   0.00000  Uiso   1.00
C797   C     0.84336   0.61130   0.74011   0.00000  Uiso   1.00
C798   C     0.74821   0.52392   0.98857   0.00000  Uiso   1.00
C799   C     0.85243   0.48164   0.62927   0.00000  Uiso   1.00
C800   C     0.81552   0.51833   0.87083   0.00000  Uiso   1.00
C801   C     0.91712   0.47771   0.51075   0.00000  Uiso   1.00
C802   C     0.86201   0.47615   0.58052   0.00000  Uiso   1.00
C803   C     0.76299   0.52906   0.94293   0.00000  Uiso   1.00
C804   C     0.90249   0.54717   0.88584   0.00000  Uiso   1.00
C805   C     0.77491   0.51220   0.51189   0.00000  Uiso   1.00
C806   C     0.81839   0.50822   0.99049   0.00000  Uiso   1.00
C807   C     0.83474   0.51810   0.94467   0.00000  Uiso   1.00
C808   C     0.84610   0.49484   0.51313   0.00000  Uiso   1.00
C809   C     0.88926   0.49129   0.98951   0.00000  Uiso   1.00
C810   C     0.90547   0.50479   0.94630   0.00000  Uiso   1.00
C811   C     0.87965   0.52129   0.92513   0.00000  Uiso   1.00
H812   H     0.92657   0.46360   0.57301   0.00000  Uiso   1.00
H813   H     0.93010   0.56770   0.89389   0.00000  Uiso   1.00
H814   H     0.91486   0.52670   0.85554   0.00000  Uiso   1.00
H815   H     0.88193   0.56836   0.87855   0.00000  Uiso   1.00
H816   H     0.87373   0.33727   0.71090   0.00000  Uiso   1.00
H817   H     0.79225   0.66454   0.78954   0.00000  Uiso   1.00
H818   H     0.93936   0.50544   0.93018   0.00000  Uiso   1.00
H819   H     0.95009   0.47499   0.99292   0.00000  Uiso   1.00
H820   H     0.80163   0.49072   0.57996   0.00000  Uiso   1.00
H821   H     0.74039   0.53451   0.92488   0.00000  Uiso   1.00
H822   H     0.76025   0.50640   0.54658   0.00000  Uiso   1.00
H823   H     0.71513   0.52688   0.50555   0.00000  Uiso   1.00
O824   O     0.83333   0.50000   0.75000   0.00000  Uiso   1.00
O825   O     0.82118   0.45970   0.65459   0.00000  Uiso   1.00
O826   O     0.79607   0.53724   0.84968   0.00000  Uiso   1.00
O827   O     0.87491   0.51092   0.64606   0.00000  Uiso   1.00
O828   O     0.84118   0.49213   0.84968   0.00000  Uiso   1.00
O829   O     0.84597   0.41352   0.78214   0.00000  Uiso   1.00
O830   O     0.81298   0.59418   0.77014   0.00000  Uiso   1.00
O831   O     0.74078   0.46625   0.73413   0.00000  Uiso   1.00
O832   O     0.93360   0.52605   0.71361   0.00000  Uiso   1.00
O833   O     0.73738   0.52211   0.78213   0.00000  Uiso   1.00
O834   O     0.92158   0.48559   0.77014   0.00000  Uiso   1.00
O835   O     0.80426   0.40277   0.73413   0.00000  Uiso   1.00
O836   O     0.87012   0.58953   0.71361   0.00000  Uiso   1.00
Zn837  Zn    0.86005   0.47327   0.78734   0.00000  Uiso   1.00
Zn838  Zn    0.80046   0.45791   0.71876   0.00000  Uiso   1.00
Zn839  Zn    0.87723   0.53109   0.70657   0.00000  Uiso   1.00
Zn840  Zn    0.79560   0.53773   0.78734   0.00000  Uiso   1.00
Br841  Br    0.30841   0.79311   0.81565   0.00000  Uiso   1.00
Br842  Br    0.03170   0.87300   0.68793   0.00000  Uiso   1.00
C843   C     0.05312   0.82672   0.75967   0.00000  Uiso   1.00
C844   C     0.16629   0.81963   0.55899   0.00000  Uiso   1.00
C845   C     0.23704   0.80411   0.55618   0.00000  Uiso   1.00
C846   C     0.28080   0.84045   0.74016   0.00000  Uiso   1.00
C847   C     0.13876   0.85752   0.92017   0.00000  Uiso   1.00
C848   C     0.32647   0.84260   0.73621   0.00000  Uiso   1.00
C849   C     0.00807   0.82388   0.76491   0.00000  Uiso   1.00
C850   C     0.18074   0.98928   0.73635   0.00000  Uiso   1.00
C851   C     0.15226   0.67845   0.76399   0.00000  Uiso   1.00
C852   C     0.15634   0.72258   0.76016   0.00000  Uiso   1.00
C853   C     0.17669   0.94464   0.74011   0.00000  Uiso   1.00
C854   C     0.08155   0.85725   0.98857   0.00000  Uiso   1.00
C855   C     0.18576   0.81497   0.62927   0.00000  Uiso   1.00
C856   C     0.14885   0.85166   0.87083   0.00000  Uiso   1.00
C857   C     0.25045   0.81105   0.51075   0.00000  Uiso   1.00
C858   C     0.19534   0.80949   0.58052   0.00000  Uiso   1.00
C859   C     0.09632   0.86239   0.94293   0.00000  Uiso   1.00
C860   C     0.23582   0.88051   0.88584   0.00000  Uiso   1.00
C861   C     0.10824   0.84553   0.51189   0.00000  Uiso   1.00
C862   C     0.15172   0.84155   0.99049   0.00000  Uiso   1.00
C863   C     0.16808   0.85143   0.94467   0.00000  Uiso   1.00
C864   C     0.17943   0.82817   0.51313   0.00000  Uiso   1.00
C865   C     0.22259   0.82462   0.98951   0.00000  Uiso   1.00
C866   C     0.23880   0.83812   0.94630   0.00000  Uiso   1.00
C867   C     0.21298   0.85462   0.92513   0.00000  Uiso   1.00
H868   H     0.25990   0.79693   0.57301   0.00000  Uiso   1.00
H869   H     0.26344   0.90103   0.89389   0.00000  Uiso   1.00
H870   H     0.24819   0.86003   0.85554   0.00000  Uiso   1.00
H871   H     0.21527   0.90169   0.87855   0.00000  Uiso   1.00
H872   H     0.20706   0.67060   0.71090   0.00000  Uiso   1.00
H873   H     0.12558   0.99787   0.78954   0.00000  Uiso   1.00
H874   H     0.27269   0.83877   0.93018   0.00000  Uiso   1.00
H875   H     0.28342   0.80832   0.99292   0.00000  Uiso   1.00
H876   H     0.13496   0.82405   0.57996   0.00000  Uiso   1.00
H877   H     0.07372   0.86784   0.92488   0.00000  Uiso   1.00
H878   H     0.09358   0.83973   0.54658   0.00000  Uiso   1.00
H879   H     0.04846   0.86022   0.50555   0.00000  Uiso   1.00
O880   O     0.16667   0.83333   0.75000   0.00000  Uiso   1.00
O881   O     0.15451   0.79304   0.65459   0.00000  Uiso   1.00
O882   O     0.12940   0.87058   0.84968   0.00000  Uiso   1.00
O883   O     0.20824   0.84425   0.64606   0.00000  Uiso   1.00
O884   O     0.17451   0.82546   0.84968   0.00000  Uiso   1.00
O885   O     0.17930   0.74686   0.78214   0.00000  Uiso   1.00
O886   O     0.14632   0.92751   0.77014   0.00000  Uiso   1.00
O887   O     0.07412   0.79958   0.73413   0.00000  Uiso   1.00
O888   O     0.26693   0.85939   0.71361   0.00000  Uiso   1.00
O889   O     0.07071   0.85544   0.78213   0.00000  Uiso   1.00
O890   O     0.25491   0.81892   0.77014   0.00000  Uiso   1.00
O891   O     0.13760   0.73610   0.73413   0.00000  Uiso   1.00
O892   O     0.20345   0.92286   0.71361   0.00000  Uiso   1.00
Zn893  Zn    0.19338   0.80661   0.78734   0.00000  Uiso   1.00
Zn894  Zn    0.13379   0.79124   0.71876   0.00000  Uiso   1.00
Zn895  Zn    0.21056   0.86442   0.70657   0.00000  Uiso   1.00
Zn896  Zn    0.12893   0.87106   0.78734   0.00000  Uiso   1.00
Br897  Br    0.64175   0.79311   0.81565   0.00000  Uiso   1.00
Br898  Br    0.36504   0.87300   0.68793   0.00000  Uiso   1.00
C899   C     0.38645   0.82672   0.75967   0.00000  Uiso   1.00
C900   C     0.49962   0.81963   0.55899   0.00000  Uiso   1.00
C901   C     0.57038   0.80411   0.55618   0.00000  Uiso   1.00
C902   C     0.61413   0.84045   0.74016   0.00000  Uiso   1.00
C903   C     0.47209   0.85752   0.92017   0.00000  Uiso   1.00
C904   C     0.65980   0.84260   0.73621   0.00000  Uiso   1.00
C905   C     0.34141   0.82388   0.76491   0.00000  Uiso   1.00
C906   C     0.51407   0.98928   0.73635   0.00000  Uiso   1.00
C907   C     0.48559   0.67845   0.76399   0.00000  Uiso   1.00
C908   C     0.48967   0.72258   0.76016   0.00000  Uiso   1.00
C909   C     0.51003   0.94464   0.74011   0.00000  Uiso   1.00
C910   C     0.41488   0.85725   0.98857   0.00000  Uiso   1.00
C911   C     0.51909   0.81497   0.62927   0.00000  Uiso   1.00
C912   C     0.48218   0.85166   0.87083   0.00000  Uiso   1.00
C913   C     0.58379   0.81105   0.51075   0.00000  Uiso   1.00
C914   C     0.52868   0.80949   0.58052   0.00000  Uiso   1.00
C915   C     0.42966   0.86239   0.94293   0.00000  Uiso   1.00
C916   C     0.56915   0.88051   0.88584   0.00000  Uiso   1.00
C917   C     0.44158   0.84553   0.51189   0.00000  Uiso   1.00
C918   C     0.48506   0.84155   0.99049   0.00000  Uiso   1.00
C919   C     0.50141   0.85143   0.94467   0.00000  Uiso   1.00
C920   C     0.51276   0.82817   0.51313   0.00000  Uiso   1.00
C921   C     0.55592   0.82462   0.98951   0.00000  Uiso   1.00
C922   C     0.57213   0.83812   0.94630   0.00000  Uiso   1.00
C923   C     0.54631   0.85462   0.92513   0.00000  Uiso   1.00
H924   H     0.59324   0.79693   0.57301   0.00000  Uiso   1.00
H925   H     0.59677   0.90103   0.89389   0.00000  Uiso   1.00
H926   H     0.58152   0.86003   0.85554   0.00000  Uiso   1.00
H927   H     0.54860   0.90169   0.87855   0.00000  Uiso   1.00
H928   H     0.54039   0.67060   0.71090   0.00000  Uiso   1.00
H929   H     0.45891   0.99787   0.78954   0.00000  Uiso   1.00
H930   H     0.60603   0.83877   0.93018   0.00000  Uiso   1.00
H931   H     0.61675   0.80832   0.99292   0.00000  Uiso   1.00
H932   H     0.46829   0.82405   0.57996   0.00000  Uiso   1.00
H933   H     0.40705   0.86784   0.92488   0.00000  Uiso   1.00
H934   H     0.42692   0.83973   0.54658   0.00000  Uiso   1.00
H935   H     0.38179   0.86022   0.50555   0.00000  Uiso   1.00
O936   O     0.50000   0.83333   0.75000   0.00000  Uiso   1.00
O937   O     0.48784   0.79304   0.65459   0.00000  Uiso   1.00
O938   O     0.46274   0.87058   0.84968   0.00000  Uiso   1.00
O939   O     0.54157   0.84425   0.64606   0.00000  Uiso   1.00
O940   O     0.50785   0.82546   0.84968   0.00000  Uiso   1.00
O941   O     0.51264   0.74686   0.78214   0.00000  Uiso   1.00
O942   O     0.47965   0.92751   0.77014   0.00000  Uiso   1.00
O943   O     0.40745   0.79958   0.73413   0.00000  Uiso   1.00
O944   O     0.60026   0.85939   0.71361   0.00000  Uiso   1.00
O945   O     0.40405   0.85544   0.78213   0.00000  Uiso   1.00
O946   O     0.58824   0.81892   0.77014   0.00000  Uiso   1.00
O947   O     0.47093   0.73610   0.73413   0.00000  Uiso   1.00
O948   O     0.53678   0.92286   0.71361   0.00000  Uiso   1.00
Zn949  Zn    0.52672   0.80661   0.78734   0.00000  Uiso   1.00
Zn950  Zn    0.46713   0.79124   0.71876   0.00000  Uiso   1.00
Zn951  Zn    0.54389   0.86442   0.70657   0.00000  Uiso   1.00
Zn952  Zn    0.46226   0.87106   0.78734   0.00000  Uiso   1.00
Br953  Br    0.97508   0.79311   0.81565   0.00000  Uiso   1.00
Br954  Br    0.69837   0.87300   0.68793   0.00000  Uiso   1.00
C955   C     0.71978   0.82672   0.75967   0.00000  Uiso   1.00
C956   C     0.83295   0.81963   0.55899   0.00000  Uiso   1.00
C957   C     0.90371   0.80411   0.55618   0.00000  Uiso   1.00
C958   C     0.94747   0.84045   0.74016   0.00000  Uiso   1.00
C959   C     0.80542   0.85752   0.92017   0.00000  Uiso   1.00
C960   C     0.99314   0.84260   0.73621   0.00000  Uiso   1.00
C961   C     0.67474   0.82388   0.76491   0.00000  Uiso   1.00
C962   C     0.84740   0.98928   0.73635   0.00000  Uiso   1.00
C963   C     0.81893   0.67845   0.76399   0.00000  Uiso   1.00
C964   C     0.82301   0.72258   0.76016   0.00000  Uiso   1.00
C965   C     0.84336   0.94464   0.74011   0.00000  Uiso   1.00
C966   C     0.74821   0.85725   0.98857   0.00000  Uiso   1.00
C967   C     0.85243   0.81497   0.62927   0.00000  Uiso   1.00
C968   C     0.81552   0.85166   0.87083   0.00000  Uiso   1.00
C969   C     0.91712   0.81105   0.51075   0.00000  Uiso   1.00
C970   C     0.86201   0.80949   0.58052   0.00000  Uiso   1.00
C971   C     0.76299   0.86239   0.94293   0.00000  Uiso   1.00
C972   C     0.90249   0.88051   0.88584   0.00000  Uiso   1.00
C973   C     0.77491   0.84553   0.51189   0.00000  Uiso   1.00
C974   C     0.81839   0.84155   0.99049   0.00000  Uiso   1.00
C975   C     0.83474   0.85143   0.94467   0.00000  Uiso   1.00
C976   C     0.84610   0.82817   0.51313   0.00000  Uiso   1.00
C977   C     0.88926   0.82462   0.98951   0.00000  Uiso   1.00
C978   C     0.90547   0.83812   0.94630   0.00000  Uiso   1.00
C979   C     0.87965   0.85462   0.92513   0.00000  Uiso   1.00
H980   H     0.92657   0.79693   0.57301   0.00000  Uiso   1.00
H981   H     0.93010   0.90103   0.89389   0.00000  Uiso   1.00
H982   H     0.91486   0.86003   0.85554   0.00000  Uiso   1.00
H983   H     0.88193   0.90169   0.87855   0.00000  Uiso   1.00
H984   H     0.87373   0.67060   0.71090   0.00000  Uiso   1.00
H985   H     0.79225   0.99787   0.78954   0.00000  Uiso   1.00
H986   H     0.93936   0.83877   0.93018   0.00000  Uiso   1.00
H987   H     0.95009   0.80832   0.99292   0.00000  Uiso   1.00
H988   H     0.80163   0.82405   0.57996   0.00000  Uiso   1.00
H989   H     0.74039   0.86784   0.92488   0.00000  Uiso   1.00
H990   H     0.76025   0.83973   0.54658   0.00000  Uiso   1.00
H991   H     0.71513   0.86022   0.50555   0.00000  Uiso   1.00
O992   O     0.83333   0.83333   0.75000   0.00000  Uiso   1.00
O993   O     0.82118   0.79304   0.65459   0.00000  Uiso   1.00
O994   O     0.79607   0.87058   0.84968   0.00000  Uiso   1.00
O995   O     0.87491   0.84425   0.64606   0.00000  Uiso   1.00
O996   O     0.84118   0.82546   0.84968   0.00000  Uiso   1.00
O997   O     0.84597   0.74686   0.78214   0.00000  Uiso   1.00
O998   O     0.81298   0.92751   0.77014   0.00000  Uiso   1.00
O999   O     0.74078   0.79958   0.73413   0.00000  Uiso   1.00
O1000  O     0.93360   0.85939   0.71361   0.00000  Uiso   1.00
O1001  O     0.73738   0.85544   0.78213   0.00000  Uiso   1.00
O1002  O     0.92158   0.81892   0.77014   0.00000  Uiso   1.00
O1003  O     0.80426   0.73610   0.73413   0.00000  Uiso   1.00
O1004  O     0.87012   0.92286   0.71361   0.00000  Uiso   1.00
Zn1005 Zn    0.86005   0.80661   0.78734   0.00000  Uiso   1.00
Zn1006 Zn    0.80046   0.79124   0.71876   0.00000  Uiso   1.00
Zn1007 Zn    0.87723   0.86442   0.70657   0.00000  Uiso   1.00
Zn1008 Zn    0.79560   0.87106   0.78734   0.00000  Uiso   1.00
loop_
_geom_bond_atom_site_label_1
_geom_bond_atom_site_label_2
_geom_bond_distance
_geom_bond_site_symmetry_2
_ccdc_geom_bond_type
Br1    C65     1.933   .     S
Br2    C120    1.932   1_455 S
C3     C9      1.430   .     S
C3     O49     1.268   .     A
C3     O47     1.270   .     A
C4     H36     1.077   .     S
C4     C18     1.392   .     A
C4     C24     1.413   .     A
C5     C17     1.388   .     A
C5     H28     1.084   .     S
C5     C18     1.397   .     A
C6     O50     1.268   .     A
C6     O48     1.285   .     A
C6     C8      1.460   .     S
C7     C19     1.402   .     A
C7     C23     1.420   .     A
C7     C16     1.470   .     S
C8     Br58    1.932   .     S
C8     C65     1.354   .     S
C9     C120    1.354   1_455 S
C9     Br113   1.933   1_455 S
C10    C13     1.451   .     S
C10    C179    1.332   .     S
C10    H200    1.088   .     S
C11    C12     1.435   .     S
C11    C346    1.332   1_545 S
C11    H369    1.086   1_545 S
C12    O51     1.280   .     A
C12    O45     1.281   .     A
C13    O52     1.270   .     A
C13    O46     1.270   .     A
C14    C19     1.384   .     A
C14    C525    1.388   .     S
C14    H543    1.083   .     S
C15    C18     1.453   .     S
C15    O43     1.271   .     A
C15    O41     1.281   .     A
C16    O44     1.286   .     A
C16    O42     1.279   .     A
C17    C529    1.401   1_554 S
C17    H539    1.084   1_554 S
C19    H37     1.084   .     S
C20    C27     1.512   .     S
C20    H30     1.108   .     S
C20    H29     1.111   .     S
C20    H31     1.108   .     S
C21    H38     1.076   .     S
C21    C518    1.388   1_554 S
C21    C526    1.418   1_554 S
C22    C23     1.427   .     A
C22    C525    1.418   .     S
C22    C528    1.424   .     S
C23    C27     1.424   .     A
C24    C526    1.424   1_554 S
C24    C529    1.421   1_554 S
C25    C26     1.392   .     A
C25    C521    1.401   .     S
C25    C528    1.421   .     S
C26    C27     1.392   .     A
C26    H34     1.086   .     S
H32    C346    1.088   1_545 S
H33    C179    1.086   .     S
H35    C521    1.084   .     S
H39    C518    1.083   1_554 S
O40    Zn55    1.927   .     S
O40    Zn54    1.954   .     S
O40    Zn53    1.959   .     S
O40    Zn56    1.934   .     S
O41    Zn54    1.922   .     S
O42    Zn56    1.936   .     S
O43    Zn55    1.936   .     S
O44    Zn53    1.923   .     S
O45    Zn53    1.929   .     S
O46    Zn56    1.926   .     S
O47    Zn54    1.936   .     S
O48    Zn55    1.948   .     S
O49    Zn56    1.946   .     S
O50    Zn53    1.933   .     S
O51    Zn54    1.931   .     S
O52    Zn55    1.929   .     S
Br57   C121    1.933   .     S
C59    C65     1.430   .     S
C59    O105    1.268   .     A
C59    O103    1.270   .     A
C60    H92     1.077   .     S
C60    C74     1.392   .     A
C60    C80     1.413   .     A
C61    C73     1.388   .     A
C61    H84     1.084   .     S
C61    C74     1.397   .     A
C62    O106    1.268   .     A
C62    O104    1.285   .     A
C62    C64     1.460   .     S
C63    C75     1.402   .     A
C63    C79     1.420   .     A
C63    C72     1.470   .     S
C64    Br114   1.932   .     S
C64    C121    1.354   .     S
C66    C69     1.451   .     S
C66    C235    1.332   .     S
C66    H256    1.088   .     S
C67    C68     1.435   .     S
C67    C402    1.332   1_545 S
C67    H425    1.086   1_545 S
C68    O107    1.280   .     A
C68    O101    1.281   .     A
C69    O108    1.270   .     A
C69    O102    1.270   .     A
C70    C75     1.384   .     A
C70    C581    1.388   .     S
C70    H599    1.083   .     S
C71    C74     1.453   .     S
C71    O99     1.271   .     A
C71    O97     1.281   .     A
C72    O100    1.286   .     A
C72    O98     1.279   .     A
C73    C585    1.401   1_554 S
C73    H595    1.084   1_554 S
C75    H93     1.084   .     S
C76    C83     1.512   .     S
C76    H86     1.108   .     S
C76    H85     1.111   .     S
C76    H87     1.108   .     S
C77    H94     1.076   .     S
C77    C574    1.388   1_554 S
C77    C582    1.418   1_554 S
C78    C79     1.427   .     A
C78    C581    1.418   .     S
C78    C584    1.424   .     S
C79    C83     1.424   .     A
C80    C582    1.424   1_554 S
C80    C585    1.421   1_554 S
C81    C82     1.392   .     A
C81    C577    1.401   .     S
C81    C584    1.421   .     S
C82    C83     1.392   .     A
C82    H90     1.086   .     S
H88    C402    1.088   1_545 S
H89    C235    1.086   .     S
H91    C577    1.084   .     S
H95    C574    1.083   1_554 S
O96    Zn111   1.927   .     S
O96    Zn110   1.954   .     S
O96    Zn109   1.959   .     S
O96    Zn112   1.934   .     S
O97    Zn110   1.922   .     S
O98    Zn112   1.936   .     S
O99    Zn111   1.936   .     S
O100   Zn109   1.923   .     S
O101   Zn109   1.929   .     S
O102   Zn112   1.926   .     S
O103   Zn110   1.936   .     S
O104   Zn111   1.948   .     S
O105   Zn112   1.946   .     S
O106   Zn109   1.933   .     S
O107   Zn110   1.931   .     S
O108   Zn111   1.929   .     S
Br113  C9      1.933   1_655 S
C115   C121    1.430   .     S
C115   O161    1.268   .     A
C115   O159    1.270   .     A
C116   H148    1.077   .     S
C116   C130    1.392   .     A
C116   C136    1.413   .     A
C117   C129    1.388   .     A
C117   H140    1.084   .     S
C117   C130    1.397   .     A
C118   O162    1.268   .     A
C118   O160    1.285   .     A
C118   C120    1.460   .     S
C119   C131    1.402   .     A
C119   C135    1.420   .     A
C119   C128    1.470   .     S
C120   Br2     1.932   1_655 S
C120   C9      1.354   1_655 S
C122   C125    1.451   .     S
C122   C291    1.332   .     S
C122   H312    1.088   .     S
C123   C124    1.435   .     S
C123   C458    1.332   1_545 S
C123   H481    1.086   1_545 S
C124   O163    1.280   .     A
C124   O157    1.281   .     A
C125   O164    1.270   .     A
C125   O158    1.270   .     A
C126   C131    1.384   .     A
C126   C637    1.388   .     S
C126   H655    1.083   .     S
C127   C130    1.453   .     S
C127   O155    1.271   .     A
C127   O153    1.281   .     A
C128   O156    1.286   .     A
C128   O154    1.279   .     A
C129   C641    1.401   1_554 S
C129   H651    1.084   1_554 S
C131   H149    1.084   .     S
C132   C139    1.512   .     S
C132   H142    1.108   .     S
C132   H141    1.111   .     S
C132   H143    1.108   .     S
C133   H150    1.076   .     S
C133   C630    1.388   1_554 S
C133   C638    1.418   1_554 S
C134   C135    1.427   .     A
C134   C637    1.418   .     S
C134   C640    1.424   .     S
C135   C139    1.424   .     A
C136   C638    1.424   1_554 S
C136   C641    1.421   1_554 S
C137   C138    1.392   .     A
C137   C633    1.401   .     S
C137   C640    1.421   .     S
C138   C139    1.392   .     A
C138   H146    1.086   .     S
H144   C458    1.088   1_545 S
H145   C291    1.086   .     S
H147   C633    1.084   .     S
H151   C630    1.083   1_554 S
O152   Zn167   1.927   .     S
O152   Zn166   1.954   .     S
O152   Zn165   1.959   .     S
O152   Zn168   1.934   .     S
O153   Zn166   1.922   .     S
O154   Zn168   1.936   .     S
O155   Zn167   1.936   .     S
O156   Zn165   1.923   .     S
O157   Zn165   1.929   .     S
O158   Zn168   1.926   .     S
O159   Zn166   1.936   .     S
O160   Zn167   1.948   .     S
O161   Zn168   1.946   .     S
O162   Zn165   1.933   .     S
O163   Zn166   1.931   .     S
O164   Zn167   1.929   .     S
Br169  C233    1.933   .     S
Br170  C288    1.932   1_455 S
C171   C177    1.430   .     S
C171   O217    1.268   .     A
C171   O215    1.270   .     A
C172   H204    1.077   .     S
C172   C186    1.392   .     A
C172   C192    1.413   .     A
C173   C185    1.388   .     A
C173   H196    1.084   .     S
C173   C186    1.397   .     A
C174   O218    1.268   .     A
C174   O216    1.285   .     A
C174   C176    1.460   .     S
C175   C187    1.402   .     A
C175   C191    1.420   .     A
C175   C184    1.470   .     S
C176   Br226   1.932   .     S
C176   C233    1.354   .     S
C177   C288    1.354   1_455 S
C177   Br281   1.933   1_455 S
C178   C181    1.451   .     S
C178   C347    1.332   .     S
C178   H368    1.088   .     S
C179   C180    1.435   .     S
C180   O219    1.280   .     A
C180   O213    1.281   .     A
C181   O220    1.270   .     A
C181   O214    1.270   .     A
C182   C187    1.384   .     A
C182   C693    1.388   .     S
C182   H711    1.083   .     S
C183   C186    1.453   .     S
C183   O211    1.271   .     A
C183   O209    1.281   .     A
C184   O212    1.286   .     A
C184   O210    1.279   .     A
C185   C697    1.401   1_554 S
C185   H707    1.084   1_554 S
C187   H205    1.084   .     S
C188   C195    1.512   .     S
C188   H198    1.108   .     S
C188   H197    1.111   .     S
C188   H199    1.108   .     S
C189   H206    1.076   .     S
C189   C686    1.388   1_554 S
C189   C694    1.418   1_554 S
C190   C191    1.427   .     A
C190   C693    1.418   .     S
C190   C696    1.424   .     S
C191   C195    1.424   .     A
C192   C694    1.424   1_554 S
C192   C697    1.421   1_554 S
C193   C194    1.392   .     A
C193   C689    1.401   .     S
C193   C696    1.421   .     S
C194   C195    1.392   .     A
C194   H202    1.086   .     S
H201   C347    1.086   .     S
H203   C689    1.084   .     S
H207   C686    1.083   1_554 S
O208   Zn223   1.927   .     S
O208   Zn222   1.954   .     S
O208   Zn221   1.959   .     S
O208   Zn224   1.934   .     S
O209   Zn222   1.922   .     S
O210   Zn224   1.936   .     S
O211   Zn223   1.936   .     S
O212   Zn221   1.923   .     S
O213   Zn221   1.929   .     S
O214   Zn224   1.926   .     S
O215   Zn222   1.936   .     S
O216   Zn223   1.948   .     S
O217   Zn224   1.946   .     S
O218   Zn221   1.933   .     S
O219   Zn222   1.931   .     S
O220   Zn223   1.929   .     S
Br225  C289    1.933   .     S
C227   C233    1.430   .     S
C227   O273    1.268   .     A
C227   O271    1.270   .     A
C228   H260    1.077   .     S
C228   C242    1.392   .     A
C228   C248    1.413   .     A
C229   C241    1.388   .     A
C229   H252    1.084   .     S
C229   C242    1.397   .     A
C230   O274    1.268   .     A
C230   O272    1.285   .     A
C230   C232    1.460   .     S
C231   C243    1.402   .     A
C231   C247    1.420   .     A
C231   C240    1.470   .     S
C232   Br282   1.932   .     S
C232   C289    1.354   .     S
C234   C237    1.451   .     S
C234   C403    1.332   .     S
C234   H424    1.088   .     S
C235   C236    1.435   .     S
C236   O275    1.280   .     A
C236   O269    1.281   .     A
C237   O276    1.270   .     A
C237   O270    1.270   .     A
C238   C243    1.384   .     A
C238   C749    1.388   .     S
C238   H767    1.083   .     S
C239   C242    1.453   .     S
C239   O267    1.271   .     A
C239   O265    1.281   .     A
C240   O268    1.286   .     A
C240   O266    1.279   .     A
C241   C753    1.401   1_554 S
C241   H763    1.084   1_554 S
C243   H261    1.084   .     S
C244   C251    1.512   .     S
C244   H254    1.108   .     S
C244   H253    1.111   .     S
C244   H255    1.108   .     S
C245   H262    1.076   .     S
C245   C742    1.388   1_554 S
C245   C750    1.418   1_554 S
C246   C247    1.427   .     A
C246   C749    1.418   .     S
C246   C752    1.424   .     S
C247   C251    1.424   .     A
C248   C750    1.424   1_554 S
C248   C753    1.421   1_554 S
C249   C250    1.392   .     A
C249   C745    1.401   .     S
C249   C752    1.421   .     S
C250   C251    1.392   .     A
C250   H258    1.086   .     S
H257   C403    1.086   .     S
H259   C745    1.084   .     S
H263   C742    1.083   1_554 S
O264   Zn279   1.927   .     S
O264   Zn278   1.954   .     S
O264   Zn277   1.959   .     S
O264   Zn280   1.934   .     S
O265   Zn278   1.922   .     S
O266   Zn280   1.936   .     S
O267   Zn279   1.936   .     S
O268   Zn277   1.923   .     S
O269   Zn277   1.929   .     S
O270   Zn280   1.926   .     S
O271   Zn278   1.936   .     S
O272   Zn279   1.948   .     S
O273   Zn280   1.946   .     S
O274   Zn277   1.933   .     S
O275   Zn278   1.931   .     S
O276   Zn279   1.929   .     S
Br281  C177    1.933   1_655 S
C283   C289    1.430   .     S
C283   O329    1.268   .     A
C283   O327    1.270   .     A
C284   H316    1.077   .     S
C284   C298    1.392   .     A
C284   C304    1.413   .     A
C285   C297    1.388   .     A
C285   H308    1.084   .     S
C285   C298    1.397   .     A
C286   O330    1.268   .     A
C286   O328    1.285   .     A
C286   C288    1.460   .     S
C287   C299    1.402   .     A
C287   C303    1.420   .     A
C287   C296    1.470   .     S
C288   Br170   1.932   1_655 S
C288   C177    1.354   1_655 S
C290   C293    1.451   .     S
C290   C459    1.332   .     S
C290   H480    1.088   .     S
C291   C292    1.435   .     S
C292   O331    1.280   .     A
C292   O325    1.281   .     A
C293   O332    1.270   .     A
C293   O326    1.270   .     A
C294   C299    1.384   .     A
C294   C805    1.388   .     S
C294   H823    1.083   .     S
C295   C298    1.453   .     S
C295   O323    1.271   .     A
C295   O321    1.281   .     A
C296   O324    1.286   .     A
C296   O322    1.279   .     A
C297   C809    1.401   1_554 S
C297   H819    1.084   1_554 S
C299   H317    1.084   .     S
C300   C307    1.512   .     S
C300   H310    1.108   .     S
C300   H309    1.111   .     S
C300   H311    1.108   .     S
C301   H318    1.076   .     S
C301   C798    1.388   1_554 S
C301   C806    1.418   1_554 S
C302   C303    1.427   .     A
C302   C805    1.418   .     S
C302   C808    1.424   .     S
C303   C307    1.424   .     A
C304   C806    1.424   1_554 S
C304   C809    1.421   1_554 S
C305   C306    1.392   .     A
C305   C801    1.401   .     S
C305   C808    1.421   .     S
C306   C307    1.392   .     A
C306   H314    1.086   .     S
H313   C459    1.086   .     S
H315   C801    1.084   .     S
H319   C798    1.083   1_554 S
O320   Zn335   1.927   .     S
O320   Zn334   1.954   .     S
O320   Zn333   1.959   .     S
O320   Zn336   1.934   .     S
O321   Zn334   1.922   .     S
O322   Zn336   1.936   .     S
O323   Zn335   1.936   .     S
O324   Zn333   1.923   .     S
O325   Zn333   1.929   .     S
O326   Zn336   1.926   .     S
O327   Zn334   1.936   .     S
O328   Zn335   1.948   .     S
O329   Zn336   1.946   .     S
O330   Zn333   1.933   .     S
O331   Zn334   1.931   .     S
O332   Zn335   1.929   .     S
Br337  C401    1.933   .     S
Br338  C456    1.932   1_455 S
C339   C345    1.430   .     S
C339   O385    1.268   .     A
C339   O383    1.270   .     A
C340   H372    1.077   .     S
C340   C354    1.392   .     A
C340   C360    1.413   .     A
C341   C353    1.388   .     A
C341   H364    1.084   .     S
C341   C354    1.397   .     A
C342   O386    1.268   .     A
C342   O384    1.285   .     A
C342   C344    1.460   .     S
C343   C355    1.402   .     A
C343   C359    1.420   .     A
C343   C352    1.470   .     S
C344   Br394   1.932   .     S
C344   C401    1.354   .     S
C345   C456    1.354   1_455 S
C345   Br449   1.933   1_455 S
C346   C349    1.451   .     S
C346   C11     1.332   1_565 S
C346   H32     1.088   1_565 S
C347   C348    1.435   .     S
C348   O387    1.280   .     A
C348   O381    1.281   .     A
C349   O388    1.270   .     A
C349   O382    1.270   .     A
C350   C355    1.384   .     A
C350   C861    1.388   .     S
C350   H879    1.083   .     S
C351   C354    1.453   .     S
C351   O379    1.271   .     A
C351   O377    1.281   .     A
C352   O380    1.286   .     A
C352   O378    1.279   .     A
C353   C865    1.401   1_554 S
C353   H875    1.084   1_554 S
C355   H373    1.084   .     S
C356   C363    1.512   .     S
C356   H366    1.108   .     S
C356   H365    1.111   .     S
C356   H367    1.108   .     S
C357   H374    1.076   .     S
C357   C854    1.388   1_554 S
C357   C862    1.418   1_554 S
C358   C359    1.427   .     A
C358   C861    1.418   .     S
C358   C864    1.424   .     S
C359   C363    1.424   .     A
C360   C862    1.424   1_554 S
C360   C865    1.421   1_554 S
C361   C362    1.392   .     A
C361   C857    1.401   .     S
C361   C864    1.421   .     S
C362   C363    1.392   .     A
C362   H370    1.086   .     S
H369   C11     1.086   1_565 S
H371   C857    1.084   .     S
H375   C854    1.083   1_554 S
O376   Zn391   1.927   .     S
O376   Zn390   1.954   .     S
O376   Zn389   1.959   .     S
O376   Zn392   1.934   .     S
O377   Zn390   1.922   .     S
O378   Zn392   1.936   .     S
O379   Zn391   1.936   .     S
O380   Zn389   1.923   .     S
O381   Zn389   1.929   .     S
O382   Zn392   1.926   .     S
O383   Zn390   1.936   .     S
O384   Zn391   1.948   .     S
O385   Zn392   1.946   .     S
O386   Zn389   1.933   .     S
O387   Zn390   1.931   .     S
O388   Zn391   1.929   .     S
Br393  C457    1.933   .     S
C395   C401    1.430   .     S
C395   O441    1.268   .     A
C395   O439    1.270   .     A
C396   H428    1.077   .     S
C396   C410    1.392   .     A
C396   C416    1.413   .     A
C397   C409    1.388   .     A
C397   H420    1.084   .     S
C397   C410    1.397   .     A
C398   O442    1.268   .     A
C398   O440    1.285   .     A
C398   C400    1.460   .     S
C399   C411    1.402   .     A
C399   C415    1.420   .     A
C399   C408    1.470   .     S
C400   Br450   1.932   .     S
C400   C457    1.354   .     S
C402   C405    1.451   .     S
C402   C67     1.332   1_565 S
C402   H88     1.088   1_565 S
C403   C404    1.435   .     S
C404   O443    1.280   .     A
C404   O437    1.281   .     A
C405   O444    1.270   .     A
C405   O438    1.270   .     A
C406   C411    1.384   .     A
C406   C917    1.388   .     S
C406   H935    1.083   .     S
C407   C410    1.453   .     S
C407   O435    1.271   .     A
C407   O433    1.281   .     A
C408   O436    1.286   .     A
C408   O434    1.279   .     A
C409   C921    1.401   1_554 S
C409   H931    1.084   1_554 S
C411   H429    1.084   .     S
C412   C419    1.512   .     S
C412   H422    1.108   .     S
C412   H421    1.111   .     S
C412   H423    1.108   .     S
C413   H430    1.076   .     S
C413   C910    1.388   1_554 S
C413   C918    1.418   1_554 S
C414   C415    1.427   .     A
C414   C917    1.418   .     S
C414   C920    1.424   .     S
C415   C419    1.424   .     A
C416   C918    1.424   1_554 S
C416   C921    1.421   1_554 S
C417   C418    1.392   .     A
C417   C913    1.401   .     S
C417   C920    1.421   .     S
C418   C419    1.392   .     A
C418   H426    1.086   .     S
H425   C67     1.086   1_565 S
H427   C913    1.084   .     S
H431   C910    1.083   1_554 S
O432   Zn447   1.927   .     S
O432   Zn446   1.954   .     S
O432   Zn445   1.959   .     S
O432   Zn448   1.934   .     S
O433   Zn446   1.922   .     S
O434   Zn448   1.936   .     S
O435   Zn447   1.936   .     S
O436   Zn445   1.923   .     S
O437   Zn445   1.929   .     S
O438   Zn448   1.926   .     S
O439   Zn446   1.936   .     S
O440   Zn447   1.948   .     S
O441   Zn448   1.946   .     S
O442   Zn445   1.933   .     S
O443   Zn446   1.931   .     S
O444   Zn447   1.929   .     S
Br449  C345    1.933   1_655 S
C451   C457    1.430   .     S
C451   O497    1.268   .     A
C451   O495    1.270   .     A
C452   H484    1.077   .     S
C452   C466    1.392   .     A
C452   C472    1.413   .     A
C453   C465    1.388   .     A
C453   H476    1.084   .     S
C453   C466    1.397   .     A
C454   O498    1.268   .     A
C454   O496    1.285   .     A
C454   C456    1.460   .     S
C455   C467    1.402   .     A
C455   C471    1.420   .     A
C455   C464    1.470   .     S
C456   Br338   1.932   1_655 S
C456   C345    1.354   1_655 S
C458   C461    1.451   .     S
C458   C123    1.332   1_565 S
C458   H144    1.088   1_565 S
C459   C460    1.435   .     S
C460   O499    1.280   .     A
C460   O493    1.281   .     A
C461   O500    1.270   .     A
C461   O494    1.270   .     A
C462   C467    1.384   .     A
C462   C973    1.388   .     S
C462   H991    1.083   .     S
C463   C466    1.453   .     S
C463   O491    1.271   .     A
C463   O489    1.281   .     A
C464   O492    1.286   .     A
C464   O490    1.279   .     A
C465   C977    1.401   1_554 S
C465   H987    1.084   1_554 S
C467   H485    1.084   .     S
C468   C475    1.512   .     S
C468   H478    1.108   .     S
C468   H477    1.111   .     S
C468   H479    1.108   .     S
C469   H486    1.076   .     S
C469   C966    1.388   1_554 S
C469   C974    1.418   1_554 S
C470   C471    1.427   .     A
C470   C973    1.418   .     S
C470   C976    1.424   .     S
C471   C475    1.424   .     A
C472   C974    1.424   1_554 S
C472   C977    1.421   1_554 S
C473   C474    1.392   .     A
C473   C969    1.401   .     S
C473   C976    1.421   .     S
C474   C475    1.392   .     A
C474   H482    1.086   .     S
H481   C123    1.086   1_565 S
H483   C969    1.084   .     S
H487   C966    1.083   1_554 S
O488   Zn503   1.927   .     S
O488   Zn502   1.954   .     S
O488   Zn501   1.959   .     S
O488   Zn504   1.934   .     S
O489   Zn502   1.922   .     S
O490   Zn504   1.936   .     S
O491   Zn503   1.936   .     S
O492   Zn501   1.923   .     S
O493   Zn501   1.929   .     S
O494   Zn504   1.926   .     S
O495   Zn502   1.936   .     S
O496   Zn503   1.948   .     S
O497   Zn504   1.946   .     S
O498   Zn501   1.933   .     S
O499   Zn502   1.931   .     S
O500   Zn503   1.929   .     S
Br505  C569    1.933   .     S
Br506  C624    1.932   1_455 S
C507   C513    1.430   .     S
C507   O553    1.268   .     A
C507   O551    1.270   .     A
C508   H540    1.077   .     S
C508   C522    1.392   .     A
C508   C528    1.413   .     A
C509   C521    1.388   .     A
C509   H532    1.084   .     S
C509   C522    1.397   .     A
C510   O554    1.268   .     A
C510   O552    1.285   .     A
C510   C512    1.460   .     S
C511   C523    1.402   .     A
C511   C527    1.420   .     A
C511   C520    1.470   .     S
C512   Br562   1.932   .     S
C512   C569    1.354   .     S
C513   C624    1.354   1_455 S
C513   Br617   1.933   1_455 S
C514   C517    1.451   .     S
C514   C683    1.332   .     S
C514   H704    1.088   .     S
C515   C516    1.435   .     S
C515   C850    1.332   1_545 S
C515   H873    1.086   1_545 S
C516   O555    1.280   .     A
C516   O549    1.281   .     A
C517   O556    1.270   .     A
C517   O550    1.270   .     A
C518   C523    1.384   .     A
C518   C21     1.388   1_556 S
C518   H39     1.083   1_556 S
C519   C522    1.453   .     S
C519   O547    1.271   .     A
C519   O545    1.281   .     A
C520   O548    1.286   .     A
C520   O546    1.279   .     A
C523   H541    1.084   .     S
C524   C531    1.512   .     S
C524   H534    1.108   .     S
C524   H533    1.111   .     S
C524   H535    1.108   .     S
C525   H542    1.076   .     S
C526   C527    1.427   .     A
C526   C21     1.418   1_556 S
C526   C24     1.424   1_556 S
C527   C531    1.424   .     A
C529   C530    1.392   .     A
C529   C17     1.401   1_556 S
C529   C24     1.421   1_556 S
C530   C531    1.392   .     A
C530   H538    1.086   .     S
H536   C850    1.088   1_545 S
H537   C683    1.086   .     S
H539   C17     1.084   1_556 S
O544   Zn559   1.927   .     S
O544   Zn558   1.954   .     S
O544   Zn557   1.959   .     S
O544   Zn560   1.934   .     S
O545   Zn558   1.922   .     S
O546   Zn560   1.936   .     S
O547   Zn559   1.936   .     S
O548   Zn557   1.923   .     S
O549   Zn557   1.929   .     S
O550   Zn560   1.926   .     S
O551   Zn558   1.936   .     S
O552   Zn559   1.948   .     S
O553   Zn560   1.946   .     S
O554   Zn557   1.933   .     S
O555   Zn558   1.931   .     S
O556   Zn559   1.929   .     S
Br561  C625    1.933   .     S
C563   C569    1.430   .     S
C563   O609    1.268   .     A
C563   O607    1.270   .     A
C564   H596    1.077   .     S
C564   C578    1.392   .     A
C564   C584    1.413   .     A
C565   C577    1.388   .     A
C565   H588    1.084   .     S
C565   C578    1.397   .     A
C566   O610    1.268   .     A
C566   O608    1.285   .     A
C566   C568    1.460   .     S
C567   C579    1.402   .     A
C567   C583    1.420   .     A
C567   C576    1.470   .     S
C568   Br618   1.932   .     S
C568   C625    1.354   .     S
C570   C573    1.451   .     S
C570   C739    1.332   .     S
C570   H760    1.088   .     S
C571   C572    1.435   .     S
C571   C906    1.332   1_545 S
C571   H929    1.086   1_545 S
C572   O611    1.280   .     A
C572   O605    1.281   .     A
C573   O612    1.270   .     A
C573   O606    1.270   .     A
C574   C579    1.384   .     A
C574   C77     1.388   1_556 S
C574   H95     1.083   1_556 S
C575   C578    1.453   .     S
C575   O603    1.271   .     A
C575   O601    1.281   .     A
C576   O604    1.286   .     A
C576   O602    1.279   .     A
C579   H597    1.084   .     S
C580   C587    1.512   .     S
C580   H590    1.108   .     S
C580   H589    1.111   .     S
C580   H591    1.108   .     S
C581   H598    1.076   .     S
C582   C583    1.427   .     A
C582   C77     1.418   1_556 S
C582   C80     1.424   1_556 S
C583   C587    1.424   .     A
C585   C586    1.392   .     A
C585   C73     1.401   1_556 S
C585   C80     1.421   1_556 S
C586   C587    1.392   .     A
C586   H594    1.086   .     S
H592   C906    1.088   1_545 S
H593   C739    1.086   .     S
H595   C73     1.084   1_556 S
O600   Zn615   1.927   .     S
O600   Zn614   1.954   .     S
O600   Zn613   1.959   .     S
O600   Zn616   1.934   .     S
O601   Zn614   1.922   .     S
O602   Zn616   1.936   .     S
O603   Zn615   1.936   .     S
O604   Zn613   1.923   .     S
O605   Zn613   1.929   .     S
O606   Zn616   1.926   .     S
O607   Zn614   1.936   .     S
O608   Zn615   1.948   .     S
O609   Zn616   1.946   .     S
O610   Zn613   1.933   .     S
O611   Zn614   1.931   .     S
O612   Zn615   1.929   .     S
Br617  C513    1.933   1_655 S
C619   C625    1.430   .     S
C619   O665    1.268   .     A
C619   O663    1.270   .     A
C620   H652    1.077   .     S
C620   C634    1.392   .     A
C620   C640    1.413   .     A
C621   C633    1.388   .     A
C621   H644    1.084   .     S
C621   C634    1.397   .     A
C622   O666    1.268   .     A
C622   O664    1.285   .     A
C622   C624    1.460   .     S
C623   C635    1.402   .     A
C623   C639    1.420   .     A
C623   C632    1.470   .     S
C624   Br506   1.932   1_655 S
C624   C513    1.354   1_655 S
C626   C629    1.451   .     S
C626   C795    1.332   .     S
C626   H816    1.088   .     S
C627   C628    1.435   .     S
C627   C962    1.332   1_545 S
C627   H985    1.086   1_545 S
C628   O667    1.280   .     A
C628   O661    1.281   .     A
C629   O668    1.270   .     A
C629   O662    1.270   .     A
C630   C635    1.384   .     A
C630   C133    1.388   1_556 S
C630   H151    1.083   1_556 S
C631   C634    1.453   .     S
C631   O659    1.271   .     A
C631   O657    1.281   .     A
C632   O660    1.286   .     A
C632   O658    1.279   .     A
C635   H653    1.084   .     S
C636   C643    1.512   .     S
C636   H646    1.108   .     S
C636   H645    1.111   .     S
C636   H647    1.108   .     S
C637   H654    1.076   .     S
C638   C639    1.427   .     A
C638   C133    1.418   1_556 S
C638   C136    1.424   1_556 S
C639   C643    1.424   .     A
C641   C642    1.392   .     A
C641   C129    1.401   1_556 S
C641   C136    1.421   1_556 S
C642   C643    1.392   .     A
C642   H650    1.086   .     S
H648   C962    1.088   1_545 S
H649   C795    1.086   .     S
H651   C129    1.084   1_556 S
O656   Zn671   1.927   .     S
O656   Zn670   1.954   .     S
O656   Zn669   1.959   .     S
O656   Zn672   1.934   .     S
O657   Zn670   1.922   .     S
O658   Zn672   1.936   .     S
O659   Zn671   1.936   .     S
O660   Zn669   1.923   .     S
O661   Zn669   1.929   .     S
O662   Zn672   1.926   .     S
O663   Zn670   1.936   .     S
O664   Zn671   1.948   .     S
O665   Zn672   1.946   .     S
O666   Zn669   1.933   .     S
O667   Zn670   1.931   .     S
O668   Zn671   1.929   .     S
Br673  C737    1.933   .     S
Br674  C792    1.932   1_455 S
C675   C681    1.430   .     S
C675   O721    1.268   .     A
C675   O719    1.270   .     A
C676   H708    1.077   .     S
C676   C690    1.392   .     A
C676   C696    1.413   .     A
C677   C689    1.388   .     A
C677   H700    1.084   .     S
C677   C690    1.397   .     A
C678   O722    1.268   .     A
C678   O720    1.285   .     A
C678   C680    1.460   .     S
C679   C691    1.402   .     A
C679   C695    1.420   .     A
C679   C688    1.470   .     S
C680   Br730   1.932   .     S
C680   C737    1.354   .     S
C681   C792    1.354   1_455 S
C681   Br785   1.933   1_455 S
C682   C685    1.451   .     S
C682   C851    1.332   .     S
C682   H872    1.088   .     S
C683   C684    1.435   .     S
C684   O723    1.280   .     A
C684   O717    1.281   .     A
C685   O724    1.270   .     A
C685   O718    1.270   .     A
C686   C691    1.384   .     A
C686   C189    1.388   1_556 S
C686   H207    1.083   1_556 S
C687   C690    1.453   .     S
C687   O715    1.271   .     A
C687   O713    1.281   .     A
C688   O716    1.286   .     A
C688   O714    1.279   .     A
C691   H709    1.084   .     S
C692   C699    1.512   .     S
C692   H702    1.108   .     S
C692   H701    1.111   .     S
C692   H703    1.108   .     S
C693   H710    1.076   .     S
C694   C695    1.427   .     A
C694   C189    1.418   1_556 S
C694   C192    1.424   1_556 S
C695   C699    1.424   .     A
C697   C698    1.392   .     A
C697   C185    1.401   1_556 S
C697   C192    1.421   1_556 S
C698   C699    1.392   .     A
C698   H706    1.086   .     S
H705   C851    1.086   .     S
H707   C185    1.084   1_556 S
O712   Zn727   1.927   .     S
O712   Zn726   1.954   .     S
O712   Zn725   1.959   .     S
O712   Zn728   1.934   .     S
O713   Zn726   1.922   .     S
O714   Zn728   1.936   .     S
O715   Zn727   1.936   .     S
O716   Zn725   1.923   .     S
O717   Zn725   1.929   .     S
O718   Zn728   1.926   .     S
O719   Zn726   1.936   .     S
O720   Zn727   1.948   .     S
O721   Zn728   1.946   .     S
O722   Zn725   1.933   .     S
O723   Zn726   1.931   .     S
O724   Zn727   1.929   .     S
Br729  C793    1.933   .     S
C731   C737    1.430   .     S
C731   O777    1.268   .     A
C731   O775    1.270   .     A
C732   H764    1.077   .     S
C732   C746    1.392   .     A
C732   C752    1.413   .     A
C733   C745    1.388   .     A
C733   H756    1.084   .     S
C733   C746    1.397   .     A
C734   O778    1.268   .     A
C734   O776    1.285   .     A
C734   C736    1.460   .     S
C735   C747    1.402   .     A
C735   C751    1.420   .     A
C735   C744    1.470   .     S
C736   Br786   1.932   .     S
C736   C793    1.354   .     S
C738   C741    1.451   .     S
C738   C907    1.332   .     S
C738   H928    1.088   .     S
C739   C740    1.435   .     S
C740   O779    1.280   .     A
C740   O773    1.281   .     A
C741   O780    1.270   .     A
C741   O774    1.270   .     A
C742   C747    1.384   .     A
C742   C245    1.388   1_556 S
C742   H263    1.083   1_556 S
C743   C746    1.453   .     S
C743   O771    1.271   .     A
C743   O769    1.281   .     A
C744   O772    1.286   .     A
C744   O770    1.279   .     A
C747   H765    1.084   .     S
C748   C755    1.512   .     S
C748   H758    1.108   .     S
C748   H757    1.111   .     S
C748   H759    1.108   .     S
C749   H766    1.076   .     S
C750   C751    1.427   .     A
C750   C245    1.418   1_556 S
C750   C248    1.424   1_556 S
C751   C755    1.424   .     A
C753   C754    1.392   .     A
C753   C241    1.401   1_556 S
C753   C248    1.421   1_556 S
C754   C755    1.392   .     A
C754   H762    1.086   .     S
H761   C907    1.086   .     S
H763   C241    1.084   1_556 S
O768   Zn783   1.927   .     S
O768   Zn782   1.954   .     S
O768   Zn781   1.959   .     S
O768   Zn784   1.934   .     S
O769   Zn782   1.922   .     S
O770   Zn784   1.936   .     S
O771   Zn783   1.936   .     S
O772   Zn781   1.923   .     S
O773   Zn781   1.929   .     S
O774   Zn784   1.926   .     S
O775   Zn782   1.936   .     S
O776   Zn783   1.948   .     S
O777   Zn784   1.946   .     S
O778   Zn781   1.933   .     S
O779   Zn782   1.931   .     S
O780   Zn783   1.929   .     S
Br785  C681    1.933   1_655 S
C787   C793    1.430   .     S
C787   O833    1.268   .     A
C787   O831    1.270   .     A
C788   H820    1.077   .     S
C788   C802    1.392   .     A
C788   C808    1.413   .     A
C789   C801    1.388   .     A
C789   H812    1.084   .     S
C789   C802    1.397   .     A
C790   O834    1.268   .     A
C790   O832    1.285   .     A
C790   C792    1.460   .     S
C791   C803    1.402   .     A
C791   C807    1.420   .     A
C791   C800    1.470   .     S
C792   Br674   1.932   1_655 S
C792   C681    1.354   1_655 S
C794   C797    1.451   .     S
C794   C963    1.332   .     S
C794   H984    1.088   .     S
C795   C796    1.435   .     S
C796   O835    1.280   .     A
C796   O829    1.281   .     A
C797   O836    1.270   .     A
C797   O830    1.270   .     A
C798   C803    1.384   .     A
C798   C301    1.388   1_556 S
C798   H319    1.083   1_556 S
C799   C802    1.453   .     S
C799   O827    1.271   .     A
C799   O825    1.281   .     A
C800   O828    1.286   .     A
C800   O826    1.279   .     A
C803   H821    1.084   .     S
C804   C811    1.512   .     S
C804   H814    1.108   .     S
C804   H813    1.111   .     S
C804   H815    1.108   .     S
C805   H822    1.076   .     S
C806   C807    1.427   .     A
C806   C301    1.418   1_556 S
C806   C304    1.424   1_556 S
C807   C811    1.424   .     A
C809   C810    1.392   .     A
C809   C297    1.401   1_556 S
C809   C304    1.421   1_556 S
C810   C811    1.392   .     A
C810   H818    1.086   .     S
H817   C963    1.086   .     S
H819   C297    1.084   1_556 S
O824   Zn839   1.927   .     S
O824   Zn838   1.954   .     S
O824   Zn837   1.959   .     S
O824   Zn840   1.934   .     S
O825   Zn838   1.922   .     S
O826   Zn840   1.936   .     S
O827   Zn839   1.936   .     S
O828   Zn837   1.923   .     S
O829   Zn837   1.929   .     S
O830   Zn840   1.926   .     S
O831   Zn838   1.936   .     S
O832   Zn839   1.948   .     S
O833   Zn840   1.946   .     S
O834   Zn837   1.933   .     S
O835   Zn838   1.931   .     S
O836   Zn839   1.929   .     S
Br841  C905    1.933   .     S
Br842  C960    1.932   1_455 S
C843   C849    1.430   .     S
C843   O889    1.268   .     A
C843   O887    1.270   .     A
C844   H876    1.077   .     S
C844   C858    1.392   .     A
C844   C864    1.413   .     A
C845   C857    1.388   .     A
C845   H868    1.084   .     S
C845   C858    1.397   .     A
C846   O890    1.268   .     A
C846   O888    1.285   .     A
C846   C848    1.460   .     S
C847   C859    1.402   .     A
C847   C863    1.420   .     A
C847   C856    1.470   .     S
C848   Br898   1.932   .     S
C848   C905    1.354   .     S
C849   C960    1.354   1_455 S
C849   Br953   1.933   1_455 S
C850   C853    1.451   .     S
C850   C515    1.332   1_565 S
C850   H536    1.088   1_565 S
C851   C852    1.435   .     S
C852   O891    1.280   .     A
C852   O885    1.281   .     A
C853   O892    1.270   .     A
C853   O886    1.270   .     A
C854   C859    1.384   .     A
C854   C357    1.388   1_556 S
C854   H375    1.083   1_556 S
C855   C858    1.453   .     S
C855   O883    1.271   .     A
C855   O881    1.281   .     A
C856   O884    1.286   .     A
C856   O882    1.279   .     A
C859   H877    1.084   .     S
C860   C867    1.512   .     S
C860   H870    1.108   .     S
C860   H869    1.111   .     S
C860   H871    1.108   .     S
C861   H878    1.076   .     S
C862   C863    1.427   .     A
C862   C357    1.418   1_556 S
C862   C360    1.424   1_556 S
C863   C867    1.424   .     A
C865   C866    1.392   .     A
C865   C353    1.401   1_556 S
C865   C360    1.421   1_556 S
C866   C867    1.392   .     A
C866   H874    1.086   .     S
H873   C515    1.086   1_565 S
H875   C353    1.084   1_556 S
O880   Zn895   1.927   .     S
O880   Zn894   1.954   .     S
O880   Zn893   1.959   .     S
O880   Zn896   1.934   .     S
O881   Zn894   1.922   .     S
O882   Zn896   1.936   .     S
O883   Zn895   1.936   .     S
O884   Zn893   1.923   .     S
O885   Zn893   1.929   .     S
O886   Zn896   1.926   .     S
O887   Zn894   1.936   .     S
O888   Zn895   1.948   .     S
O889   Zn896   1.946   .     S
O890   Zn893   1.933   .     S
O891   Zn894   1.931   .     S
O892   Zn895   1.929   .     S
Br897  C961    1.933   .     S
C899   C905    1.430   .     S
C899   O945    1.268   .     A
C899   O943    1.270   .     A
C900   H932    1.077   .     S
C900   C914    1.392   .     A
C900   C920    1.413   .     A
C901   C913    1.388   .     A
C901   H924    1.084   .     S
C901   C914    1.397   .     A
C902   O946    1.268   .     A
C902   O944    1.285   .     A
C902   C904    1.460   .     S
C903   C915    1.402   .     A
C903   C919    1.420   .     A
C903   C912    1.470   .     S
C904   Br954   1.932   .     S
C904   C961    1.354   .     S
C906   C909    1.451   .     S
C906   C571    1.332   1_565 S
C906   H592    1.088   1_565 S
C907   C908    1.435   .     S
C908   O947    1.280   .     A
C908   O941    1.281   .     A
C909   O948    1.270   .     A
C909   O942    1.270   .     A
C910   C915    1.384   .     A
C910   C413    1.388   1_556 S
C910   H431    1.083   1_556 S
C911   C914    1.453   .     S
C911   O939    1.271   .     A
C911   O937    1.281   .     A
C912   O940    1.286   .     A
C912   O938    1.279   .     A
C915   H933    1.084   .     S
C916   C923    1.512   .     S
C916   H926    1.108   .     S
C916   H925    1.111   .     S
C916   H927    1.108   .     S
C917   H934    1.076   .     S
C918   C919    1.427   .     A
C918   C413    1.418   1_556 S
C918   C416    1.424   1_556 S
C919   C923    1.424   .     A
C921   C922    1.392   .     A
C921   C409    1.401   1_556 S
C921   C416    1.421   1_556 S
C922   C923    1.392   .     A
C922   H930    1.086   .     S
H929   C571    1.086   1_565 S
H931   C409    1.084   1_556 S
O936   Zn951   1.927   .     S
O936   Zn950   1.954   .     S
O936   Zn949   1.959   .     S
O936   Zn952   1.934   .     S
O937   Zn950   1.922   .     S
O938   Zn952   1.936   .     S
O939   Zn951   1.936   .     S
O940   Zn949   1.923   .     S
O941   Zn949   1.929   .     S
O942   Zn952   1.926   .     S
O943   Zn950   1.936   .     S
O944   Zn951   1.948   .     S
O945   Zn952   1.946   .     S
O946   Zn949   1.933   .     S
O947   Zn950   1.931   .     S
O948   Zn951   1.929   .     S
Br953  C849    1.933   1_655 S
C955   C961    1.430   .     S
C955   O1001   1.268   .     A
C955   O999    1.270   .     A
C956   H988    1.077   .     S
C956   C970    1.392   .     A
C956   C976    1.413   .     A
C957   C969    1.388   .     A
C957   H980    1.084   .     S
C957   C970    1.397   .     A
C958   O1002   1.268   .     A
C958   O1000   1.285   .     A
C958   C960    1.460   .     S
C959   C971    1.402   .     A
C959   C975    1.420   .     A
C959   C968    1.470   .     S
C960   Br842   1.932   1_655 S
C960   C849    1.354   1_655 S
C962   C965    1.451   .     S
C962   C627    1.332   1_565 S
C962   H648    1.088   1_565 S
C963   C964    1.435   .     S
C964   O1003   1.280   .     A
C964   O997    1.281   .     A
C965   O1004   1.270   .     A
C965   O998    1.270   .     A
C966   C971    1.384   .     A
C966   C469    1.388   1_556 S
C966   H487    1.083   1_556 S
C967   C970    1.453   .     S
C967   O995    1.271   .     A
C967   O993    1.281   .     A
C968   O996    1.286   .     A
C968   O994    1.279   .     A
C971   H989    1.084   .     S
C972   C979    1.512   .     S
C972   H982    1.108   .     S
C972   H981    1.111   .     S
C972   H983    1.108   .     S
C973   H990    1.076   .     S
C974   C975    1.427   .     A
C974   C469    1.418   1_556 S
C974   C472    1.424   1_556 S
C975   C979    1.424   .     A
C977   C978    1.392   .     A
C977   C465    1.401   1_556 S
C977   C472    1.421   1_556 S
C978   C979    1.392   .     A
C978   H986    1.086   .     S
H985   C627    1.086   1_565 S
H987   C465    1.084   1_556 S
O992   Zn1007  1.927   .     S
O992   Zn1006  1.954   .     S
O992   Zn1005  1.959   .     S
O992   Zn1008  1.934   .     S
O993   Zn1006  1.922   .     S
O994   Zn1008  1.936   .     S
O995   Zn1007  1.936   .     S
O996   Zn1005  1.923   .     S
O997   Zn1005  1.929   .     S
O998   Zn1008  1.926   .     S
O999   Zn1006  1.936   .     S
O1000  Zn1007  1.948   .     S
O1001  Zn1008  1.946   .     S
O1002  Zn1005  1.933   .     S
O1003  Zn1006  1.931   .     S
O1004  Zn1007  1.929   .     S
