data_str_m1_o2_o5_pcu_sym.50
_audit_creation_date              2020-01-03
_audit_creation_method            'Materials Studio'
_symmetry_space_group_name_H-M    'P1'
_symmetry_Int_Tables_number       1
_symmetry_cell_setting            triclinic
loop_
_symmetry_equiv_pos_as_xyz
  x,y,z
_cell_length_a                    24.4474
_cell_length_b                    24.4571
_cell_length_c                    22.4228
_cell_angle_alpha                 90.0223
_cell_angle_beta                  90.0141
_cell_angle_gamma                 89.9641
loop_
_atom_site_label
_atom_site_type_symbol
_atom_site_fract_x
_atom_site_fract_y
_atom_site_fract_z
_atom_site_U_iso_or_equiv
_atom_site_adp_type
_atom_site_occupancy
C1     C     0.22845   0.27154   0.24998   0.00000  Uiso   1.00
C2     C     0.22871   0.72862   0.24997   0.00000  Uiso   1.00
C3     C     0.18194   0.65377   0.19964   0.00000  Uiso   1.00
C4     C     0.36696   0.20364   0.74509   0.00000  Uiso   1.00
C5     C     0.65143   0.81569   0.20200   0.00000  Uiso   1.00
C6     C     0.20097   0.63594   0.72811   0.00000  Uiso   1.00
C7     C     0.82072   0.34335   0.19821   0.00000  Uiso   1.00
C8     C     0.36761   0.79740   0.24295   0.00000  Uiso   1.00
C9     C     0.63788   0.19694   0.78050   0.00000  Uiso   1.00
C10    C     0.13631   0.30095   0.27576   0.00000  Uiso   1.00
C11    C     0.82828   0.66403   0.69677   0.00000  Uiso   1.00
C12    C     0.63301   0.20307   0.23646   0.00000  Uiso   1.00
C13    C     0.72773   0.77106   0.75097   0.00000  Uiso   1.00
C14    C     0.36313   0.80222   0.77852   0.00000  Uiso   1.00
C15    C     0.79682   0.63383   0.24537   0.00000  Uiso   1.00
C16    C     0.19139   0.35644   0.79059   0.00000  Uiso   1.00
C17    C     0.14725   0.35277   0.25001   0.00000  Uiso   1.00
C18    C     0.85101   0.64650   0.75129   0.00000  Uiso   1.00
C19    C     0.35247   0.85247   0.24994   0.00000  Uiso   1.00
C20    C     0.64705   0.14698   0.74999   0.00000  Uiso   1.00
C21    C     0.85288   0.64797   0.25052   0.00000  Uiso   1.00
C22    C     0.14709   0.35293   0.74998   0.00000  Uiso   1.00
C23    C     0.64691   0.14799   0.24889   0.00000  Uiso   1.00
C24    C     0.27113   0.22886   0.24998   0.00000  Uiso   1.00
C25    C     0.35302   0.85299   0.75004   0.00000  Uiso   1.00
C26    C     0.85195   0.35191   0.74990   0.00000  Uiso   1.00
C27    C     0.14741   0.64734   0.25001   0.00000  Uiso   1.00
C28    C     0.64700   0.85260   0.75035   0.00000  Uiso   1.00
C29    C     0.35244   0.14755   0.24999   0.00000  Uiso   1.00
C30    C     0.14815   0.64809   0.75006   0.00000  Uiso   1.00
C31    C     0.85262   0.35256   0.25011   0.00000  Uiso   1.00
C32    C     0.35227   0.14771   0.75003   0.00000  Uiso   1.00
C33    C     0.64756   0.85313   0.25014   0.00000  Uiso   1.00
C34    C     0.32657   0.35393   0.24140   0.00000  Uiso   1.00
C35    C     0.22943   0.72930   0.75012   0.00000  Uiso   1.00
C36    C     0.37721   0.37539   0.20982   0.00000  Uiso   1.00
C37    C     0.81867   0.76616   0.88489   0.00000  Uiso   1.00
C38    C     0.79479   0.81909   0.90928   0.00000  Uiso   1.00
C39    C     0.17617   0.84883   0.21020   0.00000  Uiso   1.00
C40    C     0.12135   0.87664   0.22054   0.00000  Uiso   1.00
C41    C     0.78235   0.18925   0.63043   0.00000  Uiso   1.00
C42    C     0.82991   0.16656   0.59442   0.00000  Uiso   1.00
C43    C     0.85074   0.82155   0.20165   0.00000  Uiso   1.00
C44    C     0.87934   0.87647   0.20762   0.00000  Uiso   1.00
C45    C     0.20809   0.23634   0.61689   0.00000  Uiso   1.00
C46    C     0.77115   0.27147   0.25035   0.00000  Uiso   1.00
C47    C     0.19323   0.19316   0.57086   0.00000  Uiso   1.00
C48    C     0.82513   0.14879   0.22294   0.00000  Uiso   1.00
C49    C     0.87917   0.12184   0.23916   0.00000  Uiso   1.00
C50    C     0.21408   0.81393   0.63410   0.00000  Uiso   1.00
C51    C     0.16538   0.83748   0.60065   0.00000  Uiso   1.00
C52    C     0.82309   0.20278   0.85328   0.00000  Uiso   1.00
C53    C     0.84844   0.15091   0.87843   0.00000  Uiso   1.00
C54    C     0.23829   0.73375   0.38995   0.00000  Uiso   1.00
C55    C     0.23163   0.76193   0.45000   0.00000  Uiso   1.00
C56    C     0.62871   0.68157   0.78477   0.00000  Uiso   1.00
C57    C     0.27093   0.22906   0.75002   0.00000  Uiso   1.00
C58    C     0.64891   0.62297   0.77889   0.00000  Uiso   1.00
C59    C     0.23106   0.20496   0.11994   0.00000  Uiso   1.00
C60    C     0.22310   0.21909   0.05448   0.00000  Uiso   1.00
C61    C     0.18024   0.79413   0.85763   0.00000  Uiso   1.00
C62    C     0.15581   0.84530   0.88545   0.00000  Uiso   1.00
C63    C     0.75407   0.27416   0.38949   0.00000  Uiso   1.00
C64    C     0.75740   0.24941   0.45162   0.00000  Uiso   1.00
C65    C     0.18805   0.16069   0.82603   0.00000  Uiso   1.00
C66    C     0.13195   0.13502   0.83427   0.00000  Uiso   1.00
C67    C     0.74645   0.77543   0.38981   0.00000  Uiso   1.00
C68    C     0.73010   0.77323   0.24988   0.00000  Uiso   1.00
C69    C     0.78328   0.78402   0.44366   0.00000  Uiso   1.00
C70    C     0.82308   0.85581   0.72773   0.00000  Uiso   1.00
C71    C     0.87826   0.85894   0.69669   0.00000  Uiso   1.00
C72    C     0.29502   0.26893   0.38001   0.00000  Uiso   1.00
C73    C     0.28089   0.27690   0.44548   0.00000  Uiso   1.00
C74    C     0.70274   0.32279   0.64639   0.00000  Uiso   1.00
C75    C     0.65082   0.34806   0.62122   0.00000  Uiso   1.00
C76    C     0.23371   0.73800   0.10996   0.00000  Uiso   1.00
C77    C     0.26187   0.73128   0.04992   0.00000  Uiso   1.00
C78    C     0.33940   0.31184   0.67399   0.00000  Uiso   1.00
C79    C     0.00000   0.50000   0.47331   0.00000  Uiso   1.00
C80    C     0.36514   0.36789   0.66573   0.00000  Uiso   1.00
C81    C     0.73302   0.75793   0.11170   0.00000  Uiso   1.00
C82    C     0.72702   0.72315   0.05585   0.00000  Uiso   1.00
C83    C     0.29422   0.67999   0.64261   0.00000  Uiso   1.00
C84    C     0.34538   0.65551   0.61481   0.00000  Uiso   1.00
C85    C     0.77378   0.25401   0.11113   0.00000  Uiso   1.00
C86    C     0.74876   0.25709   0.04910   0.00000  Uiso   1.00
C87    C     0.34913   0.67633   0.28973   0.00000  Uiso   1.00
C88    C     0.37724   0.62167   0.27945   0.00000  Uiso   1.00
C89    C     0.68949   0.28241   0.86932   0.00000  Uiso   1.00
C90    C    -0.00001   0.50000   0.52669   0.00000  Uiso   1.00
C91    C     0.66690   0.33004   0.90528   0.00000  Uiso   1.00
C92    C     0.14597   0.17351   0.25852   0.00000  Uiso   1.00
C93    C     0.12438   0.12293   0.29008   0.00000  Uiso   1.00
C94    C     0.71624   0.68651   0.63276   0.00000  Uiso   1.00
C95    C     0.69539   0.69725   0.56999   0.00000  Uiso   1.00
C96    C     0.64745   0.32561   0.27717   0.00000  Uiso   1.00
C97    C     0.62195   0.38028   0.26075   0.00000  Uiso   1.00
C98    C     0.31429   0.71416   0.86607   0.00000  Uiso   1.00
C99    C     0.33802   0.66558   0.89954   0.00000  Uiso   1.00
C100   C     0.67974   0.65422   0.30024   0.00000  Uiso   1.00
C101   C     0.50000   0.00001   0.47331   0.00000  Uiso   1.00
C102   C     0.62282   0.62974   0.29457   0.00000  Uiso   1.00
C103   C     0.26365   0.29193   0.88312   0.00000  Uiso   1.00
C104   C     0.30683   0.30678   0.92916   0.00000  Uiso   1.00
C105   C     0.77011   0.72803   0.75095   0.00000  Uiso   1.00
C106   C     0.50000  -0.00001   0.52669   0.00000  Uiso   1.00
C107   C     0.50000  -0.00000   0.97331   0.00000  Uiso   1.00
C108   C     0.49999   0.00000   0.02669   0.00000  Uiso   1.00
C109   C    -0.00000   0.50001   0.97331   0.00000  Uiso   1.00
C110   C    -0.00000   0.49999   0.02669   0.00000  Uiso   1.00
C111   C     0.00000   0.49999   0.09002   0.00000  Uiso   1.00
C112   C    -0.00000   0.50001   0.90998   0.00000  Uiso   1.00
C113   C     0.49999   0.00000   0.09002   0.00000  Uiso   1.00
C114   C     0.50000  -0.00000   0.90998   0.00000  Uiso   1.00
C115   C     0.50000  -0.00001   0.59002   0.00000  Uiso   1.00
C116   C     0.27141   0.77135   0.24993   0.00000  Uiso   1.00
C117   C     0.50000   0.00001   0.40998   0.00000  Uiso   1.00
C118   C    -0.00001   0.50000   0.59002   0.00000  Uiso   1.00
C119   C     0.00000   0.50000   0.40998   0.00000  Uiso   1.00
C120   C     0.10507   0.60506   0.25001   0.00000  Uiso   1.00
C121   C     0.89466   0.39466   0.74998   0.00000  Uiso   1.00
C122   C     0.60501   0.89500   0.24996   0.00000  Uiso   1.00
C123   C     0.39480   0.10520   0.75001   0.00000  Uiso   1.00
C124   C     0.89494   0.39490   0.25004   0.00000  Uiso   1.00
C125   C     0.10537   0.60535   0.75001   0.00000  Uiso   1.00
C126   C     0.39486   0.10514   0.24999   0.00000  Uiso   1.00
C127   C     0.72811   0.22802   0.74988   0.00000  Uiso   1.00
C128   C     0.60501   0.89501   0.74999   0.00000  Uiso   1.00
C129   C     0.89451   0.60493   0.75037   0.00000  Uiso   1.00
C130   C     0.10502   0.39499   0.25000   0.00000  Uiso   1.00
C131   C     0.39507   0.89506   0.75001   0.00000  Uiso   1.00
C132   C     0.60497   0.10524   0.24977   0.00000  Uiso   1.00
C133   C     0.10496   0.39505   0.74999   0.00000  Uiso   1.00
C134   C     0.89492   0.60518   0.25007   0.00000  Uiso   1.00
C135   C     0.60495   0.10493   0.75001   0.00000  Uiso   1.00
C136   C     0.39485   0.89486   0.24999   0.00000  Uiso   1.00
C137   C     0.23974   0.32345   0.22571   0.00000  Uiso   1.00
C138   C     0.77248   0.73020   0.25050   0.00000  Uiso   1.00
C139   C     0.79435   0.71209   0.80505   0.00000  Uiso   1.00
C140   C     0.25648   0.82684   0.25602   0.00000  Uiso   1.00
C141   C     0.73656   0.17891   0.71829   0.00000  Uiso   1.00
C142   C     0.82827   0.74448   0.25305   0.00000  Uiso   1.00
C143   C     0.18485   0.26910   0.70867   0.00000  Uiso   1.00
C144   C     0.74246   0.17382   0.26122   0.00000  Uiso   1.00
C145   C     0.26258   0.82189   0.72055   0.00000  Uiso   1.00
C146   C     0.82331   0.25856   0.77189   0.00000  Uiso   1.00
C147   C     0.19542   0.72125   0.30063   0.00000  Uiso   1.00
C148   C     0.67783   0.76196   0.78045   0.00000  Uiso   1.00
C149   C     0.22824   0.27176   0.75001   0.00000  Uiso   1.00
C150   C     0.29312   0.21013   0.19558   0.00000  Uiso   1.00
C151   C     0.17754   0.74076   0.77435   0.00000  Uiso   1.00
C152   C     0.80171   0.28169   0.30246   0.00000  Uiso   1.00
C153   C     0.25649   0.17388   0.75884   0.00000  Uiso   1.00
C154   C     0.72574   0.80997   0.29809   0.00000  Uiso   1.00
C155   C     0.73736   0.82065   0.72114   0.00000  Uiso   1.00
C156   C     0.28985   0.20688   0.30438   0.00000  Uiso   1.00
C157   C     0.75860   0.32318   0.72777   0.00000  Uiso   1.00
C158   C     0.22131   0.69528   0.19933   0.00000  Uiso   1.00
C159   C     0.32615   0.24347   0.74120   0.00000  Uiso   1.00
C160   C     0.72834   0.22887   0.25038   0.00000  Uiso   1.00
C161   C     0.69350   0.77697   0.20143   0.00000  Uiso   1.00
C162   C     0.24089   0.67742   0.72590   0.00000  Uiso   1.00
C163   C     0.78143   0.30179   0.19809   0.00000  Uiso   1.00
C164   C     0.32692   0.75649   0.24383   0.00000  Uiso   1.00
C165   C     0.67903   0.23652   0.78152   0.00000  Uiso   1.00
C166   C     0.17651   0.26029   0.27426   0.00000  Uiso   1.00
C167   C     0.78608   0.70339   0.69693   0.00000  Uiso   1.00
C168   C     0.67351   0.24335   0.23894   0.00000  Uiso   1.00
C169   C     0.32207   0.76256   0.77960   0.00000  Uiso   1.00
C170   C     0.75697   0.67474   0.24829   0.00000  Uiso   1.00
C171   C     0.27203   0.77192   0.75008   0.00000  Uiso   1.00
C172   C     0.23091   0.31515   0.79133   0.00000  Uiso   1.00
C173   C     0.19909   0.36367   0.22424   0.00000  Uiso   1.00
C174   C     0.83252   0.66925   0.80589   0.00000  Uiso   1.00
C175   C     0.29735   0.86755   0.25689   0.00000  Uiso   1.00
C176   C     0.69697   0.13778   0.71941   0.00000  Uiso   1.00
C177   C     0.86825   0.70369   0.25597   0.00000  Uiso   1.00
C178   C     0.14357   0.30864   0.70938   0.00000  Uiso   1.00
C179   C     0.70132   0.13333   0.26163   0.00000  Uiso   1.00
C180   C     0.30219   0.86299   0.72160   0.00000  Uiso   1.00
C181   C     0.86471   0.29857   0.76971   0.00000  Uiso   1.00
C182   C     0.77074   0.27064   0.74983   0.00000  Uiso   1.00
C183   C     0.15390   0.68190   0.30037   0.00000  Uiso   1.00
C184   C     0.63790   0.80318   0.78198   0.00000  Uiso   1.00
C185   C     0.33534   0.17157   0.19549   0.00000  Uiso   1.00
C186   C     0.13603   0.70088   0.77208   0.00000  Uiso   1.00
C187   C     0.84345   0.32081   0.30212   0.00000  Uiso   1.00
C188   C     0.29632   0.13306   0.75496   0.00000  Uiso   1.00
C189   C     0.68555   0.85067   0.29787   0.00000  Uiso   1.00
C190   C     0.69677   0.86096   0.71914   0.00000  Uiso   1.00
C191   C     0.32840   0.16466   0.30448   0.00000  Uiso   1.00
C192   C     0.79859   0.36460   0.73001   0.00000  Uiso   1.00
H1     H     0.33960   0.32039   0.27165   0.00000  Uiso   1.00
H2     H     0.76176   0.81001   0.94178   0.00000  Uiso   1.00
H3     H     0.30660   0.73782   0.05479   0.00000  Uiso   1.00
H4     H     0.29626   0.31431   0.65860   0.00000  Uiso   1.00
H5     H     0.36234   0.28205   0.64579   0.00000  Uiso   1.00
H6     H     0.36340   0.37979   0.61797   0.00000  Uiso   1.00
H7     H     0.34261   0.39878   0.69252   0.00000  Uiso   1.00
H8     H     0.40856   0.36696   0.68028   0.00000  Uiso   1.00
H9     H     0.77559   0.75304   0.12821   0.00000  Uiso   1.00
H10    H     0.72569   0.80148   0.09921   0.00000  Uiso   1.00
H11    H     0.68527   0.72799   0.03703   0.00000  Uiso   1.00
H12    H     0.75746   0.73612   0.02196   0.00000  Uiso   1.00
H13    H     0.16822   0.80874   0.18860   0.00000  Uiso   1.00
H14    H     0.73410   0.67942   0.06678   0.00000  Uiso   1.00
H15    H     0.29655   0.72511   0.63753   0.00000  Uiso   1.00
H16    H     0.25805   0.66409   0.61769   0.00000  Uiso   1.00
H17    H     0.34437   0.61025   0.61873   0.00000  Uiso   1.00
H18    H     0.34753   0.66676   0.56689   0.00000  Uiso   1.00
H19    H     0.38236   0.67132   0.63785   0.00000  Uiso   1.00
H20    H     0.76514   0.21277   0.12964   0.00000  Uiso   1.00
H21    H     0.81889   0.25963   0.10656   0.00000  Uiso   1.00
H22    H     0.75722   0.29771   0.02900   0.00000  Uiso   1.00
H23    H     0.76675   0.22489   0.02016   0.00000  Uiso   1.00
H24    H     0.20072   0.87513   0.17962   0.00000  Uiso   1.00
H25    H     0.70382   0.25086   0.05166   0.00000  Uiso   1.00
H26    H     0.30907   0.66821   0.31131   0.00000  Uiso   1.00
H27    H     0.37532   0.70104   0.32031   0.00000  Uiso   1.00
H28    H     0.41776   0.62818   0.25821   0.00000  Uiso   1.00
H29    H     0.38323   0.60042   0.32272   0.00000  Uiso   1.00
H30    H     0.35172   0.59555   0.24998   0.00000  Uiso   1.00
H31    H     0.73481   0.28584   0.86904   0.00000  Uiso   1.00
H32    H     0.67720   0.24374   0.89203   0.00000  Uiso   1.00
H33    H     0.62155   0.32789   0.90671   0.00000  Uiso   1.00
H34    H     0.68296   0.32838   0.95156   0.00000  Uiso   1.00
H35    H     0.12767   0.91716   0.24182   0.00000  Uiso   1.00
H36    H     0.67942   0.36936   0.88462   0.00000  Uiso   1.00
H37    H     0.17954   0.16043   0.22831   0.00000  Uiso   1.00
H38    H     0.11192   0.19144   0.23177   0.00000  Uiso   1.00
H39    H     0.10899   0.09311   0.25671   0.00000  Uiso   1.00
H40    H     0.15761   0.10348   0.31639   0.00000  Uiso   1.00
H41    H     0.09038   0.13436   0.32049   0.00000  Uiso   1.00
H42    H     0.68296   0.69663   0.66457   0.00000  Uiso   1.00
H43    H     0.72626   0.64212   0.63634   0.00000  Uiso   1.00
H44    H     0.65736   0.67353   0.56208   0.00000  Uiso   1.00
H45    H     0.68642   0.74146   0.56412   0.00000  Uiso   1.00
H46    H     0.10001   0.88252   0.17729   0.00000  Uiso   1.00
H47    H     0.72663   0.68434   0.53693   0.00000  Uiso   1.00
H48    H     0.68552   0.33392   0.30266   0.00000  Uiso   1.00
H49    H     0.61789   0.30299   0.30593   0.00000  Uiso   1.00
H50    H     0.58345   0.37361   0.23547   0.00000  Uiso   1.00
H51    H     0.61257   0.40380   0.30188   0.00000  Uiso   1.00
H52    H     0.65079   0.40431   0.23288   0.00000  Uiso   1.00
H53    H     0.26900   0.71065   0.86728   0.00000  Uiso   1.00
H54    H     0.32723   0.75219   0.88968   0.00000  Uiso   1.00
H55    H     0.38339   0.66779   0.89944   0.00000  Uiso   1.00
H56    H     0.32336   0.66588   0.94640   0.00000  Uiso   1.00
H57    H     0.09538   0.85098   0.25000   0.00000  Uiso   1.00
H58    H     0.32493   0.62684   0.87796   0.00000  Uiso   1.00
H59    H     0.67568   0.69475   0.32221   0.00000  Uiso   1.00
H60    H     0.70483   0.62653   0.32879   0.00000  Uiso   1.00
H61    H     0.60422   0.62525   0.33947   0.00000  Uiso   1.00
H62    H     0.59647   0.65688   0.26711   0.00000  Uiso   1.00
H63    H     0.62526   0.58887   0.27313   0.00000  Uiso   1.00
H64    H     0.26571   0.24707   0.87553   0.00000  Uiso   1.00
H65    H     0.22276   0.30298   0.90164   0.00000  Uiso   1.00
H66    H     0.30574   0.35143   0.93815   0.00000  Uiso   1.00
H67    H     0.29894   0.28454   0.97140   0.00000  Uiso   1.00
H68    H     0.78583   0.23454   0.63066   0.00000  Uiso   1.00
H69    H     0.34807   0.29541   0.91246   0.00000  Uiso   1.00
H70    H     0.17952   0.43629   0.19342   0.00000  Uiso   1.00
H71    H     0.86095   0.61146   0.85697   0.00000  Uiso   1.00
H72    H     0.24525   0.92697   0.27137   0.00000  Uiso   1.00
H73    H     0.67785   0.06410   0.69105   0.00000  Uiso   1.00
H74    H     0.94320   0.69014   0.28217   0.00000  Uiso   1.00
H75    H     0.07328   0.33115   0.67447   0.00000  Uiso   1.00
H76    H     0.75186   0.07491   0.28491   0.00000  Uiso   1.00
H77    H     0.32074   0.93708   0.69413   0.00000  Uiso   1.00
H78    H     0.92160   0.24751   0.79653   0.00000  Uiso   1.00
H79    H     0.74360   0.17697   0.60778   0.00000  Uiso   1.00
H80    H     0.08906   0.65504   0.34288   0.00000  Uiso   1.00
H81    H     0.56742   0.82592   0.81628   0.00000  Uiso   1.00
H82    H     0.39591   0.14402   0.14728   0.00000  Uiso   1.00
H83    H     0.08003   0.75130   0.80242   0.00000  Uiso   1.00
H84    H     0.90736   0.34805   0.34587   0.00000  Uiso   1.00
H85    H     0.30407   0.05686   0.73194   0.00000  Uiso   1.00
H86    H     0.65854   0.91657   0.33857   0.00000  Uiso   1.00
H87    H     0.67573   0.93199   0.68513   0.00000  Uiso   1.00
H88    H     0.35594   0.10413   0.35270   0.00000  Uiso   1.00
H89    H     0.74748   0.42139   0.70306   0.00000  Uiso   1.00
H90    H     0.82770   0.12122   0.59304   0.00000  Uiso   1.00
H91    H     0.15509   0.58888   0.15720   0.00000  Uiso   1.00
H92    H     0.44317   0.19586   0.76815   0.00000  Uiso   1.00
H93    H     0.58444   0.84037   0.16176   0.00000  Uiso   1.00
H94    H     0.25140   0.57991   0.69788   0.00000  Uiso   1.00
H95    H     0.84807   0.40700   0.15417   0.00000  Uiso   1.00
H96    H     0.42710   0.74538   0.22841   0.00000  Uiso   1.00
H97    H     0.56417   0.17792   0.80888   0.00000  Uiso   1.00
H98    H     0.06370   0.32057   0.30667   0.00000  Uiso   1.00
H99    H     0.83099   0.66018   0.60951   0.00000  Uiso   1.00
H100   H     0.55826   0.18751   0.21013   0.00000  Uiso   1.00
H101   H     0.82818   0.18255   0.54812   0.00000  Uiso   1.00
H102   H     0.43716   0.82097   0.80614   0.00000  Uiso   1.00
H103   H     0.80865   0.55847   0.21956   0.00000  Uiso   1.00
H104   H     0.16893   0.42675   0.82545   0.00000  Uiso   1.00
H105   H     0.30868   0.38802   0.26811   0.00000  Uiso   1.00
H106   H     0.86929   0.17906   0.61502   0.00000  Uiso   1.00
H107   H     0.81015   0.82882   0.18079   0.00000  Uiso   1.00
H108   H     0.87604   0.79504   0.17198   0.00000  Uiso   1.00
H109   H     0.88431   0.89534   0.16291   0.00000  Uiso   1.00
H110   H     0.85469   0.90429   0.23613   0.00000  Uiso   1.00
H111   H     0.92035   0.87080   0.22803   0.00000  Uiso   1.00
H112   H     0.25296   0.23425   0.62449   0.00000  Uiso   1.00
H113   H     0.19707   0.27721   0.59835   0.00000  Uiso   1.00
H114   H     0.14857   0.19428   0.56186   0.00000  Uiso   1.00
H115   H     0.21550   0.20102   0.52863   0.00000  Uiso   1.00
H116   H     0.40707   0.39077   0.24317   0.00000  Uiso   1.00
H117   H     0.20457   0.15193   0.58758   0.00000  Uiso   1.00
H118   H     0.83439   0.18743   0.19896   0.00000  Uiso   1.00
H119   H     0.80235   0.12053   0.19278   0.00000  Uiso   1.00
H120   H     0.87154   0.08276   0.26294   0.00000  Uiso   1.00
H121   H     0.90298   0.11326   0.19803   0.00000  Uiso   1.00
H122   H     0.90341   0.14938   0.26838   0.00000  Uiso   1.00
H123   H     0.21067   0.76865   0.63295   0.00000  Uiso   1.00
H124   H     0.25207   0.82692   0.61045   0.00000  Uiso   1.00
H125   H     0.16749   0.88284   0.60070   0.00000  Uiso   1.00
H126   H     0.16565   0.82275   0.55382   0.00000  Uiso   1.00
H127   H     0.39663   0.34211   0.18355   0.00000  Uiso   1.00
H128   H     0.12668   0.82434   0.62229   0.00000  Uiso   1.00
H129   H     0.77812   0.20018   0.85976   0.00000  Uiso   1.00
H130   H     0.83961   0.23823   0.87894   0.00000  Uiso   1.00
H131   H     0.89359   0.15216   0.87306   0.00000  Uiso   1.00
H132   H     0.83851   0.14731   0.92660   0.00000  Uiso   1.00
H133   H     0.83206   0.11461   0.85462   0.00000  Uiso   1.00
H134   H     0.28053   0.74158   0.37379   0.00000  Uiso   1.00
H135   H     0.23245   0.68895   0.39693   0.00000  Uiso   1.00
H136   H     0.18986   0.75449   0.46768   0.00000  Uiso   1.00
H137   H     0.26202   0.74552   0.48219   0.00000  Uiso   1.00
H138   H     0.36584   0.40936   0.17937   0.00000  Uiso   1.00
H139   H     0.23811   0.80666   0.44511   0.00000  Uiso   1.00
H140   H     0.61557   0.69593   0.73972   0.00000  Uiso   1.00
H141   H     0.59216   0.68187   0.81420   0.00000  Uiso   1.00
H142   H     0.61649   0.59715   0.75864   0.00000  Uiso   1.00
H143   H     0.68582   0.62163   0.75006   0.00000  Uiso   1.00
H144   H     0.65945   0.60633   0.82352   0.00000  Uiso   1.00
H145   H     0.19385   0.21809   0.14453   0.00000  Uiso   1.00
H146   H     0.23574   0.15967   0.12345   0.00000  Uiso   1.00
H147   H     0.18597   0.19835   0.03711   0.00000  Uiso   1.00
H148   H     0.21811   0.26397   0.04913   0.00000  Uiso   1.00
H149   H     0.85292   0.77700   0.85413   0.00000  Uiso   1.00
H150   H     0.25908   0.20523   0.02829   0.00000  Uiso   1.00
H151   H     0.22539   0.79644   0.86265   0.00000  Uiso   1.00
H152   H     0.16436   0.75799   0.88258   0.00000  Uiso   1.00
H153   H     0.11053   0.84431   0.88159   0.00000  Uiso   1.00
H154   H     0.16716   0.84748   0.93336   0.00000  Uiso   1.00
H155   H     0.17162   0.88224   0.86238   0.00000  Uiso   1.00
H156   H     0.71278   0.26534   0.37114   0.00000  Uiso   1.00
H157   H     0.75958   0.31929   0.39387   0.00000  Uiso   1.00
H158   H     0.79808   0.25805   0.47156   0.00000  Uiso   1.00
H159   H     0.72524   0.26743   0.48058   0.00000  Uiso   1.00
H160   H     0.83586   0.74230   0.92266   0.00000  Uiso   1.00
H161   H     0.75127   0.20446   0.44926   0.00000  Uiso   1.00
H162   H     0.18562   0.20383   0.84141   0.00000  Uiso   1.00
H163   H     0.21782   0.13774   0.85424   0.00000  Uiso   1.00
H164   H     0.12003   0.13679   0.88202   0.00000  Uiso   1.00
H165   H     0.10109   0.15757   0.80746   0.00000  Uiso   1.00
H166   H     0.13284   0.09162   0.81973   0.00000  Uiso   1.00
H167   H     0.74976   0.73189   0.37606   0.00000  Uiso   1.00
H168   H     0.70353   0.78459   0.40344   0.00000  Uiso   1.00
H169   H     0.78070   0.82716   0.45888   0.00000  Uiso   1.00
H170   H     0.77032   0.75687   0.48062   0.00000  Uiso   1.00
H171   H     0.82726   0.84305   0.93199   0.00000  Uiso   1.00
H172   H     0.82634   0.77438   0.43180   0.00000  Uiso   1.00
H173   H     0.82887   0.83355   0.77054   0.00000  Uiso   1.00
H174   H     0.80884   0.89818   0.73724   0.00000  Uiso   1.00
H175   H     0.90807   0.88054   0.72570   0.00000  Uiso   1.00
H176   H     0.89372   0.81706   0.68744   0.00000  Uiso   1.00
H177   H     0.87426   0.88159   0.65399   0.00000  Uiso   1.00
H178   H     0.28189   0.30613   0.35543   0.00000  Uiso   1.00
H179   H     0.34033   0.26424   0.37650   0.00000  Uiso   1.00
H180   H     0.30163   0.31401   0.46285   0.00000  Uiso   1.00
H181   H     0.23599   0.28189   0.45084   0.00000  Uiso   1.00
H182   H     0.77758   0.84386   0.87223   0.00000  Uiso   1.00
H183   H     0.29475   0.24093   0.47167   0.00000  Uiso   1.00
H184   H     0.70015   0.27783   0.63998   0.00000  Uiso   1.00
H185   H     0.73817   0.33928   0.62070   0.00000  Uiso   1.00
H186   H     0.65205   0.39320   0.62652   0.00000  Uiso   1.00
H187   H     0.64718   0.33804   0.57307   0.00000  Uiso   1.00
H188   H     0.61452   0.33170   0.64506   0.00000  Uiso   1.00
H189   H     0.24151   0.78025   0.12607   0.00000  Uiso   1.00
H190   H     0.18889   0.73211   0.10299   0.00000  Uiso   1.00
H191   H     0.25445   0.68950   0.03228   0.00000  Uiso   1.00
H192   H     0.24539   0.76159   0.01769   0.00000  Uiso   1.00
O1     O    -0.00000   0.50000   0.25000   0.00000  Uiso   1.00
O2     O    -0.00000   0.45454   0.88202   0.00000  Uiso   1.00
O3     O     0.68558   0.88715   0.34513   0.00000  Uiso   1.00
O4     O     0.70787   0.90749   0.68614   0.00000  Uiso   1.00
O5     O     0.34092   0.14125   0.35893   0.00000  Uiso   1.00
O6     O     0.78664   0.41785   0.71355   0.00000  Uiso   1.00
O7     O     0.17922   0.62053   0.14973   0.00000  Uiso   1.00
O8     O     0.42060   0.22135   0.74427   0.00000  Uiso   1.00
O9     O     0.61524   0.81506   0.15449   0.00000  Uiso   1.00
O10    O     0.21251   0.58317   0.70953   0.00000  Uiso   1.00
O11    O     0.82593   0.37394   0.14659   0.00000  Uiso   1.00
O12    O     0.42235   0.78518   0.23438   0.00000  Uiso   1.00
O13    O     0.54546   0.00000   0.11798   0.00000  Uiso   1.00
O14    O     0.58996   0.20894   0.81077   0.00000  Uiso   1.00
O15    O     0.08726   0.28790   0.30314   0.00000  Uiso   1.00
O16    O     0.84844   0.64222   0.64418   0.00000  Uiso   1.00
O17    O     0.58075   0.21957   0.22102   0.00000  Uiso   1.00
O18    O     0.41188   0.78949   0.80680   0.00000  Uiso   1.00
O19    O     0.77888   0.58077   0.23689   0.00000  Uiso   1.00
O20    O     0.19800   0.39908   0.83062   0.00000  Uiso   1.00
O21    O     0.45454   0.00000   0.88202   0.00000  Uiso   1.00
O22    O     0.50000   0.95454   0.61798   0.00000  Uiso   1.00
O23    O     0.50000   0.04546   0.38202   0.00000  Uiso   1.00
O24    O     0.95454   0.50000   0.61798   0.00000  Uiso   1.00
O25    O     0.04546   0.50000   0.38202   0.00000  Uiso   1.00
O26    O     0.50000   0.04546   0.61798   0.00000  Uiso   1.00
O27    O     0.50000   0.95454   0.38202   0.00000  Uiso   1.00
O28    O     0.04546   0.50000   0.61798   0.00000  Uiso   1.00
O29    O    -0.00000   0.50000   0.75000   0.00000  Uiso   1.00
O30    O     0.95454   0.50000   0.38202   0.00000  Uiso   1.00
O31    O     0.06399   0.60947   0.21539   0.00000  Uiso   1.00
O32    O     0.93601   0.39053   0.78461   0.00000  Uiso   1.00
O33    O     0.60947   0.93601   0.21539   0.00000  Uiso   1.00
O34    O     0.39053   0.06399   0.78461   0.00000  Uiso   1.00
O35    O     0.93601   0.39053   0.21539   0.00000  Uiso   1.00
O36    O     0.06399   0.60947   0.78461   0.00000  Uiso   1.00
O37    O     0.39053   0.06399   0.21539   0.00000  Uiso   1.00
O38    O     0.60947   0.93601   0.78461   0.00000  Uiso   1.00
O39    O     0.93601   0.60947   0.78461   0.00000  Uiso   1.00
O40    O     0.50000   0.00000   0.25000   0.00000  Uiso   1.00
O41    O     0.06399   0.39053   0.21539   0.00000  Uiso   1.00
O42    O     0.39053   0.93601   0.78461   0.00000  Uiso   1.00
O43    O     0.60947   0.06399   0.21539   0.00000  Uiso   1.00
O44    O     0.06399   0.39053   0.78461   0.00000  Uiso   1.00
O45    O     0.93601   0.60947   0.21539   0.00000  Uiso   1.00
O46    O     0.60947   0.06399   0.78461   0.00000  Uiso   1.00
O47    O     0.39053   0.93601   0.21539   0.00000  Uiso   1.00
O48    O     0.56399   0.10947   0.71539   0.00000  Uiso   1.00
O49    O     0.43601   0.89053   0.28461   0.00000  Uiso   1.00
O50    O     0.10947   0.43601   0.71539   0.00000  Uiso   1.00
O51    O     0.50000   0.00000   0.75000   0.00000  Uiso   1.00
O52    O     0.89053   0.56399   0.28461   0.00000  Uiso   1.00
O53    O     0.43601   0.89053   0.71539   0.00000  Uiso   1.00
O54    O     0.56399   0.10947   0.28461   0.00000  Uiso   1.00
O55    O     0.89053   0.56399   0.71539   0.00000  Uiso   1.00
O56    O     0.10947   0.43601   0.28461   0.00000  Uiso   1.00
O57    O     0.43601   0.10947   0.28461   0.00000  Uiso   1.00
O58    O     0.56399   0.89053   0.71539   0.00000  Uiso   1.00
O59    O     0.89053   0.43601   0.28461   0.00000  Uiso   1.00
O60    O     0.10947   0.56399   0.71539   0.00000  Uiso   1.00
O61    O     0.56399   0.89053   0.28461   0.00000  Uiso   1.00
O62    O     0.00000   0.45454   0.11798   0.00000  Uiso   1.00
O63    O     0.43601   0.10947   0.71539   0.00000  Uiso   1.00
O64    O     0.10947   0.56399   0.28461   0.00000  Uiso   1.00
O65    O     0.89053   0.43601   0.71539   0.00000  Uiso   1.00
O66    O     0.28941   0.33400   0.19844   0.00000  Uiso   1.00
O67    O     0.77630   0.73557   0.85778   0.00000  Uiso   1.00
O68    O     0.20236   0.84108   0.26566   0.00000  Uiso   1.00
O69    O     0.78552   0.16887   0.68922   0.00000  Uiso   1.00
O70    O     0.84418   0.79852   0.25887   0.00000  Uiso   1.00
O71    O     0.17974   0.22507   0.67027   0.00000  Uiso   1.00
O72    O     0.79577   0.16001   0.27574   0.00000  Uiso   1.00
O73    O    -0.00000   0.54546   0.88202   0.00000  Uiso   1.00
O74    O     0.21275   0.83269   0.69363   0.00000  Uiso   1.00
O75    O     0.83550   0.20638   0.79193   0.00000  Uiso   1.00
O76    O     0.20000   0.75576   0.34936   0.00000  Uiso   1.00
O77    O     0.67026   0.71355   0.81152   0.00000  Uiso   1.00
O78    O     0.27727   0.23313   0.14187   0.00000  Uiso   1.00
O79    O     0.16603   0.79233   0.79664   0.00000  Uiso   1.00
O80    O     0.79448   0.25001   0.35301   0.00000  Uiso   1.00
O81    O     0.20230   0.15858   0.76510   0.00000  Uiso   1.00
O82    O     0.76425   0.80993   0.34334   0.00000  Uiso   1.00
O83    O     0.78569   0.82843   0.69022   0.00000  Uiso   1.00
O84    O     0.45454   0.00000   0.11798   0.00000  Uiso   1.00
O85    O     0.26683   0.22275   0.35808   0.00000  Uiso   1.00
O86    O     0.70639   0.33532   0.70772   0.00000  Uiso   1.00
O87    O     0.25578   0.69981   0.15059   0.00000  Uiso   1.00
O88    O     0.34147   0.29763   0.73493   0.00000  Uiso   1.00
O89    O     0.69543   0.73960   0.15505   0.00000  Uiso   1.00
O90    O     0.29246   0.66589   0.70362   0.00000  Uiso   1.00
O91    O     0.74966   0.29446   0.14758   0.00000  Uiso   1.00
O92    O     0.34123   0.70240   0.23424   0.00000  Uiso   1.00
O93    O     0.66903   0.28550   0.81054   0.00000  Uiso   1.00
O94    O     0.16592   0.21063   0.30150   0.00000  Uiso   1.00
O95    O     0.54546   0.00000   0.88202   0.00000  Uiso   1.00
O96    O     0.76235   0.71974   0.64379   0.00000  Uiso   1.00
O97    O     0.65967   0.29660   0.22443   0.00000  Uiso   1.00
O98    O     0.33297   0.71279   0.80653   0.00000  Uiso   1.00
O99    O     0.70252   0.66011   0.24280   0.00000  Uiso   1.00
O100   O     0.27496   0.32025   0.82973   0.00000  Uiso   1.00
O101   O     0.21218   0.41269   0.19687   0.00000  Uiso   1.00
O102   O     0.84948   0.65010   0.86084   0.00000  Uiso   1.00
O103   O     0.28508   0.92226   0.26546   0.00000  Uiso   1.00
O104   O     0.70891   0.08985   0.68914   0.00000  Uiso   1.00
O105   O     0.92171   0.72037   0.26458   0.00000  Uiso   1.00
O106   O    -0.00000   0.54546   0.11798   0.00000  Uiso   1.00
O107   O     0.10093   0.30205   0.66934   0.00000  Uiso   1.00
O108   O     0.71264   0.07924   0.27506   0.00000  Uiso   1.00
O109   O     0.28934   0.91169   0.69334   0.00000  Uiso   1.00
O110   O     0.91800   0.28666   0.78616   0.00000  Uiso   1.00
O111   O     0.12071   0.67922   0.35030   0.00000  Uiso   1.00
O112   O     0.59131   0.79334   0.81543   0.00000  Uiso   1.00
O113   O     0.35878   0.15904   0.14105   0.00000  Uiso   1.00
O114   O     0.08325   0.71243   0.79067   0.00000  Uiso   1.00
O115   O     0.87423   0.32606   0.35362   0.00000  Uiso   1.00
O116   O     0.27858   0.07945   0.75580   0.00000  Uiso   1.00
Zn1    Zn    0.06497   0.50000   0.29947   0.00000  Uiso   1.00
Zn2    Zn    0.43503   0.00000   0.20053   0.00000  Uiso   1.00
Zn3    Zn    0.00000   0.43503   0.79947   0.00000  Uiso   1.00
Zn4    Zn   -0.00000   0.56497   0.20053   0.00000  Uiso   1.00
Zn5    Zn    0.43503   0.00000   0.79947   0.00000  Uiso   1.00
Zn6    Zn    0.56497   0.00000   0.20053   0.00000  Uiso   1.00
Zn7    Zn   -0.00000   0.56497   0.79947   0.00000  Uiso   1.00
Zn8    Zn   -0.00000   0.43503   0.20053   0.00000  Uiso   1.00
Zn9    Zn    0.93503   0.50000   0.70053   0.00000  Uiso   1.00
Zn10   Zn    0.50000   0.93503   0.29947   0.00000  Uiso   1.00
Zn11   Zn    0.50000   0.06497   0.70053   0.00000  Uiso   1.00
Zn12   Zn    0.93503   0.50000   0.29947   0.00000  Uiso   1.00
Zn13   Zn    0.06497   0.50000   0.70053   0.00000  Uiso   1.00
Zn14   Zn    0.50000   0.06497   0.29947   0.00000  Uiso   1.00
Zn15   Zn    0.50000   0.93503   0.70053   0.00000  Uiso   1.00
Zn16   Zn    0.56497   0.00000   0.79947   0.00000  Uiso   1.00
loop_
_geom_bond_atom_site_label_1
_geom_bond_atom_site_label_2
_geom_bond_distance
_geom_bond_site_symmetry_2
_ccdc_geom_bond_type
C1     C137    1.409   .     A
C1     C166    1.409   .     A
C1     C24     1.475   .     S
C2     C116    1.478   .     S
C2     C147    1.409   .     A
C2     C158    1.409   .     A
C3     C158    1.399   .     A
C3     O7      1.385   .     S
C3     C27     1.419   .     A
C4     C32     1.419   .     A
C4     O8      1.381   .     S
C4     C159    1.397   .     A
C5     C33     1.418   .     A
C5     C161    1.398   .     A
C5     O9      1.385   .     S
C6     C30     1.413   .     A
C6     O10     1.385   .     S
C6     C162    1.409   .     A
C7     C163    1.399   .     A
C7     O11     1.384   .     S
C7     C31     1.419   .     A
C8     C19     1.405   .     A
C8     C164    1.411   .     A
C8     O12     1.384   .     S
C9     C20     1.418   .     A
C9     C165    1.397   .     A
C9     O14     1.385   .     S
C10    O15     1.385   .     S
C10    C166    1.398   .     A
C10    C17     1.418   .     A
C11    C167    1.411   .     A
C11    O16     1.385   .     S
C11    C18     1.410   .     A
C12    O17     1.384   .     S
C12    C23     1.417   .     A
C12    C168    1.398   .     A
C13    C105    1.476   .     S
C13    C155    1.406   .     A
C13    C148    1.405   .     A
C14    O18     1.385   .     S
C14    C169    1.396   .     A
C14    C25     1.418   .     A
C15    O19     1.383   .     S
C15    C170    1.398   .     A
C15    C21     1.418   .     A
C16    O20     1.385   .     S
C16    C22     1.417   .     A
C16    C172    1.397   .     A
C17    C173    1.419   .     A
C17    C130    1.460   .     S
C18    C174    1.418   .     A
C18    C129    1.471   .     S
C19    C136    1.466   .     S
C19    C175    1.405   .     A
C20    C176    1.418   .     A
C20    C135    1.455   .     S
C21    C177    1.419   .     A
C21    C134    1.466   .     S
C22    C133    1.456   .     S
C22    C178    1.417   .     A
C23    C179    1.407   .     A
C23    C132    1.465   .     S
C24    C156    1.409   .     A
C24    C150    1.409   .     A
C25    C180    1.418   .     A
C25    C131    1.455   .     S
C26    C121    1.478   .     S
C26    C192    1.413   .     A
C26    C181    1.413   .     A
C27    C183    1.419   .     A
C27    C120    1.464   .     S
C28    C184    1.419   .     A
C28    C190    1.419   .     A
C28    C128    1.459   .     S
C29    C185    1.419   .     A
C29    C126    1.466   .     S
C29    C191    1.419   .     A
C30    C125    1.479   .     S
C30    C186    1.413   .     A
C31    C124    1.464   .     S
C31    C187    1.419   .     A
C32    C188    1.419   .     A
C32    C123    1.470   .     S
C33    C189    1.418   .     A
C33    C122    1.459   .     S
C34    H1      1.111   .     S
C34    O66     1.411   .     S
C34    C36     1.520   .     S
C34    H105    1.116   .     S
C35    C171    1.474   .     S
C35    C151    1.408   .     A
C35    C162    1.408   .     A
C36    H138    1.111   .     S
C36    H127    1.111   .     S
C36    H116    1.111   .     S
C37    C38     1.521   .     S
C37    H149    1.117   .     S
C37    H160    1.111   .     S
C37    O67     1.415   .     S
C38    H182    1.111   .     S
C38    H2      1.110   .     S
C38    H171    1.110   .     S
C39    O68     1.411   .     S
C39    C40     1.520   .     S
C39    H24     1.116   .     S
C39    H13     1.111   .     S
C40    H46     1.110   .     S
C40    H35     1.111   .     S
C40    H57     1.111   .     S
C41    H79     1.116   .     S
C41    C42     1.520   .     S
C41    H68     1.111   .     S
C41    O69     1.412   .     S
C42    H106    1.111   .     S
C42    H90     1.111   .     S
C42    H101    1.110   .     S
C43    O70     1.411   .     S
C43    C44     1.520   .     S
C43    H108    1.116   .     S
C43    H107    1.111   .     S
C44    H109    1.110   .     S
C44    H111    1.111   .     S
C44    H110    1.111   .     S
C45    H113    1.116   .     S
C45    H112    1.111   .     S
C45    C47     1.521   .     S
C45    O71     1.411   .     S
C46    C160    1.477   .     S
C46    C163    1.410   .     A
C46    C152    1.409   .     A
C47    H115    1.109   .     S
C47    H117    1.111   .     S
C47    H114    1.111   .     S
C48    H119    1.116   .     S
C48    O72     1.411   .     S
C48    H118    1.111   .     S
C48    C49     1.520   .     S
C49    H122    1.111   .     S
C49    H120    1.111   .     S
C49    H121    1.111   .     S
C50    H123    1.111   .     S
C50    O74     1.412   .     S
C50    C51     1.520   .     S
C50    H124    1.116   .     S
C51    H125    1.111   .     S
C51    H128    1.111   .     S
C51    H126    1.110   .     S
C52    H130    1.116   .     S
C52    C53     1.520   .     S
C52    O75     1.412   .     S
C52    H129    1.111   .     S
C53    H133    1.111   .     S
C53    H132    1.111   .     S
C53    H131    1.111   .     S
C54    H135    1.116   .     S
C54    O76     1.412   .     S
C54    H134    1.111   .     S
C54    C55     1.521   .     S
C55    H137    1.111   .     S
C55    H136    1.111   .     S
C55    H139    1.111   .     S
C56    H140    1.117   .     S
C56    C58     1.521   .     S
C56    O77     1.416   .     S
C56    H141    1.111   .     S
C57    C159    1.409   .     A
C57    C153    1.409   .     A
C57    C149    1.476   .     S
C58    H142    1.110   .     S
C58    H143    1.111   .     S
C58    H144    1.111   .     S
C59    H145    1.111   .     S
C59    C60     1.521   .     S
C59    O78     1.412   .     S
C59    H146    1.116   .     S
C60    H148    1.111   .     S
C60    H147    1.110   .     S
C60    H150    1.111   .     S
C61    O79     1.412   .     S
C61    H151    1.111   .     S
C61    H152    1.116   .     S
C61    C62     1.520   .     S
C62    H155    1.111   .     S
C62    H153    1.111   .     S
C62    H154    1.111   .     S
C63    H157    1.116   .     S
C63    H156    1.111   .     S
C63    C64     1.521   .     S
C63    O80     1.412   .     S
C64    H159    1.111   .     S
C64    H161    1.111   .     S
C64    H158    1.111   .     S
C65    H162    1.111   .     S
C65    O81     1.411   .     S
C65    H163    1.116   .     S
C65    C66     1.520   .     S
C66    H166    1.111   .     S
C66    H164    1.111   .     S
C66    H165    1.111   .     S
C67    O82     1.410   .     S
C67    H168    1.115   .     S
C67    H167    1.111   .     S
C67    C69     1.521   .     S
C68    C138    1.477   .     S
C68    C161    1.410   .     A
C68    C154    1.409   .     A
C69    H170    1.109   .     S
C69    H172    1.111   .     S
C69    H169    1.111   .     S
C70    O83     1.411   .     S
C70    H173    1.113   .     S
C70    C71     1.520   .     S
C70    H174    1.113   .     S
C71    H176    1.111   .     S
C71    H175    1.110   .     S
C71    H177    1.111   .     S
C72    H178    1.111   .     S
C72    C73     1.521   .     S
C72    O85     1.412   .     S
C72    H179    1.116   .     S
C73    H181    1.111   .     S
C73    H183    1.111   .     S
C73    H180    1.110   .     S
C74    O86     1.412   .     S
C74    H184    1.111   .     S
C74    C75     1.520   .     S
C74    H185    1.116   .     S
C75    H187    1.111   .     S
C75    H188    1.111   .     S
C75    H186    1.111   .     S
C76    H189    1.111   .     S
C76    O87     1.412   .     S
C76    C77     1.521   .     S
C76    H190    1.116   .     S
C77    H191    1.111   .     S
C77    H3      1.111   .     S
C77    H192    1.111   .     S
C78    C80     1.520   .     S
C78    H4      1.111   .     S
C78    O88     1.411   .     S
C78    H5      1.116   .     S
C79    C119    1.420   .     S
C79    C90     1.197   .     S
C80    H7      1.111   .     S
C80    H6      1.111   .     S
C80    H8      1.111   .     S
C81    O89     1.411   .     S
C81    H10     1.116   .     S
C81    H9      1.111   .     S
C81    C82     1.521   .     S
C82    H11     1.111   .     S
C82    H14     1.111   .     S
C82    H12     1.110   .     S
C83    H15     1.111   .     S
C83    C84     1.520   .     S
C83    O90     1.412   .     S
C83    H16     1.116   .     S
C84    H17     1.111   .     S
C84    H19     1.111   .     S
C84    H18     1.111   .     S
C85    C86     1.521   .     S
C85    O91     1.412   .     S
C85    H21     1.116   .     S
C85    H20     1.111   .     S
C86    H22     1.111   .     S
C86    H23     1.111   .     S
C86    H25     1.111   .     S
C87    C88     1.520   .     S
C87    O92     1.411   .     S
C87    H26     1.111   .     S
C87    H27     1.116   .     S
C88    H30     1.111   .     S
C88    H28     1.111   .     S
C88    H29     1.110   .     S
C89    H32     1.116   .     S
C89    C91     1.520   .     S
C89    H31     1.111   .     S
C89    O93     1.412   .     S
C90    C118    1.420   .     S
C91    H36     1.111   .     S
C91    H34     1.110   .     S
C91    H33     1.111   .     S
C92    C93     1.520   .     S
C92    H37     1.111   .     S
C92    H38     1.116   .     S
C92    O94     1.411   .     S
C93    H39     1.111   .     S
C93    H41     1.111   .     S
C93    H40     1.111   .     S
C94    H42     1.110   .     S
C94    H43     1.116   .     S
C94    O96     1.412   .     S
C94    C95     1.520   .     S
C95    H47     1.110   .     S
C95    H44     1.110   .     S
C95    H45     1.111   .     S
C96    O97     1.411   .     S
C96    H49     1.116   .     S
C96    H48     1.111   .     S
C96    C97     1.520   .     S
C97    H50     1.111   .     S
C97    H52     1.111   .     S
C97    H51     1.111   .     S
C98    C99     1.520   .     S
C98    H54     1.116   .     S
C98    O98     1.412   .     S
C98    H53     1.111   .     S
C99    H55     1.111   .     S
C99    H58     1.111   .     S
C99    H56     1.110   .     S
C100   O99     1.411   .     S
C100   H59     1.111   .     S
C100   C102    1.520   .     S
C100   H60     1.115   .     S
C101   C117    1.420   .     S
C101   C106    1.197   .     S
C102   H63     1.111   .     S
C102   H61     1.110   .     S
C102   H62     1.111   .     S
C103   H64     1.111   .     S
C103   C104    1.521   .     S
C103   H65     1.116   .     S
C103   O100    1.411   .     S
C104   H67     1.109   .     S
C104   H69     1.111   .     S
C104   H66     1.111   .     S
C105   C139    1.405   .     A
C105   C167    1.408   .     A
C106   C115    1.420   .     S
C107   C114    1.420   .     S
C107   C108    1.197   1_556 S
C108   C113    1.420   .     S
C108   C107    1.197   1_554 S
C109   C112    1.420   .     S
C109   C110    1.197   1_556 S
C110   C109    1.197   1_554 S
C110   C111    1.420   .     S
C111   O62     1.276   .     A
C111   O106    1.276   .     S
C112   O2      1.276   .     A
C112   O73     1.276   .     A
C113   O13     1.276   .     A
C113   O84     1.276   .     A
C114   O21     1.276   .     S
C114   O95     1.276   .     S
C115   O22     1.276   1_545 A
C115   O26     1.276   .     S
C116   C164    1.411   .     A
C116   C140    1.412   .     A
C117   O23     1.276   .     A
C117   O27     1.276   1_545 S
C118   O24     1.276   1_455 A
C118   O28     1.276   .     S
C119   O25     1.276   .     A
C119   O30     1.276   1_455 S
C120   O64     1.274   .     A
C120   O31     1.274   .     A
C121   O32     1.279   .     A
C121   O65     1.279   .     A
C122   O33     1.272   .     A
C122   O61     1.274   .     A
C123   O63     1.276   .     A
C123   O34     1.276   .     A
C124   O59     1.274   .     A
C124   O35     1.274   .     A
C125   O60     1.279   .     A
C125   O36     1.279   .     A
C126   O57     1.275   .     A
C126   O37     1.275   .     A
C127   C165    1.409   .     A
C127   C141    1.409   .     A
C127   C182    1.474   .     S
C128   O38     1.273   .     A
C128   O58     1.273   .     A
C129   O39     1.277   .     A
C129   O55     1.275   .     A
C130   O56     1.273   .     A
C130   O41     1.273   .     A
C131   O53     1.272   .     A
C131   O42     1.271   .     A
C132   O43     1.274   .     A
C132   O54     1.275   .     A
C133   O44     1.272   .     A
C133   O50     1.272   .     A
C134   O45     1.275   .     A
C134   O52     1.276   .     A
C135   O48     1.272   .     A
C135   O46     1.272   .     A
C136   O47     1.275   .     A
C136   O49     1.275   .     A
C137   C173    1.398   .     A
C137   O66     1.384   .     S
C138   C142    1.409   .     A
C138   C170    1.409   .     A
C139   O67     1.386   .     S
C139   C174    1.403   .     A
C140   O68     1.385   .     S
C140   C175    1.411   .     A
C141   O69     1.385   .     S
C141   C176    1.397   .     A
C142   C177    1.398   .     A
C142   O70     1.384   .     S
C143   C149    1.410   .     A
C143   C178    1.397   .     A
C143   O71     1.384   .     S
C144   C160    1.411   .     A
C144   C179    1.412   .     A
C144   O72     1.385   .     S
C145   O74     1.385   .     S
C145   C171    1.409   .     A
C145   C180    1.396   .     A
C146   C181    1.409   .     A
C146   O75     1.385   .     S
C146   C182    1.408   .     A
C147   O76     1.385   .     S
C147   C183    1.399   .     A
C148   O77     1.387   .     S
C148   C184    1.403   .     A
C149   C172    1.410   .     A
C150   C185    1.398   .     A
C150   O78     1.385   .     S
C151   C186    1.409   .     A
C151   O79     1.385   .     S
C152   O80     1.385   .     S
C152   C187    1.399   .     A
C153   O81     1.384   .     S
C153   C188    1.397   .     A
C154   C189    1.398   .     A
C154   O82     1.384   .     S
C155   O83     1.383   .     S
C155   C190    1.399   .     A
C156   C191    1.398   .     A
C156   O85     1.385   .     S
C157   C182    1.408   .     A
C157   O86     1.385   .     S
C157   C192    1.409   .     A
C158   O87     1.385   .     S
C159   O88     1.384   .     S
C160   C168    1.410   .     A
C161   O89     1.385   .     S
C162   O90     1.385   .     S
C163   O91     1.385   .     S
C164   O92     1.385   .     S
C165   O93     1.385   .     S
C166   O94     1.384   .     S
C167   O96     1.384   .     S
C168   O97     1.384   .     S
C169   C171    1.409   .     A
C169   O98     1.385   .     S
C170   O99     1.384   .     S
C172   O100    1.384   .     S
C173   O101    1.385   .     S
C174   O102    1.382   .     S
C175   O103    1.384   .     S
C176   O104    1.385   .     S
C177   O105    1.383   .     S
C178   O107    1.385   .     S
C179   O108    1.385   .     S
C180   O109    1.385   .     S
C181   O110    1.385   .     S
C183   O111    1.385   .     S
C184   O112    1.385   .     S
C185   O113    1.383   .     S
C186   O114    1.385   .     S
C187   O115    1.384   .     S
C188   O116    1.382   .     S
C189   O3      1.385   .     S
C190   O4      1.385   .     S
C191   O5      1.383   .     S
C192   O6      1.385   .     S
H70    O101    0.988   .     S
H71    O102    0.989   .     S
H72    O103    0.989   .     S
H73    O104    0.988   .     S
H74    O105    0.989   .     S
H75    O107    0.988   .     S
H76    O108    0.989   .     S
H77    O109    0.988   .     S
H78    O110    0.989   .     S
H80    O111    0.988   .     S
H81    O112    0.988   .     S
H82    O113    0.989   .     S
H83    O114    0.989   .     S
H84    O115    0.988   .     S
H85    O116    0.990   .     S
H86    O3      0.988   .     S
H87    O4      0.988   .     S
H88    O5      0.989   .     S
H89    O6      0.989   .     S
H91    O7      0.988   .     S
H92    O8      0.990   .     S
H93    O9      0.988   .     S
H94    O10     0.989   .     S
H95    O11     0.988   .     S
H96    O12     0.989   .     S
H97    O14     0.988   .     S
H98    O15     0.988   .     S
H99    O16     0.990   .     S
H100   O17     0.988   .     S
H102   O18     0.988   .     S
H103   O19     0.989   .     S
H104   O20     0.988   .     S
O1     Zn8     1.938   .     S
O1     Zn12    1.938   1_455 S
O1     Zn4     1.938   .     S
O1     Zn1     1.937   .     S
O2     Zn3     1.911   .     S
O13    Zn6     1.911   .     S
O21    Zn5     1.911   .     S
O22    C115    1.276   1_565 A
O22    Zn15    1.912   .     S
O23    Zn14    1.912   .     S
O24    C118    1.276   1_655 A
O24    Zn9     1.912   .     S
O25    Zn1     1.912   .     S
O26    Zn11    1.911   .     S
O27    Zn10    1.911   .     S
O27    C117    1.276   1_565 S
O28    Zn13    1.911   .     S
O29    Zn9     1.937   1_455 S
O29    Zn7     1.938   .     S
O29    Zn3     1.938   .     S
O29    Zn13    1.938   .     S
O30    Zn12    1.911   .     S
O30    C119    1.276   1_655 S
O31    Zn4     1.935   .     S
O32    Zn3     1.935   1_655 S
O33    Zn6     1.934   1_565 S
O34    Zn5     1.934   .     S
O35    Zn8     1.935   1_655 S
O36    Zn7     1.935   .     S
O37    Zn2     1.934   .     S
O38    Zn16    1.934   1_565 S
O39    Zn7     1.934   1_655 S
O40    Zn14    1.938   .     S
O40    Zn2     1.937   .     S
O40    Zn6     1.938   .     S
O40    Zn10    1.938   1_545 S
O41    Zn8     1.934   .     S
O42    Zn5     1.935   1_565 S
O43    Zn6     1.935   .     S
O44    Zn3     1.934   .     S
O45    Zn4     1.934   1_655 S
O46    Zn16    1.936   .     S
O47    Zn2     1.936   1_565 S
O48    Zn11    1.935   .     S
O49    Zn10    1.935   .     S
O50    Zn13    1.934   .     S
O51    Zn5     1.938   .     S
O51    Zn16    1.937   .     S
O51    Zn11    1.938   .     S
O51    Zn15    1.938   1_545 S
O52    Zn12    1.934   .     S
O53    Zn15    1.935   .     S
O54    Zn14    1.935   .     S
O55    Zn9     1.934   .     S
O56    Zn1     1.934   .     S
O57    Zn14    1.934   .     S
O58    Zn15    1.934   .     S
O59    Zn12    1.935   .     S
O60    Zn13    1.935   .     S
O61    Zn10    1.934   .     S
O62    Zn8     1.912   .     S
O63    Zn11    1.934   .     S
O64    Zn1     1.936   .     S
O65    Zn9     1.936   .     S
O73    Zn7     1.912   .     S
O84    Zn2     1.912   .     S
O95    Zn16    1.912   .     S
O106   Zn4     1.911   .     S
Zn2    O47     1.936   1_545 S
Zn3    O32     1.935   1_455 S
Zn4    O45     1.934   1_455 S
Zn5    O42     1.935   1_545 S
Zn6    O33     1.934   1_545 S
Zn7    O39     1.934   1_455 S
Zn8    O35     1.935   1_455 S
Zn9    O29     1.937   1_655 S
Zn10   O40     1.938   1_565 S
Zn12   O1      1.938   1_655 S
Zn15   O51     1.938   1_565 S
Zn16   O38     1.934   1_545 S
