data_str_m1_o5_o17_pcu_sym.63
_audit_creation_date              2020-01-03
_audit_creation_method            'Materials Studio'
_symmetry_space_group_name_H-M    'P1'
_symmetry_Int_Tables_number       1
_symmetry_cell_setting            triclinic
loop_
_symmetry_equiv_pos_as_xyz
  x,y,z
_cell_length_a                    31.7631
_cell_length_b                    31.7631
_cell_length_c                    34.5910
_cell_angle_alpha                 90.0000
_cell_angle_beta                  90.0000
_cell_angle_gamma                 90.0895
loop_
_atom_site_label
_atom_site_type_symbol
_atom_site_fract_x
_atom_site_fract_y
_atom_site_fract_z
_atom_site_U_iso_or_equiv
_atom_site_adp_type
_atom_site_occupancy
C1     C     0.25000   0.00000   0.35584   0.00000  Uiso   1.00
C2     C     0.33002   0.41998   0.75000   0.00000  Uiso   1.00
C3     C     0.43753   0.20428   0.02031   0.00000  Uiso   1.00
C4     C     0.29572   0.06247   0.97969   0.00000  Uiso   1.00
C5     C     0.20428   0.43753   0.02031   0.00000  Uiso   1.00
C6     C     0.43753   0.20428   0.97969   0.00000  Uiso   1.00
C7     C     0.06247   0.29572   0.02031   0.00000  Uiso   1.00
C8     C     0.41999   0.17000   0.25000   0.00000  Uiso   1.00
C9     C     0.08000   0.33001   0.75000   0.00000  Uiso   1.00
C10    C     0.33002   0.41998   0.25000   0.00000  Uiso   1.00
C11    C     0.16998   0.08002   0.75000   0.00000  Uiso   1.00
C12    C     0.08000   0.33001   0.25000   0.00000  Uiso   1.00
C13    C     0.41999   0.17000   0.75000   0.00000  Uiso   1.00
C14    C     0.16999   0.42000   0.75000   0.00000  Uiso   1.00
C15    C     0.33000   0.08001   0.25000   0.00000  Uiso   1.00
C16    C     0.41998   0.33002   0.75000   0.00000  Uiso   1.00
C17    C     0.25000   0.00000   0.64416   0.00000  Uiso   1.00
C18    C     0.08002   0.16998   0.25000   0.00000  Uiso   1.00
C19    C     0.33000   0.08001   0.75000   0.00000  Uiso   1.00
C20    C     0.16999   0.42000   0.25000   0.00000  Uiso   1.00
C21    C     0.08002   0.16998   0.75000   0.00000  Uiso   1.00
C22    C     0.41998   0.33002   0.25000   0.00000  Uiso   1.00
C23    C     0.13834   0.38834   0.25000   0.00000  Uiso   1.00
C24    C     0.36166   0.11166   0.75000   0.00000  Uiso   1.00
C25    C     0.11167   0.13833   0.25000   0.00000  Uiso   1.00
C26    C     0.38833   0.36167   0.75000   0.00000  Uiso   1.00
C27    C     0.36166   0.11166   0.25000   0.00000  Uiso   1.00
C28    C     0.00000   0.25000   0.35584   0.00000  Uiso   1.00
C29    C     0.13834   0.38834   0.75000   0.00000  Uiso   1.00
C30    C     0.38833   0.36167   0.25000   0.00000  Uiso   1.00
C31    C     0.11167   0.13833   0.75000   0.00000  Uiso   1.00
C32    C     0.13833   0.11167   0.75000   0.00000  Uiso   1.00
C33    C     0.36167   0.38833   0.25000   0.00000  Uiso   1.00
C34    C     0.11166   0.36166   0.75000   0.00000  Uiso   1.00
C35    C     0.38834   0.13834   0.25000   0.00000  Uiso   1.00
C36    C     0.36167   0.38833   0.75000   0.00000  Uiso   1.00
C37    C     0.13833   0.11167   0.25000   0.00000  Uiso   1.00
C38    C     0.38834   0.13834   0.75000   0.00000  Uiso   1.00
C39    C    -0.00000   0.25000   0.64416   0.00000  Uiso   1.00
C40    C     0.11166   0.36166   0.25000   0.00000  Uiso   1.00
C41    C     0.01981   0.28299   0.41807   0.00000  Uiso   1.00
C42    C     0.48019   0.21701   0.58193   0.00000  Uiso   1.00
C43    C     0.21701   0.48019   0.41807   0.00000  Uiso   1.00
C44    C     0.28299   0.01981   0.58193   0.00000  Uiso   1.00
C45    C     0.48019   0.21701   0.41807   0.00000  Uiso   1.00
C46    C     0.01981   0.28299   0.58193   0.00000  Uiso   1.00
C47    C     0.28299   0.01981   0.41807   0.00000  Uiso   1.00
C48    C     0.21701   0.48019   0.58193   0.00000  Uiso   1.00
C49    C     0.26981   0.03299   0.91807   0.00000  Uiso   1.00
C50    C     0.00000   0.25000   0.85584   0.00000  Uiso   1.00
C51    C     0.23019   0.46701   0.08193   0.00000  Uiso   1.00
C52    C     0.46701   0.23019   0.91807   0.00000  Uiso   1.00
C53    C     0.03299   0.26981   0.08193   0.00000  Uiso   1.00
C54    C     0.23019   0.46701   0.91807   0.00000  Uiso   1.00
C55    C     0.26981   0.03299   0.08193   0.00000  Uiso   1.00
C56    C     0.03299   0.26981   0.91807   0.00000  Uiso   1.00
C57    C     0.46701   0.23019   0.08193   0.00000  Uiso   1.00
C58    C    -0.00000   0.25000   0.39813   0.00000  Uiso   1.00
C59    C    -0.00000   0.25000   0.60187   0.00000  Uiso   1.00
C60    C     0.25000   0.00000   0.39813   0.00000  Uiso   1.00
C61    C    -0.00000   0.25000   0.14416   0.00000  Uiso   1.00
C62    C     0.25000   0.00000   0.60187   0.00000  Uiso   1.00
C63    C     0.25000   0.00000   0.89813   0.00000  Uiso   1.00
C64    C     0.25000   0.00000   0.10187   0.00000  Uiso   1.00
C65    C    -0.00000   0.25000   0.89813   0.00000  Uiso   1.00
C66    C    -0.00000   0.25000   0.10187   0.00000  Uiso   1.00
C67    C     0.47808   0.21783   0.45895   0.00000  Uiso   1.00
C68    C     0.02192   0.28217   0.54105   0.00000  Uiso   1.00
C69    C     0.28217   0.02192   0.45895   0.00000  Uiso   1.00
C70    C     0.21783   0.47808   0.54105   0.00000  Uiso   1.00
C71    C     0.02192   0.28217   0.45895   0.00000  Uiso   1.00
C72    C     0.25000   0.00000   0.85584   0.00000  Uiso   1.00
C73    C     0.47808   0.21783   0.54105   0.00000  Uiso   1.00
C74    C     0.21783   0.47808   0.45895   0.00000  Uiso   1.00
C75    C     0.28217   0.02192   0.54105   0.00000  Uiso   1.00
C76    C     0.22808   0.46783   0.95895   0.00000  Uiso   1.00
C77    C     0.27192   0.03217   0.04105   0.00000  Uiso   1.00
C78    C     0.03217   0.27192   0.95895   0.00000  Uiso   1.00
C79    C     0.46783   0.22808   0.04105   0.00000  Uiso   1.00
C80    C     0.27192   0.03217   0.95895   0.00000  Uiso   1.00
C81    C     0.22808   0.46783   0.04105   0.00000  Uiso   1.00
C82    C     0.46783   0.22808   0.95895   0.00000  Uiso   1.00
C83    C     0.25000   0.00000   0.14416   0.00000  Uiso   1.00
C84    C     0.03217   0.27192   0.04105   0.00000  Uiso   1.00
C85    C    -0.00000   0.25000   0.47948   0.00000  Uiso   1.00
C86    C    -0.00000   0.25000   0.52052   0.00000  Uiso   1.00
C87    C     0.25000   0.00000   0.47948   0.00000  Uiso   1.00
C88    C     0.25000   0.00000   0.52052   0.00000  Uiso   1.00
C89    C     0.25000   0.00000   0.97948   0.00000  Uiso   1.00
C90    C     0.25000   0.00000   0.02052   0.00000  Uiso   1.00
C91    C     0.00000   0.25000   0.97948   0.00000  Uiso   1.00
C92    C     0.00000   0.25000   0.02052   0.00000  Uiso   1.00
C93    C     0.45428   0.18753   0.47969   0.00000  Uiso   1.00
C94    C     0.16998   0.08002   0.25000   0.00000  Uiso   1.00
C95    C     0.04572   0.31247   0.52031   0.00000  Uiso   1.00
C96    C     0.31247   0.04572   0.47969   0.00000  Uiso   1.00
C97    C     0.18753   0.45428   0.52031   0.00000  Uiso   1.00
C98    C     0.04572   0.31247   0.47969   0.00000  Uiso   1.00
C99    C     0.45428   0.18753   0.52031   0.00000  Uiso   1.00
C100   C     0.18753   0.45428   0.47969   0.00000  Uiso   1.00
C101   C     0.31247   0.04572   0.52031   0.00000  Uiso   1.00
C102   C     0.20428   0.43753   0.97969   0.00000  Uiso   1.00
C103   C     0.29572   0.06247   0.02031   0.00000  Uiso   1.00
C104   C     0.06247   0.29572   0.97969   0.00000  Uiso   1.00
H105   H     0.06111   0.30820   0.37931   0.00000  Uiso   1.00
H106   H     0.48763   0.16927   0.37928   0.00000  Uiso   1.00
H107   H     0.01236   0.33073   0.62072   0.00000  Uiso   1.00
H108   H     0.06111   0.30820   0.62069   0.00000  Uiso   1.00
H109   H     0.33073   0.01236   0.37928   0.00000  Uiso   1.00
H110   H     0.30820   0.06111   0.37931   0.00000  Uiso   1.00
H111   H     0.19180   0.43889   0.62069   0.00000  Uiso   1.00
H112   H     0.16927   0.48764   0.62072   0.00000  Uiso   1.00
H113   H     0.31111   0.05820   0.87931   0.00000  Uiso   1.00
H114   H     0.26236   0.08073   0.87928   0.00000  Uiso   1.00
H115   H     0.23764   0.41927   0.12072   0.00000  Uiso   1.00
H116   H     0.01236   0.33073   0.37928   0.00000  Uiso   1.00
H117   H     0.18889   0.44180   0.12069   0.00000  Uiso   1.00
H118   H     0.41927   0.23764   0.87928   0.00000  Uiso   1.00
H119   H     0.44180   0.18889   0.87931   0.00000  Uiso   1.00
H120   H     0.05820   0.31111   0.12069   0.00000  Uiso   1.00
H121   H     0.08073   0.26236   0.12072   0.00000  Uiso   1.00
H122   H     0.18889   0.44180   0.87931   0.00000  Uiso   1.00
H123   H     0.23764   0.41927   0.87928   0.00000  Uiso   1.00
H124   H     0.26236   0.08073   0.12072   0.00000  Uiso   1.00
H125   H     0.31111   0.05820   0.12069   0.00000  Uiso   1.00
H126   H     0.08073   0.26236   0.87928   0.00000  Uiso   1.00
H127   H     0.48763   0.16927   0.62072   0.00000  Uiso   1.00
H128   H     0.05820   0.31111   0.87931   0.00000  Uiso   1.00
H129   H     0.44180   0.18889   0.12069   0.00000  Uiso   1.00
H130   H     0.41927   0.23764   0.12072   0.00000  Uiso   1.00
H131   H     0.39702   0.16176   0.46709   0.00000  Uiso   1.00
H132   H     0.43796   0.12693   0.46697   0.00000  Uiso   1.00
H133   H     0.06204   0.37307   0.53303   0.00000  Uiso   1.00
H134   H     0.10298   0.33824   0.53291   0.00000  Uiso   1.00
H135   H     0.37307   0.06204   0.46697   0.00000  Uiso   1.00
H136   H     0.33824   0.10298   0.46709   0.00000  Uiso   1.00
H137   H     0.16175   0.39702   0.53291   0.00000  Uiso   1.00
H138   H     0.43889   0.19180   0.62069   0.00000  Uiso   1.00
H139   H     0.12693   0.43796   0.53303   0.00000  Uiso   1.00
H140   H     0.10298   0.33824   0.46709   0.00000  Uiso   1.00
H141   H     0.06204   0.37307   0.46697   0.00000  Uiso   1.00
H142   H     0.43796   0.12693   0.53303   0.00000  Uiso   1.00
H143   H     0.39702   0.16176   0.53291   0.00000  Uiso   1.00
H144   H     0.12693   0.43796   0.46697   0.00000  Uiso   1.00
H145   H     0.16175   0.39702   0.46709   0.00000  Uiso   1.00
H146   H     0.33824   0.10298   0.53291   0.00000  Uiso   1.00
H147   H     0.37307   0.06204   0.53303   0.00000  Uiso   1.00
H148   H     0.14702   0.41175   0.96709   0.00000  Uiso   1.00
H149   H     0.16927   0.48764   0.37928   0.00000  Uiso   1.00
H150   H     0.18796   0.37693   0.96697   0.00000  Uiso   1.00
H151   H     0.31204   0.12307   0.03303   0.00000  Uiso   1.00
H152   H     0.35298   0.08825   0.03291   0.00000  Uiso   1.00
H153   H     0.12307   0.31204   0.96697   0.00000  Uiso   1.00
H154   H     0.08824   0.35298   0.96709   0.00000  Uiso   1.00
H155   H     0.41175   0.14702   0.03291   0.00000  Uiso   1.00
H156   H     0.37693   0.18796   0.03303   0.00000  Uiso   1.00
H157   H     0.35298   0.08825   0.96709   0.00000  Uiso   1.00
H158   H     0.31204   0.12307   0.96697   0.00000  Uiso   1.00
H159   H     0.18796   0.37693   0.03303   0.00000  Uiso   1.00
H160   H     0.19180   0.43889   0.37931   0.00000  Uiso   1.00
H161   H     0.14702   0.41175   0.03291   0.00000  Uiso   1.00
H162   H     0.37693   0.18796   0.96697   0.00000  Uiso   1.00
H163   H     0.41175   0.14702   0.96709   0.00000  Uiso   1.00
H164   H     0.08824   0.35298   0.03291   0.00000  Uiso   1.00
H165   H     0.12307   0.31204   0.03303   0.00000  Uiso   1.00
H166   H     0.30820   0.06111   0.62069   0.00000  Uiso   1.00
H167   H     0.33073   0.01236   0.62072   0.00000  Uiso   1.00
H168   H     0.43889   0.19180   0.37931   0.00000  Uiso   1.00
N169   N     0.03618   0.31825   0.39670   0.00000  Uiso   1.00
N170   N     0.21382   0.43175   0.10330   0.00000  Uiso   1.00
N171   N     0.43175   0.21382   0.89670   0.00000  Uiso   1.00
N172   N     0.06825   0.28618   0.10330   0.00000  Uiso   1.00
N173   N     0.21382   0.43175   0.89670   0.00000  Uiso   1.00
N174   N     0.28618   0.06825   0.10330   0.00000  Uiso   1.00
N175   N     0.06825   0.28618   0.89670   0.00000  Uiso   1.00
N176   N     0.43175   0.21382   0.10330   0.00000  Uiso   1.00
N177   N     0.42856   0.15739   0.45954   0.00000  Uiso   1.00
N178   N     0.07144   0.34261   0.54047   0.00000  Uiso   1.00
N179   N     0.34261   0.07144   0.45954   0.00000  Uiso   1.00
N180   N     0.46382   0.18175   0.60330   0.00000  Uiso   1.00
N181   N     0.15739   0.42856   0.54047   0.00000  Uiso   1.00
N182   N     0.07144   0.34261   0.45954   0.00000  Uiso   1.00
N183   N     0.42856   0.15739   0.54047   0.00000  Uiso   1.00
N184   N     0.15739   0.42856   0.45954   0.00000  Uiso   1.00
N185   N     0.34261   0.07144   0.54047   0.00000  Uiso   1.00
N186   N     0.17856   0.40739   0.95954   0.00000  Uiso   1.00
N187   N     0.32144   0.09261   0.04047   0.00000  Uiso   1.00
N188   N     0.09261   0.32144   0.95954   0.00000  Uiso   1.00
N189   N     0.40739   0.17856   0.04047   0.00000  Uiso   1.00
N190   N     0.32144   0.09261   0.95954   0.00000  Uiso   1.00
N191   N     0.18175   0.46382   0.39670   0.00000  Uiso   1.00
N192   N     0.17856   0.40739   0.04047   0.00000  Uiso   1.00
N193   N     0.40739   0.17856   0.95954   0.00000  Uiso   1.00
N194   N     0.09261   0.32144   0.04047   0.00000  Uiso   1.00
N195   N     0.31825   0.03618   0.60330   0.00000  Uiso   1.00
N196   N     0.46382   0.18175   0.39670   0.00000  Uiso   1.00
N197   N     0.03618   0.31825   0.60330   0.00000  Uiso   1.00
N198   N     0.31825   0.03618   0.39670   0.00000  Uiso   1.00
N199   N     0.18175   0.46382   0.60330   0.00000  Uiso   1.00
N200   N     0.28618   0.06825   0.89670   0.00000  Uiso   1.00
O201   O     0.25000   0.00000   0.25000   0.00000  Uiso   1.00
O202   O     0.25000   0.46539   0.66251   0.00000  Uiso   1.00
O203   O     0.46538   0.25000   0.33749   0.00000  Uiso   1.00
O204   O     0.03461   0.25000   0.66251   0.00000  Uiso   1.00
O205   O     0.00000   0.21538   0.83749   0.00000  Uiso   1.00
O206   O     0.00000   0.28461   0.16251   0.00000  Uiso   1.00
O207   O     0.28461   0.00000   0.83749   0.00000  Uiso   1.00
O208   O     0.21538   0.00000   0.16251   0.00000  Uiso   1.00
O209   O     0.00000   0.28461   0.83749   0.00000  Uiso   1.00
O210   O    -0.00000   0.21539   0.16251   0.00000  Uiso   1.00
O211   O     0.21538   0.00000   0.83749   0.00000  Uiso   1.00
O212   O     0.25000   0.00000   0.75000   0.00000  Uiso   1.00
O213   O     0.28461   0.00000   0.16251   0.00000  Uiso   1.00
O214   O     0.20126   0.08332   0.27298   0.00000  Uiso   1.00
O215   O     0.29873   0.41668   0.72702   0.00000  Uiso   1.00
O216   O     0.41668   0.20127   0.27298   0.00000  Uiso   1.00
O217   O     0.08332   0.29874   0.72702   0.00000  Uiso   1.00
O218   O     0.29873   0.41668   0.27298   0.00000  Uiso   1.00
O219   O     0.20126   0.08332   0.72702   0.00000  Uiso   1.00
O220   O     0.08332   0.29874   0.27298   0.00000  Uiso   1.00
O221   O     0.41668   0.20127   0.72702   0.00000  Uiso   1.00
O222   O     0.20126   0.41668   0.72702   0.00000  Uiso   1.00
O223   O    -0.00000   0.25000   0.25000   0.00000  Uiso   1.00
O224   O     0.29873   0.08332   0.27298   0.00000  Uiso   1.00
O225   O     0.41668   0.29874   0.72702   0.00000  Uiso   1.00
O226   O     0.08332   0.20127   0.27298   0.00000  Uiso   1.00
O227   O     0.29873   0.08332   0.72702   0.00000  Uiso   1.00
O228   O     0.20126   0.41668   0.27298   0.00000  Uiso   1.00
O229   O     0.08332   0.20127   0.72702   0.00000  Uiso   1.00
O230   O     0.41668   0.29874   0.27298   0.00000  Uiso   1.00
O231   O     0.45126   0.33332   0.77298   0.00000  Uiso   1.00
O232   O     0.04873   0.16668   0.22702   0.00000  Uiso   1.00
O233   O     0.16668   0.45127   0.77298   0.00000  Uiso   1.00
O234   O     0.00000   0.25000   0.75000   0.00000  Uiso   1.00
O235   O     0.33332   0.04874   0.22702   0.00000  Uiso   1.00
O236   O     0.04873   0.16668   0.77298   0.00000  Uiso   1.00
O237   O     0.45126   0.33332   0.22702   0.00000  Uiso   1.00
O238   O     0.33332   0.04874   0.77298   0.00000  Uiso   1.00
O239   O     0.16668   0.45127   0.22702   0.00000  Uiso   1.00
O240   O     0.45126   0.16668   0.22702   0.00000  Uiso   1.00
O241   O     0.04873   0.33332   0.77298   0.00000  Uiso   1.00
O242   O     0.16668   0.04874   0.22702   0.00000  Uiso   1.00
O243   O     0.33332   0.45127   0.77298   0.00000  Uiso   1.00
O244   O     0.04873   0.33332   0.22702   0.00000  Uiso   1.00
O245   O     0.25000   0.46539   0.33749   0.00000  Uiso   1.00
O246   O     0.45126   0.16668   0.77298   0.00000  Uiso   1.00
O247   O     0.33332   0.45127   0.22702   0.00000  Uiso   1.00
O248   O     0.16668   0.04874   0.77298   0.00000  Uiso   1.00
O249   O     0.25000   0.03462   0.66251   0.00000  Uiso   1.00
O250   O     0.03461   0.25000   0.33749   0.00000  Uiso   1.00
O251   O     0.46538   0.25000   0.66251   0.00000  Uiso   1.00
O252   O     0.25000   0.03462   0.33749   0.00000  Uiso   1.00
Zn253  Zn    0.20052   0.00000   0.21730   0.00000  Uiso   1.00
Zn254  Zn    0.04947   0.25000   0.28270   0.00000  Uiso   1.00
Zn255  Zn    0.25000   0.45053   0.71730   0.00000  Uiso   1.00
Zn256  Zn    0.25000   0.04948   0.28270   0.00000  Uiso   1.00
Zn257  Zn    0.04947   0.25000   0.71730   0.00000  Uiso   1.00
Zn258  Zn    0.45052   0.25000   0.28270   0.00000  Uiso   1.00
Zn259  Zn    0.25000   0.04948   0.71730   0.00000  Uiso   1.00
Zn260  Zn    0.25000   0.45053   0.28270   0.00000  Uiso   1.00
Zn261  Zn    0.29947   0.00000   0.78270   0.00000  Uiso   1.00
Zn262  Zn    0.00000   0.20052   0.21730   0.00000  Uiso   1.00
Zn263  Zn    0.00000   0.29947   0.78270   0.00000  Uiso   1.00
Zn264  Zn    0.29947   0.00000   0.21730   0.00000  Uiso   1.00
Zn265  Zn    0.20052   0.00000   0.78270   0.00000  Uiso   1.00
Zn266  Zn    0.00000   0.29947   0.21730   0.00000  Uiso   1.00
Zn267  Zn    0.00000   0.20052   0.78270   0.00000  Uiso   1.00
Zn268  Zn    0.45052   0.25000   0.71730   0.00000  Uiso   1.00
C269   C     0.75000   0.00000   0.35584   0.00000  Uiso   1.00
C270   C     0.83002   0.41998   0.75000   0.00000  Uiso   1.00
C271   C     0.93753   0.20428   0.02031   0.00000  Uiso   1.00
C272   C     0.79572   0.06247   0.97969   0.00000  Uiso   1.00
C273   C     0.70428   0.43753   0.02031   0.00000  Uiso   1.00
C274   C     0.93753   0.20428   0.97969   0.00000  Uiso   1.00
C275   C     0.56247   0.29572   0.02031   0.00000  Uiso   1.00
C276   C     0.91999   0.17000   0.25000   0.00000  Uiso   1.00
C277   C     0.58000   0.33001   0.75000   0.00000  Uiso   1.00
C278   C     0.83002   0.41998   0.25000   0.00000  Uiso   1.00
C279   C     0.66998   0.08002   0.75000   0.00000  Uiso   1.00
C280   C     0.58000   0.33001   0.25000   0.00000  Uiso   1.00
C281   C     0.91999   0.17000   0.75000   0.00000  Uiso   1.00
C282   C     0.66999   0.42000   0.75000   0.00000  Uiso   1.00
C283   C     0.83000   0.08001   0.25000   0.00000  Uiso   1.00
C284   C     0.91998   0.33002   0.75000   0.00000  Uiso   1.00
C285   C     0.75000   0.00000   0.64416   0.00000  Uiso   1.00
C286   C     0.58002   0.16998   0.25000   0.00000  Uiso   1.00
C287   C     0.83000   0.08001   0.75000   0.00000  Uiso   1.00
C288   C     0.66999   0.42000   0.25000   0.00000  Uiso   1.00
C289   C     0.58002   0.16998   0.75000   0.00000  Uiso   1.00
C290   C     0.91998   0.33002   0.25000   0.00000  Uiso   1.00
C291   C     0.63834   0.38834   0.25000   0.00000  Uiso   1.00
C292   C     0.86166   0.11166   0.75000   0.00000  Uiso   1.00
C293   C     0.61167   0.13833   0.25000   0.00000  Uiso   1.00
C294   C     0.88833   0.36167   0.75000   0.00000  Uiso   1.00
C295   C     0.86166   0.11166   0.25000   0.00000  Uiso   1.00
C296   C     0.50000   0.25000   0.35584   0.00000  Uiso   1.00
C297   C     0.63834   0.38834   0.75000   0.00000  Uiso   1.00
C298   C     0.88833   0.36167   0.25000   0.00000  Uiso   1.00
C299   C     0.61167   0.13833   0.75000   0.00000  Uiso   1.00
C300   C     0.63833   0.11167   0.75000   0.00000  Uiso   1.00
C301   C     0.86167   0.38833   0.25000   0.00000  Uiso   1.00
C302   C     0.61166   0.36166   0.75000   0.00000  Uiso   1.00
C303   C     0.88834   0.13834   0.25000   0.00000  Uiso   1.00
C304   C     0.86167   0.38833   0.75000   0.00000  Uiso   1.00
C305   C     0.63833   0.11167   0.25000   0.00000  Uiso   1.00
C306   C     0.88834   0.13834   0.75000   0.00000  Uiso   1.00
C307   C     0.50000   0.25000   0.64416   0.00000  Uiso   1.00
C308   C     0.61166   0.36166   0.25000   0.00000  Uiso   1.00
C309   C     0.51981   0.28299   0.41807   0.00000  Uiso   1.00
C310   C     0.98019   0.21701   0.58193   0.00000  Uiso   1.00
C311   C     0.71701   0.48019   0.41807   0.00000  Uiso   1.00
C312   C     0.78299   0.01981   0.58193   0.00000  Uiso   1.00
C313   C     0.98019   0.21701   0.41807   0.00000  Uiso   1.00
C314   C     0.51981   0.28299   0.58193   0.00000  Uiso   1.00
C315   C     0.78299   0.01981   0.41807   0.00000  Uiso   1.00
C316   C     0.71701   0.48019   0.58193   0.00000  Uiso   1.00
C317   C     0.76981   0.03299   0.91807   0.00000  Uiso   1.00
C318   C     0.50000   0.25000   0.85584   0.00000  Uiso   1.00
C319   C     0.73019   0.46701   0.08193   0.00000  Uiso   1.00
C320   C     0.96701   0.23019   0.91807   0.00000  Uiso   1.00
C321   C     0.53299   0.26981   0.08193   0.00000  Uiso   1.00
C322   C     0.73019   0.46701   0.91807   0.00000  Uiso   1.00
C323   C     0.76981   0.03299   0.08193   0.00000  Uiso   1.00
C324   C     0.53299   0.26981   0.91807   0.00000  Uiso   1.00
C325   C     0.96701   0.23019   0.08193   0.00000  Uiso   1.00
C326   C     0.50000   0.25000   0.39813   0.00000  Uiso   1.00
C327   C     0.50000   0.25000   0.60187   0.00000  Uiso   1.00
C328   C     0.75000   0.00000   0.39813   0.00000  Uiso   1.00
C329   C     0.50000   0.25000   0.14416   0.00000  Uiso   1.00
C330   C     0.75000   0.00000   0.60187   0.00000  Uiso   1.00
C331   C     0.75000   0.00000   0.89813   0.00000  Uiso   1.00
C332   C     0.75000   0.00000   0.10187   0.00000  Uiso   1.00
C333   C     0.50000   0.25000   0.89813   0.00000  Uiso   1.00
C334   C     0.50000   0.25000   0.10187   0.00000  Uiso   1.00
C335   C     0.97808   0.21783   0.45895   0.00000  Uiso   1.00
C336   C     0.52192   0.28217   0.54105   0.00000  Uiso   1.00
C337   C     0.78217   0.02192   0.45895   0.00000  Uiso   1.00
C338   C     0.71783   0.47808   0.54105   0.00000  Uiso   1.00
C339   C     0.52192   0.28217   0.45895   0.00000  Uiso   1.00
C340   C     0.75000   0.00000   0.85584   0.00000  Uiso   1.00
C341   C     0.97808   0.21783   0.54105   0.00000  Uiso   1.00
C342   C     0.71783   0.47808   0.45895   0.00000  Uiso   1.00
C343   C     0.78217   0.02192   0.54105   0.00000  Uiso   1.00
C344   C     0.72808   0.46783   0.95895   0.00000  Uiso   1.00
C345   C     0.77192   0.03217   0.04105   0.00000  Uiso   1.00
C346   C     0.53217   0.27192   0.95895   0.00000  Uiso   1.00
C347   C     0.96783   0.22808   0.04105   0.00000  Uiso   1.00
C348   C     0.77192   0.03217   0.95895   0.00000  Uiso   1.00
C349   C     0.72808   0.46783   0.04105   0.00000  Uiso   1.00
C350   C     0.96783   0.22808   0.95895   0.00000  Uiso   1.00
C351   C     0.75000   0.00000   0.14416   0.00000  Uiso   1.00
C352   C     0.53217   0.27192   0.04105   0.00000  Uiso   1.00
C353   C     0.50000   0.25000   0.47948   0.00000  Uiso   1.00
C354   C     0.50000   0.25000   0.52052   0.00000  Uiso   1.00
C355   C     0.75000   0.00000   0.47948   0.00000  Uiso   1.00
C356   C     0.75000   0.00000   0.52052   0.00000  Uiso   1.00
C357   C     0.75000   0.00000   0.97948   0.00000  Uiso   1.00
C358   C     0.75000   0.00000   0.02052   0.00000  Uiso   1.00
C359   C     0.50000   0.25000   0.97948   0.00000  Uiso   1.00
C360   C     0.50000   0.25000   0.02052   0.00000  Uiso   1.00
C361   C     0.95428   0.18753   0.47969   0.00000  Uiso   1.00
C362   C     0.66998   0.08002   0.25000   0.00000  Uiso   1.00
C363   C     0.54572   0.31247   0.52031   0.00000  Uiso   1.00
C364   C     0.81247   0.04572   0.47969   0.00000  Uiso   1.00
C365   C     0.68753   0.45428   0.52031   0.00000  Uiso   1.00
C366   C     0.54572   0.31247   0.47969   0.00000  Uiso   1.00
C367   C     0.95428   0.18753   0.52031   0.00000  Uiso   1.00
C368   C     0.68753   0.45428   0.47969   0.00000  Uiso   1.00
C369   C     0.81247   0.04572   0.52031   0.00000  Uiso   1.00
C370   C     0.70428   0.43753   0.97969   0.00000  Uiso   1.00
C371   C     0.79572   0.06247   0.02031   0.00000  Uiso   1.00
C372   C     0.56247   0.29572   0.97969   0.00000  Uiso   1.00
H373   H     0.56111   0.30820   0.37931   0.00000  Uiso   1.00
H374   H     0.98763   0.16927   0.37928   0.00000  Uiso   1.00
H375   H     0.51236   0.33073   0.62072   0.00000  Uiso   1.00
H376   H     0.56111   0.30820   0.62069   0.00000  Uiso   1.00
H377   H     0.83073   0.01236   0.37928   0.00000  Uiso   1.00
H378   H     0.80820   0.06111   0.37931   0.00000  Uiso   1.00
H379   H     0.69180   0.43889   0.62069   0.00000  Uiso   1.00
H380   H     0.66927   0.48764   0.62072   0.00000  Uiso   1.00
H381   H     0.81111   0.05820   0.87931   0.00000  Uiso   1.00
H382   H     0.76236   0.08073   0.87928   0.00000  Uiso   1.00
H383   H     0.73764   0.41927   0.12072   0.00000  Uiso   1.00
H384   H     0.51236   0.33073   0.37928   0.00000  Uiso   1.00
H385   H     0.68889   0.44180   0.12069   0.00000  Uiso   1.00
H386   H     0.91927   0.23764   0.87928   0.00000  Uiso   1.00
H387   H     0.94180   0.18889   0.87931   0.00000  Uiso   1.00
H388   H     0.55820   0.31111   0.12069   0.00000  Uiso   1.00
H389   H     0.58073   0.26236   0.12072   0.00000  Uiso   1.00
H390   H     0.68889   0.44180   0.87931   0.00000  Uiso   1.00
H391   H     0.73764   0.41927   0.87928   0.00000  Uiso   1.00
H392   H     0.76236   0.08073   0.12072   0.00000  Uiso   1.00
H393   H     0.81111   0.05820   0.12069   0.00000  Uiso   1.00
H394   H     0.58073   0.26236   0.87928   0.00000  Uiso   1.00
H395   H     0.98763   0.16927   0.62072   0.00000  Uiso   1.00
H396   H     0.55820   0.31111   0.87931   0.00000  Uiso   1.00
H397   H     0.94180   0.18889   0.12069   0.00000  Uiso   1.00
H398   H     0.91927   0.23764   0.12072   0.00000  Uiso   1.00
H399   H     0.89702   0.16176   0.46709   0.00000  Uiso   1.00
H400   H     0.93796   0.12693   0.46697   0.00000  Uiso   1.00
H401   H     0.56204   0.37307   0.53303   0.00000  Uiso   1.00
H402   H     0.60298   0.33824   0.53291   0.00000  Uiso   1.00
H403   H     0.87307   0.06204   0.46697   0.00000  Uiso   1.00
H404   H     0.83824   0.10298   0.46709   0.00000  Uiso   1.00
H405   H     0.66175   0.39702   0.53291   0.00000  Uiso   1.00
H406   H     0.93889   0.19180   0.62069   0.00000  Uiso   1.00
H407   H     0.62693   0.43796   0.53303   0.00000  Uiso   1.00
H408   H     0.60298   0.33824   0.46709   0.00000  Uiso   1.00
H409   H     0.56204   0.37307   0.46697   0.00000  Uiso   1.00
H410   H     0.93796   0.12693   0.53303   0.00000  Uiso   1.00
H411   H     0.89702   0.16176   0.53291   0.00000  Uiso   1.00
H412   H     0.62693   0.43796   0.46697   0.00000  Uiso   1.00
H413   H     0.66175   0.39702   0.46709   0.00000  Uiso   1.00
H414   H     0.83824   0.10298   0.53291   0.00000  Uiso   1.00
H415   H     0.87307   0.06204   0.53303   0.00000  Uiso   1.00
H416   H     0.64702   0.41175   0.96709   0.00000  Uiso   1.00
H417   H     0.66927   0.48764   0.37928   0.00000  Uiso   1.00
H418   H     0.68796   0.37693   0.96697   0.00000  Uiso   1.00
H419   H     0.81204   0.12307   0.03303   0.00000  Uiso   1.00
H420   H     0.85298   0.08825   0.03291   0.00000  Uiso   1.00
H421   H     0.62307   0.31204   0.96697   0.00000  Uiso   1.00
H422   H     0.58824   0.35298   0.96709   0.00000  Uiso   1.00
H423   H     0.91175   0.14702   0.03291   0.00000  Uiso   1.00
H424   H     0.87693   0.18796   0.03303   0.00000  Uiso   1.00
H425   H     0.85298   0.08825   0.96709   0.00000  Uiso   1.00
H426   H     0.81204   0.12307   0.96697   0.00000  Uiso   1.00
H427   H     0.68796   0.37693   0.03303   0.00000  Uiso   1.00
H428   H     0.69180   0.43889   0.37931   0.00000  Uiso   1.00
H429   H     0.64702   0.41175   0.03291   0.00000  Uiso   1.00
H430   H     0.87693   0.18796   0.96697   0.00000  Uiso   1.00
H431   H     0.91175   0.14702   0.96709   0.00000  Uiso   1.00
H432   H     0.58824   0.35298   0.03291   0.00000  Uiso   1.00
H433   H     0.62307   0.31204   0.03303   0.00000  Uiso   1.00
H434   H     0.80820   0.06111   0.62069   0.00000  Uiso   1.00
H435   H     0.83073   0.01236   0.62072   0.00000  Uiso   1.00
H436   H     0.93889   0.19180   0.37931   0.00000  Uiso   1.00
N437   N     0.53618   0.31825   0.39670   0.00000  Uiso   1.00
N438   N     0.71382   0.43175   0.10330   0.00000  Uiso   1.00
N439   N     0.93175   0.21382   0.89670   0.00000  Uiso   1.00
N440   N     0.56825   0.28618   0.10330   0.00000  Uiso   1.00
N441   N     0.71382   0.43175   0.89670   0.00000  Uiso   1.00
N442   N     0.78618   0.06825   0.10330   0.00000  Uiso   1.00
N443   N     0.56825   0.28618   0.89670   0.00000  Uiso   1.00
N444   N     0.93175   0.21382   0.10330   0.00000  Uiso   1.00
N445   N     0.92856   0.15739   0.45954   0.00000  Uiso   1.00
N446   N     0.57144   0.34261   0.54047   0.00000  Uiso   1.00
N447   N     0.84261   0.07144   0.45954   0.00000  Uiso   1.00
N448   N     0.96382   0.18175   0.60330   0.00000  Uiso   1.00
N449   N     0.65739   0.42856   0.54047   0.00000  Uiso   1.00
N450   N     0.57144   0.34261   0.45954   0.00000  Uiso   1.00
N451   N     0.92856   0.15739   0.54047   0.00000  Uiso   1.00
N452   N     0.65739   0.42856   0.45954   0.00000  Uiso   1.00
N453   N     0.84261   0.07144   0.54047   0.00000  Uiso   1.00
N454   N     0.67856   0.40739   0.95954   0.00000  Uiso   1.00
N455   N     0.82144   0.09261   0.04047   0.00000  Uiso   1.00
N456   N     0.59261   0.32144   0.95954   0.00000  Uiso   1.00
N457   N     0.90739   0.17856   0.04047   0.00000  Uiso   1.00
N458   N     0.82144   0.09261   0.95954   0.00000  Uiso   1.00
N459   N     0.68175   0.46382   0.39670   0.00000  Uiso   1.00
N460   N     0.67856   0.40739   0.04047   0.00000  Uiso   1.00
N461   N     0.90739   0.17856   0.95954   0.00000  Uiso   1.00
N462   N     0.59261   0.32144   0.04047   0.00000  Uiso   1.00
N463   N     0.81825   0.03618   0.60330   0.00000  Uiso   1.00
N464   N     0.96382   0.18175   0.39670   0.00000  Uiso   1.00
N465   N     0.53618   0.31825   0.60330   0.00000  Uiso   1.00
N466   N     0.81825   0.03618   0.39670   0.00000  Uiso   1.00
N467   N     0.68175   0.46382   0.60330   0.00000  Uiso   1.00
N468   N     0.78618   0.06825   0.89670   0.00000  Uiso   1.00
O469   O     0.75000   0.00000   0.25000   0.00000  Uiso   1.00
O470   O     0.75000   0.46539   0.66251   0.00000  Uiso   1.00
O471   O     0.96538   0.25000   0.33749   0.00000  Uiso   1.00
O472   O     0.53461   0.25000   0.66251   0.00000  Uiso   1.00
O473   O     0.50000   0.21538   0.83749   0.00000  Uiso   1.00
O474   O     0.50000   0.28461   0.16251   0.00000  Uiso   1.00
O475   O     0.78461   0.00000   0.83749   0.00000  Uiso   1.00
O476   O     0.71538   0.00000   0.16251   0.00000  Uiso   1.00
O477   O     0.50000   0.28461   0.83749   0.00000  Uiso   1.00
O478   O     0.50000   0.21539   0.16251   0.00000  Uiso   1.00
O479   O     0.71538   0.00000   0.83749   0.00000  Uiso   1.00
O480   O     0.75000   0.00000   0.75000   0.00000  Uiso   1.00
O481   O     0.78461   0.00000   0.16251   0.00000  Uiso   1.00
O482   O     0.70126   0.08332   0.27298   0.00000  Uiso   1.00
O483   O     0.79873   0.41668   0.72702   0.00000  Uiso   1.00
O484   O     0.91668   0.20127   0.27298   0.00000  Uiso   1.00
O485   O     0.58332   0.29874   0.72702   0.00000  Uiso   1.00
O486   O     0.79873   0.41668   0.27298   0.00000  Uiso   1.00
O487   O     0.70126   0.08332   0.72702   0.00000  Uiso   1.00
O488   O     0.58332   0.29874   0.27298   0.00000  Uiso   1.00
O489   O     0.91668   0.20127   0.72702   0.00000  Uiso   1.00
O490   O     0.70126   0.41668   0.72702   0.00000  Uiso   1.00
O491   O     0.50000   0.25000   0.25000   0.00000  Uiso   1.00
O492   O     0.79873   0.08332   0.27298   0.00000  Uiso   1.00
O493   O     0.91668   0.29874   0.72702   0.00000  Uiso   1.00
O494   O     0.58332   0.20127   0.27298   0.00000  Uiso   1.00
O495   O     0.79873   0.08332   0.72702   0.00000  Uiso   1.00
O496   O     0.70126   0.41668   0.27298   0.00000  Uiso   1.00
O497   O     0.58332   0.20127   0.72702   0.00000  Uiso   1.00
O498   O     0.91668   0.29874   0.27298   0.00000  Uiso   1.00
O499   O     0.95126   0.33332   0.77298   0.00000  Uiso   1.00
O500   O     0.54873   0.16668   0.22702   0.00000  Uiso   1.00
O501   O     0.66668   0.45127   0.77298   0.00000  Uiso   1.00
O502   O     0.50000   0.25000   0.75000   0.00000  Uiso   1.00
O503   O     0.83332   0.04874   0.22702   0.00000  Uiso   1.00
O504   O     0.54873   0.16668   0.77298   0.00000  Uiso   1.00
O505   O     0.95126   0.33332   0.22702   0.00000  Uiso   1.00
O506   O     0.83332   0.04874   0.77298   0.00000  Uiso   1.00
O507   O     0.66668   0.45127   0.22702   0.00000  Uiso   1.00
O508   O     0.95126   0.16668   0.22702   0.00000  Uiso   1.00
O509   O     0.54873   0.33332   0.77298   0.00000  Uiso   1.00
O510   O     0.66668   0.04874   0.22702   0.00000  Uiso   1.00
O511   O     0.83332   0.45127   0.77298   0.00000  Uiso   1.00
O512   O     0.54873   0.33332   0.22702   0.00000  Uiso   1.00
O513   O     0.75000   0.46539   0.33749   0.00000  Uiso   1.00
O514   O     0.95126   0.16668   0.77298   0.00000  Uiso   1.00
O515   O     0.83332   0.45127   0.22702   0.00000  Uiso   1.00
O516   O     0.66668   0.04874   0.77298   0.00000  Uiso   1.00
O517   O     0.75000   0.03462   0.66251   0.00000  Uiso   1.00
O518   O     0.53461   0.25000   0.33749   0.00000  Uiso   1.00
O519   O     0.96538   0.25000   0.66251   0.00000  Uiso   1.00
O520   O     0.75000   0.03462   0.33749   0.00000  Uiso   1.00
Zn521  Zn    0.70052   0.00000   0.21730   0.00000  Uiso   1.00
Zn522  Zn    0.54947   0.25000   0.28270   0.00000  Uiso   1.00
Zn523  Zn    0.75000   0.45053   0.71730   0.00000  Uiso   1.00
Zn524  Zn    0.75000   0.04948   0.28270   0.00000  Uiso   1.00
Zn525  Zn    0.54947   0.25000   0.71730   0.00000  Uiso   1.00
Zn526  Zn    0.95052   0.25000   0.28270   0.00000  Uiso   1.00
Zn527  Zn    0.75000   0.04948   0.71730   0.00000  Uiso   1.00
Zn528  Zn    0.75000   0.45053   0.28270   0.00000  Uiso   1.00
Zn529  Zn    0.79947   0.00000   0.78270   0.00000  Uiso   1.00
Zn530  Zn    0.50000   0.20052   0.21730   0.00000  Uiso   1.00
Zn531  Zn    0.50000   0.29947   0.78270   0.00000  Uiso   1.00
Zn532  Zn    0.79947   0.00000   0.21730   0.00000  Uiso   1.00
Zn533  Zn    0.70052   0.00000   0.78270   0.00000  Uiso   1.00
Zn534  Zn    0.50000   0.29947   0.21730   0.00000  Uiso   1.00
Zn535  Zn    0.50000   0.20052   0.78270   0.00000  Uiso   1.00
Zn536  Zn    0.95052   0.25000   0.71730   0.00000  Uiso   1.00
C537   C     0.25000   0.50000   0.35584   0.00000  Uiso   1.00
C538   C     0.33002   0.91998   0.75000   0.00000  Uiso   1.00
C539   C     0.43753   0.70428   0.02031   0.00000  Uiso   1.00
C540   C     0.29572   0.56247   0.97969   0.00000  Uiso   1.00
C541   C     0.20428   0.93753   0.02031   0.00000  Uiso   1.00
C542   C     0.43753   0.70428   0.97969   0.00000  Uiso   1.00
C543   C     0.06247   0.79572   0.02031   0.00000  Uiso   1.00
C544   C     0.41999   0.67000   0.25000   0.00000  Uiso   1.00
C545   C     0.08000   0.83001   0.75000   0.00000  Uiso   1.00
C546   C     0.33002   0.91998   0.25000   0.00000  Uiso   1.00
C547   C     0.16998   0.58002   0.75000   0.00000  Uiso   1.00
C548   C     0.08000   0.83001   0.25000   0.00000  Uiso   1.00
C549   C     0.41999   0.67000   0.75000   0.00000  Uiso   1.00
C550   C     0.16999   0.92000   0.75000   0.00000  Uiso   1.00
C551   C     0.33000   0.58001   0.25000   0.00000  Uiso   1.00
C552   C     0.41998   0.83002   0.75000   0.00000  Uiso   1.00
C553   C     0.25000   0.50000   0.64416   0.00000  Uiso   1.00
C554   C     0.08002   0.66998   0.25000   0.00000  Uiso   1.00
C555   C     0.33000   0.58001   0.75000   0.00000  Uiso   1.00
C556   C     0.16999   0.92000   0.25000   0.00000  Uiso   1.00
C557   C     0.08002   0.66998   0.75000   0.00000  Uiso   1.00
C558   C     0.41998   0.83002   0.25000   0.00000  Uiso   1.00
C559   C     0.13834   0.88834   0.25000   0.00000  Uiso   1.00
C560   C     0.36166   0.61166   0.75000   0.00000  Uiso   1.00
C561   C     0.11167   0.63833   0.25000   0.00000  Uiso   1.00
C562   C     0.38833   0.86167   0.75000   0.00000  Uiso   1.00
C563   C     0.36166   0.61166   0.25000   0.00000  Uiso   1.00
C564   C     0.00000   0.75000   0.35584   0.00000  Uiso   1.00
C565   C     0.13834   0.88834   0.75000   0.00000  Uiso   1.00
C566   C     0.38833   0.86167   0.25000   0.00000  Uiso   1.00
C567   C     0.11167   0.63833   0.75000   0.00000  Uiso   1.00
C568   C     0.13833   0.61167   0.75000   0.00000  Uiso   1.00
C569   C     0.36167   0.88833   0.25000   0.00000  Uiso   1.00
C570   C     0.11166   0.86166   0.75000   0.00000  Uiso   1.00
C571   C     0.38834   0.63834   0.25000   0.00000  Uiso   1.00
C572   C     0.36167   0.88833   0.75000   0.00000  Uiso   1.00
C573   C     0.13833   0.61167   0.25000   0.00000  Uiso   1.00
C574   C     0.38834   0.63834   0.75000   0.00000  Uiso   1.00
C575   C    -0.00000   0.75000   0.64416   0.00000  Uiso   1.00
C576   C     0.11166   0.86166   0.25000   0.00000  Uiso   1.00
C577   C     0.01981   0.78299   0.41807   0.00000  Uiso   1.00
C578   C     0.48019   0.71701   0.58193   0.00000  Uiso   1.00
C579   C     0.21701   0.98019   0.41807   0.00000  Uiso   1.00
C580   C     0.28299   0.51981   0.58193   0.00000  Uiso   1.00
C581   C     0.48019   0.71701   0.41807   0.00000  Uiso   1.00
C582   C     0.01981   0.78299   0.58193   0.00000  Uiso   1.00
C583   C     0.28299   0.51981   0.41807   0.00000  Uiso   1.00
C584   C     0.21701   0.98019   0.58193   0.00000  Uiso   1.00
C585   C     0.26981   0.53299   0.91807   0.00000  Uiso   1.00
C586   C     0.00000   0.75000   0.85584   0.00000  Uiso   1.00
C587   C     0.23019   0.96701   0.08193   0.00000  Uiso   1.00
C588   C     0.46701   0.73019   0.91807   0.00000  Uiso   1.00
C589   C     0.03299   0.76981   0.08193   0.00000  Uiso   1.00
C590   C     0.23019   0.96701   0.91807   0.00000  Uiso   1.00
C591   C     0.26981   0.53299   0.08193   0.00000  Uiso   1.00
C592   C     0.03299   0.76981   0.91807   0.00000  Uiso   1.00
C593   C     0.46701   0.73019   0.08193   0.00000  Uiso   1.00
C594   C    -0.00000   0.75000   0.39813   0.00000  Uiso   1.00
C595   C    -0.00000   0.75000   0.60187   0.00000  Uiso   1.00
C596   C     0.25000   0.50000   0.39813   0.00000  Uiso   1.00
C597   C    -0.00000   0.75000   0.14416   0.00000  Uiso   1.00
C598   C     0.25000   0.50000   0.60187   0.00000  Uiso   1.00
C599   C     0.25000   0.50000   0.89813   0.00000  Uiso   1.00
C600   C     0.25000   0.50000   0.10187   0.00000  Uiso   1.00
C601   C    -0.00000   0.75000   0.89813   0.00000  Uiso   1.00
C602   C    -0.00000   0.75000   0.10187   0.00000  Uiso   1.00
C603   C     0.47808   0.71783   0.45895   0.00000  Uiso   1.00
C604   C     0.02192   0.78217   0.54105   0.00000  Uiso   1.00
C605   C     0.28217   0.52192   0.45895   0.00000  Uiso   1.00
C606   C     0.21783   0.97808   0.54105   0.00000  Uiso   1.00
C607   C     0.02192   0.78217   0.45895   0.00000  Uiso   1.00
C608   C     0.25000   0.50000   0.85584   0.00000  Uiso   1.00
C609   C     0.47808   0.71783   0.54105   0.00000  Uiso   1.00
C610   C     0.21783   0.97808   0.45895   0.00000  Uiso   1.00
C611   C     0.28217   0.52192   0.54105   0.00000  Uiso   1.00
C612   C     0.22808   0.96783   0.95895   0.00000  Uiso   1.00
C613   C     0.27192   0.53217   0.04105   0.00000  Uiso   1.00
C614   C     0.03217   0.77192   0.95895   0.00000  Uiso   1.00
C615   C     0.46783   0.72808   0.04105   0.00000  Uiso   1.00
C616   C     0.27192   0.53217   0.95895   0.00000  Uiso   1.00
C617   C     0.22808   0.96783   0.04105   0.00000  Uiso   1.00
C618   C     0.46783   0.72808   0.95895   0.00000  Uiso   1.00
C619   C     0.25000   0.50000   0.14416   0.00000  Uiso   1.00
C620   C     0.03217   0.77192   0.04105   0.00000  Uiso   1.00
C621   C    -0.00000   0.75000   0.47948   0.00000  Uiso   1.00
C622   C    -0.00000   0.75000   0.52052   0.00000  Uiso   1.00
C623   C     0.25000   0.50000   0.47948   0.00000  Uiso   1.00
C624   C     0.25000   0.50000   0.52052   0.00000  Uiso   1.00
C625   C     0.25000   0.50000   0.97948   0.00000  Uiso   1.00
C626   C     0.25000   0.50000   0.02052   0.00000  Uiso   1.00
C627   C     0.00000   0.75000   0.97948   0.00000  Uiso   1.00
C628   C     0.00000   0.75000   0.02052   0.00000  Uiso   1.00
C629   C     0.45428   0.68753   0.47969   0.00000  Uiso   1.00
C630   C     0.16998   0.58002   0.25000   0.00000  Uiso   1.00
C631   C     0.04572   0.81247   0.52031   0.00000  Uiso   1.00
C632   C     0.31247   0.54572   0.47969   0.00000  Uiso   1.00
C633   C     0.18753   0.95428   0.52031   0.00000  Uiso   1.00
C634   C     0.04572   0.81247   0.47969   0.00000  Uiso   1.00
C635   C     0.45428   0.68753   0.52031   0.00000  Uiso   1.00
C636   C     0.18753   0.95428   0.47969   0.00000  Uiso   1.00
C637   C     0.31247   0.54572   0.52031   0.00000  Uiso   1.00
C638   C     0.20428   0.93753   0.97969   0.00000  Uiso   1.00
C639   C     0.29572   0.56247   0.02031   0.00000  Uiso   1.00
C640   C     0.06247   0.79572   0.97969   0.00000  Uiso   1.00
H641   H     0.06111   0.80820   0.37931   0.00000  Uiso   1.00
H642   H     0.48763   0.66927   0.37928   0.00000  Uiso   1.00
H643   H     0.01236   0.83073   0.62072   0.00000  Uiso   1.00
H644   H     0.06111   0.80820   0.62069   0.00000  Uiso   1.00
H645   H     0.33073   0.51236   0.37928   0.00000  Uiso   1.00
H646   H     0.30820   0.56111   0.37931   0.00000  Uiso   1.00
H647   H     0.19180   0.93889   0.62069   0.00000  Uiso   1.00
H648   H     0.16927   0.98764   0.62072   0.00000  Uiso   1.00
H649   H     0.31111   0.55820   0.87931   0.00000  Uiso   1.00
H650   H     0.26236   0.58073   0.87928   0.00000  Uiso   1.00
H651   H     0.23764   0.91927   0.12072   0.00000  Uiso   1.00
H652   H     0.01236   0.83073   0.37928   0.00000  Uiso   1.00
H653   H     0.18889   0.94180   0.12069   0.00000  Uiso   1.00
H654   H     0.41927   0.73764   0.87928   0.00000  Uiso   1.00
H655   H     0.44180   0.68889   0.87931   0.00000  Uiso   1.00
H656   H     0.05820   0.81111   0.12069   0.00000  Uiso   1.00
H657   H     0.08073   0.76236   0.12072   0.00000  Uiso   1.00
H658   H     0.18889   0.94180   0.87931   0.00000  Uiso   1.00
H659   H     0.23764   0.91927   0.87928   0.00000  Uiso   1.00
H660   H     0.26236   0.58073   0.12072   0.00000  Uiso   1.00
H661   H     0.31111   0.55820   0.12069   0.00000  Uiso   1.00
H662   H     0.08073   0.76236   0.87928   0.00000  Uiso   1.00
H663   H     0.48763   0.66927   0.62072   0.00000  Uiso   1.00
H664   H     0.05820   0.81111   0.87931   0.00000  Uiso   1.00
H665   H     0.44180   0.68889   0.12069   0.00000  Uiso   1.00
H666   H     0.41927   0.73764   0.12072   0.00000  Uiso   1.00
H667   H     0.39702   0.66176   0.46709   0.00000  Uiso   1.00
H668   H     0.43796   0.62693   0.46697   0.00000  Uiso   1.00
H669   H     0.06204   0.87307   0.53303   0.00000  Uiso   1.00
H670   H     0.10298   0.83824   0.53291   0.00000  Uiso   1.00
H671   H     0.37307   0.56204   0.46697   0.00000  Uiso   1.00
H672   H     0.33824   0.60298   0.46709   0.00000  Uiso   1.00
H673   H     0.16175   0.89702   0.53291   0.00000  Uiso   1.00
H674   H     0.43889   0.69180   0.62069   0.00000  Uiso   1.00
H675   H     0.12693   0.93796   0.53303   0.00000  Uiso   1.00
H676   H     0.10298   0.83824   0.46709   0.00000  Uiso   1.00
H677   H     0.06204   0.87307   0.46697   0.00000  Uiso   1.00
H678   H     0.43796   0.62693   0.53303   0.00000  Uiso   1.00
H679   H     0.39702   0.66176   0.53291   0.00000  Uiso   1.00
H680   H     0.12693   0.93796   0.46697   0.00000  Uiso   1.00
H681   H     0.16175   0.89702   0.46709   0.00000  Uiso   1.00
H682   H     0.33824   0.60298   0.53291   0.00000  Uiso   1.00
H683   H     0.37307   0.56204   0.53303   0.00000  Uiso   1.00
H684   H     0.14702   0.91175   0.96709   0.00000  Uiso   1.00
H685   H     0.16927   0.98764   0.37928   0.00000  Uiso   1.00
H686   H     0.18796   0.87693   0.96697   0.00000  Uiso   1.00
H687   H     0.31204   0.62307   0.03303   0.00000  Uiso   1.00
H688   H     0.35298   0.58825   0.03291   0.00000  Uiso   1.00
H689   H     0.12307   0.81204   0.96697   0.00000  Uiso   1.00
H690   H     0.08824   0.85298   0.96709   0.00000  Uiso   1.00
H691   H     0.41175   0.64702   0.03291   0.00000  Uiso   1.00
H692   H     0.37693   0.68796   0.03303   0.00000  Uiso   1.00
H693   H     0.35298   0.58825   0.96709   0.00000  Uiso   1.00
H694   H     0.31204   0.62307   0.96697   0.00000  Uiso   1.00
H695   H     0.18796   0.87693   0.03303   0.00000  Uiso   1.00
H696   H     0.19180   0.93889   0.37931   0.00000  Uiso   1.00
H697   H     0.14702   0.91175   0.03291   0.00000  Uiso   1.00
H698   H     0.37693   0.68796   0.96697   0.00000  Uiso   1.00
H699   H     0.41175   0.64702   0.96709   0.00000  Uiso   1.00
H700   H     0.08824   0.85298   0.03291   0.00000  Uiso   1.00
H701   H     0.12307   0.81204   0.03303   0.00000  Uiso   1.00
H702   H     0.30820   0.56111   0.62069   0.00000  Uiso   1.00
H703   H     0.33073   0.51236   0.62072   0.00000  Uiso   1.00
H704   H     0.43889   0.69180   0.37931   0.00000  Uiso   1.00
N705   N     0.03618   0.81825   0.39670   0.00000  Uiso   1.00
N706   N     0.21382   0.93175   0.10330   0.00000  Uiso   1.00
N707   N     0.43175   0.71382   0.89670   0.00000  Uiso   1.00
N708   N     0.06825   0.78618   0.10330   0.00000  Uiso   1.00
N709   N     0.21382   0.93175   0.89670   0.00000  Uiso   1.00
N710   N     0.28618   0.56825   0.10330   0.00000  Uiso   1.00
N711   N     0.06825   0.78618   0.89670   0.00000  Uiso   1.00
N712   N     0.43175   0.71382   0.10330   0.00000  Uiso   1.00
N713   N     0.42856   0.65739   0.45954   0.00000  Uiso   1.00
N714   N     0.07144   0.84261   0.54047   0.00000  Uiso   1.00
N715   N     0.34261   0.57144   0.45954   0.00000  Uiso   1.00
N716   N     0.46382   0.68175   0.60330   0.00000  Uiso   1.00
N717   N     0.15739   0.92856   0.54047   0.00000  Uiso   1.00
N718   N     0.07144   0.84261   0.45954   0.00000  Uiso   1.00
N719   N     0.42856   0.65739   0.54047   0.00000  Uiso   1.00
N720   N     0.15739   0.92856   0.45954   0.00000  Uiso   1.00
N721   N     0.34261   0.57144   0.54047   0.00000  Uiso   1.00
N722   N     0.17856   0.90739   0.95954   0.00000  Uiso   1.00
N723   N     0.32144   0.59261   0.04047   0.00000  Uiso   1.00
N724   N     0.09261   0.82144   0.95954   0.00000  Uiso   1.00
N725   N     0.40739   0.67856   0.04047   0.00000  Uiso   1.00
N726   N     0.32144   0.59261   0.95954   0.00000  Uiso   1.00
N727   N     0.18175   0.96382   0.39670   0.00000  Uiso   1.00
N728   N     0.17856   0.90739   0.04047   0.00000  Uiso   1.00
N729   N     0.40739   0.67856   0.95954   0.00000  Uiso   1.00
N730   N     0.09261   0.82144   0.04047   0.00000  Uiso   1.00
N731   N     0.31825   0.53618   0.60330   0.00000  Uiso   1.00
N732   N     0.46382   0.68175   0.39670   0.00000  Uiso   1.00
N733   N     0.03618   0.81825   0.60330   0.00000  Uiso   1.00
N734   N     0.31825   0.53618   0.39670   0.00000  Uiso   1.00
N735   N     0.18175   0.96382   0.60330   0.00000  Uiso   1.00
N736   N     0.28618   0.56825   0.89670   0.00000  Uiso   1.00
O737   O     0.25000   0.50000   0.25000   0.00000  Uiso   1.00
O738   O     0.25000   0.96539   0.66251   0.00000  Uiso   1.00
O739   O     0.46538   0.75000   0.33749   0.00000  Uiso   1.00
O740   O     0.03461   0.75000   0.66251   0.00000  Uiso   1.00
O741   O     0.00000   0.71538   0.83749   0.00000  Uiso   1.00
O742   O     0.00000   0.78461   0.16251   0.00000  Uiso   1.00
O743   O     0.28461   0.50000   0.83749   0.00000  Uiso   1.00
O744   O     0.21538   0.50000   0.16251   0.00000  Uiso   1.00
O745   O     0.00000   0.78461   0.83749   0.00000  Uiso   1.00
O746   O    -0.00000   0.71539   0.16251   0.00000  Uiso   1.00
O747   O     0.21538   0.50000   0.83749   0.00000  Uiso   1.00
O748   O     0.25000   0.50000   0.75000   0.00000  Uiso   1.00
O749   O     0.28461   0.50000   0.16251   0.00000  Uiso   1.00
O750   O     0.20126   0.58332   0.27298   0.00000  Uiso   1.00
O751   O     0.29873   0.91668   0.72702   0.00000  Uiso   1.00
O752   O     0.41668   0.70127   0.27298   0.00000  Uiso   1.00
O753   O     0.08332   0.79874   0.72702   0.00000  Uiso   1.00
O754   O     0.29873   0.91668   0.27298   0.00000  Uiso   1.00
O755   O     0.20126   0.58332   0.72702   0.00000  Uiso   1.00
O756   O     0.08332   0.79874   0.27298   0.00000  Uiso   1.00
O757   O     0.41668   0.70127   0.72702   0.00000  Uiso   1.00
O758   O     0.20126   0.91668   0.72702   0.00000  Uiso   1.00
O759   O    -0.00000   0.75000   0.25000   0.00000  Uiso   1.00
O760   O     0.29873   0.58332   0.27298   0.00000  Uiso   1.00
O761   O     0.41668   0.79874   0.72702   0.00000  Uiso   1.00
O762   O     0.08332   0.70127   0.27298   0.00000  Uiso   1.00
O763   O     0.29873   0.58332   0.72702   0.00000  Uiso   1.00
O764   O     0.20126   0.91668   0.27298   0.00000  Uiso   1.00
O765   O     0.08332   0.70127   0.72702   0.00000  Uiso   1.00
O766   O     0.41668   0.79874   0.27298   0.00000  Uiso   1.00
O767   O     0.45126   0.83332   0.77298   0.00000  Uiso   1.00
O768   O     0.04873   0.66668   0.22702   0.00000  Uiso   1.00
O769   O     0.16668   0.95127   0.77298   0.00000  Uiso   1.00
O770   O     0.00000   0.75000   0.75000   0.00000  Uiso   1.00
O771   O     0.33332   0.54874   0.22702   0.00000  Uiso   1.00
O772   O     0.04873   0.66668   0.77298   0.00000  Uiso   1.00
O773   O     0.45126   0.83332   0.22702   0.00000  Uiso   1.00
O774   O     0.33332   0.54874   0.77298   0.00000  Uiso   1.00
O775   O     0.16668   0.95127   0.22702   0.00000  Uiso   1.00
O776   O     0.45126   0.66668   0.22702   0.00000  Uiso   1.00
O777   O     0.04873   0.83332   0.77298   0.00000  Uiso   1.00
O778   O     0.16668   0.54874   0.22702   0.00000  Uiso   1.00
O779   O     0.33332   0.95127   0.77298   0.00000  Uiso   1.00
O780   O     0.04873   0.83332   0.22702   0.00000  Uiso   1.00
O781   O     0.25000   0.96539   0.33749   0.00000  Uiso   1.00
O782   O     0.45126   0.66668   0.77298   0.00000  Uiso   1.00
O783   O     0.33332   0.95127   0.22702   0.00000  Uiso   1.00
O784   O     0.16668   0.54874   0.77298   0.00000  Uiso   1.00
O785   O     0.25000   0.53462   0.66251   0.00000  Uiso   1.00
O786   O     0.03461   0.75000   0.33749   0.00000  Uiso   1.00
O787   O     0.46538   0.75000   0.66251   0.00000  Uiso   1.00
O788   O     0.25000   0.53462   0.33749   0.00000  Uiso   1.00
Zn789  Zn    0.20052   0.50000   0.21730   0.00000  Uiso   1.00
Zn790  Zn    0.04947   0.75000   0.28270   0.00000  Uiso   1.00
Zn791  Zn    0.25000   0.95053   0.71730   0.00000  Uiso   1.00
Zn792  Zn    0.25000   0.54948   0.28270   0.00000  Uiso   1.00
Zn793  Zn    0.04947   0.75000   0.71730   0.00000  Uiso   1.00
Zn794  Zn    0.45052   0.75000   0.28270   0.00000  Uiso   1.00
Zn795  Zn    0.25000   0.54948   0.71730   0.00000  Uiso   1.00
Zn796  Zn    0.25000   0.95053   0.28270   0.00000  Uiso   1.00
Zn797  Zn    0.29947   0.50000   0.78270   0.00000  Uiso   1.00
Zn798  Zn    0.00000   0.70052   0.21730   0.00000  Uiso   1.00
Zn799  Zn    0.00000   0.79947   0.78270   0.00000  Uiso   1.00
Zn800  Zn    0.29947   0.50000   0.21730   0.00000  Uiso   1.00
Zn801  Zn    0.20052   0.50000   0.78270   0.00000  Uiso   1.00
Zn802  Zn    0.00000   0.79947   0.21730   0.00000  Uiso   1.00
Zn803  Zn    0.00000   0.70052   0.78270   0.00000  Uiso   1.00
Zn804  Zn    0.45052   0.75000   0.71730   0.00000  Uiso   1.00
C805   C     0.75000   0.50000   0.35584   0.00000  Uiso   1.00
C806   C     0.83002   0.91998   0.75000   0.00000  Uiso   1.00
C807   C     0.93753   0.70428   0.02031   0.00000  Uiso   1.00
C808   C     0.79572   0.56247   0.97969   0.00000  Uiso   1.00
C809   C     0.70428   0.93753   0.02031   0.00000  Uiso   1.00
C810   C     0.93753   0.70428   0.97969   0.00000  Uiso   1.00
C811   C     0.56247   0.79572   0.02031   0.00000  Uiso   1.00
C812   C     0.91999   0.67000   0.25000   0.00000  Uiso   1.00
C813   C     0.58000   0.83001   0.75000   0.00000  Uiso   1.00
C814   C     0.83002   0.91998   0.25000   0.00000  Uiso   1.00
C815   C     0.66998   0.58002   0.75000   0.00000  Uiso   1.00
C816   C     0.58000   0.83001   0.25000   0.00000  Uiso   1.00
C817   C     0.91999   0.67000   0.75000   0.00000  Uiso   1.00
C818   C     0.66999   0.92000   0.75000   0.00000  Uiso   1.00
C819   C     0.83000   0.58001   0.25000   0.00000  Uiso   1.00
C820   C     0.91998   0.83002   0.75000   0.00000  Uiso   1.00
C821   C     0.75000   0.50000   0.64416   0.00000  Uiso   1.00
C822   C     0.58002   0.66998   0.25000   0.00000  Uiso   1.00
C823   C     0.83000   0.58001   0.75000   0.00000  Uiso   1.00
C824   C     0.66999   0.92000   0.25000   0.00000  Uiso   1.00
C825   C     0.58002   0.66998   0.75000   0.00000  Uiso   1.00
C826   C     0.91998   0.83002   0.25000   0.00000  Uiso   1.00
C827   C     0.63834   0.88834   0.25000   0.00000  Uiso   1.00
C828   C     0.86166   0.61166   0.75000   0.00000  Uiso   1.00
C829   C     0.61167   0.63833   0.25000   0.00000  Uiso   1.00
C830   C     0.88833   0.86167   0.75000   0.00000  Uiso   1.00
C831   C     0.86166   0.61166   0.25000   0.00000  Uiso   1.00
C832   C     0.50000   0.75000   0.35584   0.00000  Uiso   1.00
C833   C     0.63834   0.88834   0.75000   0.00000  Uiso   1.00
C834   C     0.88833   0.86167   0.25000   0.00000  Uiso   1.00
C835   C     0.61167   0.63833   0.75000   0.00000  Uiso   1.00
C836   C     0.63833   0.61167   0.75000   0.00000  Uiso   1.00
C837   C     0.86167   0.88833   0.25000   0.00000  Uiso   1.00
C838   C     0.61166   0.86166   0.75000   0.00000  Uiso   1.00
C839   C     0.88834   0.63834   0.25000   0.00000  Uiso   1.00
C840   C     0.86167   0.88833   0.75000   0.00000  Uiso   1.00
C841   C     0.63833   0.61167   0.25000   0.00000  Uiso   1.00
C842   C     0.88834   0.63834   0.75000   0.00000  Uiso   1.00
C843   C     0.50000   0.75000   0.64416   0.00000  Uiso   1.00
C844   C     0.61166   0.86166   0.25000   0.00000  Uiso   1.00
C845   C     0.51981   0.78299   0.41807   0.00000  Uiso   1.00
C846   C     0.98019   0.71701   0.58193   0.00000  Uiso   1.00
C847   C     0.71701   0.98019   0.41807   0.00000  Uiso   1.00
C848   C     0.78299   0.51981   0.58193   0.00000  Uiso   1.00
C849   C     0.98019   0.71701   0.41807   0.00000  Uiso   1.00
C850   C     0.51981   0.78299   0.58193   0.00000  Uiso   1.00
C851   C     0.78299   0.51981   0.41807   0.00000  Uiso   1.00
C852   C     0.71701   0.98019   0.58193   0.00000  Uiso   1.00
C853   C     0.76981   0.53299   0.91807   0.00000  Uiso   1.00
C854   C     0.50000   0.75000   0.85584   0.00000  Uiso   1.00
C855   C     0.73019   0.96701   0.08193   0.00000  Uiso   1.00
C856   C     0.96701   0.73019   0.91807   0.00000  Uiso   1.00
C857   C     0.53299   0.76981   0.08193   0.00000  Uiso   1.00
C858   C     0.73019   0.96701   0.91807   0.00000  Uiso   1.00
C859   C     0.76981   0.53299   0.08193   0.00000  Uiso   1.00
C860   C     0.53299   0.76981   0.91807   0.00000  Uiso   1.00
C861   C     0.96701   0.73019   0.08193   0.00000  Uiso   1.00
C862   C     0.50000   0.75000   0.39813   0.00000  Uiso   1.00
C863   C     0.50000   0.75000   0.60187   0.00000  Uiso   1.00
C864   C     0.75000   0.50000   0.39813   0.00000  Uiso   1.00
C865   C     0.50000   0.75000   0.14416   0.00000  Uiso   1.00
C866   C     0.75000   0.50000   0.60187   0.00000  Uiso   1.00
C867   C     0.75000   0.50000   0.89813   0.00000  Uiso   1.00
C868   C     0.75000   0.50000   0.10187   0.00000  Uiso   1.00
C869   C     0.50000   0.75000   0.89813   0.00000  Uiso   1.00
C870   C     0.50000   0.75000   0.10187   0.00000  Uiso   1.00
C871   C     0.97808   0.71783   0.45895   0.00000  Uiso   1.00
C872   C     0.52192   0.78217   0.54105   0.00000  Uiso   1.00
C873   C     0.78217   0.52192   0.45895   0.00000  Uiso   1.00
C874   C     0.71783   0.97808   0.54105   0.00000  Uiso   1.00
C875   C     0.52192   0.78217   0.45895   0.00000  Uiso   1.00
C876   C     0.75000   0.50000   0.85584   0.00000  Uiso   1.00
C877   C     0.97808   0.71783   0.54105   0.00000  Uiso   1.00
C878   C     0.71783   0.97808   0.45895   0.00000  Uiso   1.00
C879   C     0.78217   0.52192   0.54105   0.00000  Uiso   1.00
C880   C     0.72808   0.96783   0.95895   0.00000  Uiso   1.00
C881   C     0.77192   0.53217   0.04105   0.00000  Uiso   1.00
C882   C     0.53217   0.77192   0.95895   0.00000  Uiso   1.00
C883   C     0.96783   0.72808   0.04105   0.00000  Uiso   1.00
C884   C     0.77192   0.53217   0.95895   0.00000  Uiso   1.00
C885   C     0.72808   0.96783   0.04105   0.00000  Uiso   1.00
C886   C     0.96783   0.72808   0.95895   0.00000  Uiso   1.00
C887   C     0.75000   0.50000   0.14416   0.00000  Uiso   1.00
C888   C     0.53217   0.77192   0.04105   0.00000  Uiso   1.00
C889   C     0.50000   0.75000   0.47948   0.00000  Uiso   1.00
C890   C     0.50000   0.75000   0.52052   0.00000  Uiso   1.00
C891   C     0.75000   0.50000   0.47948   0.00000  Uiso   1.00
C892   C     0.75000   0.50000   0.52052   0.00000  Uiso   1.00
C893   C     0.75000   0.50000   0.97948   0.00000  Uiso   1.00
C894   C     0.75000   0.50000   0.02052   0.00000  Uiso   1.00
C895   C     0.50000   0.75000   0.97948   0.00000  Uiso   1.00
C896   C     0.50000   0.75000   0.02052   0.00000  Uiso   1.00
C897   C     0.95428   0.68753   0.47969   0.00000  Uiso   1.00
C898   C     0.66998   0.58002   0.25000   0.00000  Uiso   1.00
C899   C     0.54572   0.81247   0.52031   0.00000  Uiso   1.00
C900   C     0.81247   0.54572   0.47969   0.00000  Uiso   1.00
C901   C     0.68753   0.95428   0.52031   0.00000  Uiso   1.00
C902   C     0.54572   0.81247   0.47969   0.00000  Uiso   1.00
C903   C     0.95428   0.68753   0.52031   0.00000  Uiso   1.00
C904   C     0.68753   0.95428   0.47969   0.00000  Uiso   1.00
C905   C     0.81247   0.54572   0.52031   0.00000  Uiso   1.00
C906   C     0.70428   0.93753   0.97969   0.00000  Uiso   1.00
C907   C     0.79572   0.56247   0.02031   0.00000  Uiso   1.00
C908   C     0.56247   0.79572   0.97969   0.00000  Uiso   1.00
H909   H     0.56111   0.80820   0.37931   0.00000  Uiso   1.00
H910   H     0.98763   0.66927   0.37928   0.00000  Uiso   1.00
H911   H     0.51236   0.83073   0.62072   0.00000  Uiso   1.00
H912   H     0.56111   0.80820   0.62069   0.00000  Uiso   1.00
H913   H     0.83073   0.51236   0.37928   0.00000  Uiso   1.00
H914   H     0.80820   0.56111   0.37931   0.00000  Uiso   1.00
H915   H     0.69180   0.93889   0.62069   0.00000  Uiso   1.00
H916   H     0.66927   0.98764   0.62072   0.00000  Uiso   1.00
H917   H     0.81111   0.55820   0.87931   0.00000  Uiso   1.00
H918   H     0.76236   0.58073   0.87928   0.00000  Uiso   1.00
H919   H     0.73764   0.91927   0.12072   0.00000  Uiso   1.00
H920   H     0.51236   0.83073   0.37928   0.00000  Uiso   1.00
H921   H     0.68889   0.94180   0.12069   0.00000  Uiso   1.00
H922   H     0.91927   0.73764   0.87928   0.00000  Uiso   1.00
H923   H     0.94180   0.68889   0.87931   0.00000  Uiso   1.00
H924   H     0.55820   0.81111   0.12069   0.00000  Uiso   1.00
H925   H     0.58073   0.76236   0.12072   0.00000  Uiso   1.00
H926   H     0.68889   0.94180   0.87931   0.00000  Uiso   1.00
H927   H     0.73764   0.91927   0.87928   0.00000  Uiso   1.00
H928   H     0.76236   0.58073   0.12072   0.00000  Uiso   1.00
H929   H     0.81111   0.55820   0.12069   0.00000  Uiso   1.00
H930   H     0.58073   0.76236   0.87928   0.00000  Uiso   1.00
H931   H     0.98763   0.66927   0.62072   0.00000  Uiso   1.00
H932   H     0.55820   0.81111   0.87931   0.00000  Uiso   1.00
H933   H     0.94180   0.68889   0.12069   0.00000  Uiso   1.00
H934   H     0.91927   0.73764   0.12072   0.00000  Uiso   1.00
H935   H     0.89702   0.66176   0.46709   0.00000  Uiso   1.00
H936   H     0.93796   0.62693   0.46697   0.00000  Uiso   1.00
H937   H     0.56204   0.87307   0.53303   0.00000  Uiso   1.00
H938   H     0.60298   0.83824   0.53291   0.00000  Uiso   1.00
H939   H     0.87307   0.56204   0.46697   0.00000  Uiso   1.00
H940   H     0.83824   0.60298   0.46709   0.00000  Uiso   1.00
H941   H     0.66175   0.89702   0.53291   0.00000  Uiso   1.00
H942   H     0.93889   0.69180   0.62069   0.00000  Uiso   1.00
H943   H     0.62693   0.93796   0.53303   0.00000  Uiso   1.00
H944   H     0.60298   0.83824   0.46709   0.00000  Uiso   1.00
H945   H     0.56204   0.87307   0.46697   0.00000  Uiso   1.00
H946   H     0.93796   0.62693   0.53303   0.00000  Uiso   1.00
H947   H     0.89702   0.66176   0.53291   0.00000  Uiso   1.00
H948   H     0.62693   0.93796   0.46697   0.00000  Uiso   1.00
H949   H     0.66175   0.89702   0.46709   0.00000  Uiso   1.00
H950   H     0.83824   0.60298   0.53291   0.00000  Uiso   1.00
H951   H     0.87307   0.56204   0.53303   0.00000  Uiso   1.00
H952   H     0.64702   0.91175   0.96709   0.00000  Uiso   1.00
H953   H     0.66927   0.98764   0.37928   0.00000  Uiso   1.00
H954   H     0.68796   0.87693   0.96697   0.00000  Uiso   1.00
H955   H     0.81204   0.62307   0.03303   0.00000  Uiso   1.00
H956   H     0.85298   0.58825   0.03291   0.00000  Uiso   1.00
H957   H     0.62307   0.81204   0.96697   0.00000  Uiso   1.00
H958   H     0.58824   0.85298   0.96709   0.00000  Uiso   1.00
H959   H     0.91175   0.64702   0.03291   0.00000  Uiso   1.00
H960   H     0.87693   0.68796   0.03303   0.00000  Uiso   1.00
H961   H     0.85298   0.58825   0.96709   0.00000  Uiso   1.00
H962   H     0.81204   0.62307   0.96697   0.00000  Uiso   1.00
H963   H     0.68796   0.87693   0.03303   0.00000  Uiso   1.00
H964   H     0.69180   0.93889   0.37931   0.00000  Uiso   1.00
H965   H     0.64702   0.91175   0.03291   0.00000  Uiso   1.00
H966   H     0.87693   0.68796   0.96697   0.00000  Uiso   1.00
H967   H     0.91175   0.64702   0.96709   0.00000  Uiso   1.00
H968   H     0.58824   0.85298   0.03291   0.00000  Uiso   1.00
H969   H     0.62307   0.81204   0.03303   0.00000  Uiso   1.00
H970   H     0.80820   0.56111   0.62069   0.00000  Uiso   1.00
H971   H     0.83073   0.51236   0.62072   0.00000  Uiso   1.00
H972   H     0.93889   0.69180   0.37931   0.00000  Uiso   1.00
N973   N     0.53618   0.81825   0.39670   0.00000  Uiso   1.00
N974   N     0.71382   0.93175   0.10330   0.00000  Uiso   1.00
N975   N     0.93175   0.71382   0.89670   0.00000  Uiso   1.00
N976   N     0.56825   0.78618   0.10330   0.00000  Uiso   1.00
N977   N     0.71382   0.93175   0.89670   0.00000  Uiso   1.00
N978   N     0.78618   0.56825   0.10330   0.00000  Uiso   1.00
N979   N     0.56825   0.78618   0.89670   0.00000  Uiso   1.00
N980   N     0.93175   0.71382   0.10330   0.00000  Uiso   1.00
N981   N     0.92856   0.65739   0.45954   0.00000  Uiso   1.00
N982   N     0.57144   0.84261   0.54047   0.00000  Uiso   1.00
N983   N     0.84261   0.57144   0.45954   0.00000  Uiso   1.00
N984   N     0.96382   0.68175   0.60330   0.00000  Uiso   1.00
N985   N     0.65739   0.92856   0.54047   0.00000  Uiso   1.00
N986   N     0.57144   0.84261   0.45954   0.00000  Uiso   1.00
N987   N     0.92856   0.65739   0.54047   0.00000  Uiso   1.00
N988   N     0.65739   0.92856   0.45954   0.00000  Uiso   1.00
N989   N     0.84261   0.57144   0.54047   0.00000  Uiso   1.00
N990   N     0.67856   0.90739   0.95954   0.00000  Uiso   1.00
N991   N     0.82144   0.59261   0.04047   0.00000  Uiso   1.00
N992   N     0.59261   0.82144   0.95954   0.00000  Uiso   1.00
N993   N     0.90739   0.67856   0.04047   0.00000  Uiso   1.00
N994   N     0.82144   0.59261   0.95954   0.00000  Uiso   1.00
N995   N     0.68175   0.96382   0.39670   0.00000  Uiso   1.00
N996   N     0.67856   0.90739   0.04047   0.00000  Uiso   1.00
N997   N     0.90739   0.67856   0.95954   0.00000  Uiso   1.00
N998   N     0.59261   0.82144   0.04047   0.00000  Uiso   1.00
N999   N     0.81825   0.53618   0.60330   0.00000  Uiso   1.00
N1000  N     0.96382   0.68175   0.39670   0.00000  Uiso   1.00
N1001  N     0.53618   0.81825   0.60330   0.00000  Uiso   1.00
N1002  N     0.81825   0.53618   0.39670   0.00000  Uiso   1.00
N1003  N     0.68175   0.96382   0.60330   0.00000  Uiso   1.00
N1004  N     0.78618   0.56825   0.89670   0.00000  Uiso   1.00
O1005  O     0.75000   0.50000   0.25000   0.00000  Uiso   1.00
O1006  O     0.75000   0.96539   0.66251   0.00000  Uiso   1.00
O1007  O     0.96538   0.75000   0.33749   0.00000  Uiso   1.00
O1008  O     0.53461   0.75000   0.66251   0.00000  Uiso   1.00
O1009  O     0.50000   0.71538   0.83749   0.00000  Uiso   1.00
O1010  O     0.50000   0.78461   0.16251   0.00000  Uiso   1.00
O1011  O     0.78461   0.50000   0.83749   0.00000  Uiso   1.00
O1012  O     0.71538   0.50000   0.16251   0.00000  Uiso   1.00
O1013  O     0.50000   0.78461   0.83749   0.00000  Uiso   1.00
O1014  O     0.50000   0.71539   0.16251   0.00000  Uiso   1.00
O1015  O     0.71538   0.50000   0.83749   0.00000  Uiso   1.00
O1016  O     0.75000   0.50000   0.75000   0.00000  Uiso   1.00
O1017  O     0.78461   0.50000   0.16251   0.00000  Uiso   1.00
O1018  O     0.70126   0.58332   0.27298   0.00000  Uiso   1.00
O1019  O     0.79873   0.91668   0.72702   0.00000  Uiso   1.00
O1020  O     0.91668   0.70127   0.27298   0.00000  Uiso   1.00
O1021  O     0.58332   0.79874   0.72702   0.00000  Uiso   1.00
O1022  O     0.79873   0.91668   0.27298   0.00000  Uiso   1.00
O1023  O     0.70126   0.58332   0.72702   0.00000  Uiso   1.00
O1024  O     0.58332   0.79874   0.27298   0.00000  Uiso   1.00
O1025  O     0.91668   0.70127   0.72702   0.00000  Uiso   1.00
O1026  O     0.70126   0.91668   0.72702   0.00000  Uiso   1.00
O1027  O     0.50000   0.75000   0.25000   0.00000  Uiso   1.00
O1028  O     0.79873   0.58332   0.27298   0.00000  Uiso   1.00
O1029  O     0.91668   0.79874   0.72702   0.00000  Uiso   1.00
O1030  O     0.58332   0.70127   0.27298   0.00000  Uiso   1.00
O1031  O     0.79873   0.58332   0.72702   0.00000  Uiso   1.00
O1032  O     0.70126   0.91668   0.27298   0.00000  Uiso   1.00
O1033  O     0.58332   0.70127   0.72702   0.00000  Uiso   1.00
O1034  O     0.91668   0.79874   0.27298   0.00000  Uiso   1.00
O1035  O     0.95126   0.83332   0.77298   0.00000  Uiso   1.00
O1036  O     0.54873   0.66668   0.22702   0.00000  Uiso   1.00
O1037  O     0.66668   0.95127   0.77298   0.00000  Uiso   1.00
O1038  O     0.50000   0.75000   0.75000   0.00000  Uiso   1.00
O1039  O     0.83332   0.54874   0.22702   0.00000  Uiso   1.00
O1040  O     0.54873   0.66668   0.77298   0.00000  Uiso   1.00
O1041  O     0.95126   0.83332   0.22702   0.00000  Uiso   1.00
O1042  O     0.83332   0.54874   0.77298   0.00000  Uiso   1.00
O1043  O     0.66668   0.95127   0.22702   0.00000  Uiso   1.00
O1044  O     0.95126   0.66668   0.22702   0.00000  Uiso   1.00
O1045  O     0.54873   0.83332   0.77298   0.00000  Uiso   1.00
O1046  O     0.66668   0.54874   0.22702   0.00000  Uiso   1.00
O1047  O     0.83332   0.95127   0.77298   0.00000  Uiso   1.00
O1048  O     0.54873   0.83332   0.22702   0.00000  Uiso   1.00
O1049  O     0.75000   0.96539   0.33749   0.00000  Uiso   1.00
O1050  O     0.95126   0.66668   0.77298   0.00000  Uiso   1.00
O1051  O     0.83332   0.95127   0.22702   0.00000  Uiso   1.00
O1052  O     0.66668   0.54874   0.77298   0.00000  Uiso   1.00
O1053  O     0.75000   0.53462   0.66251   0.00000  Uiso   1.00
O1054  O     0.53461   0.75000   0.33749   0.00000  Uiso   1.00
O1055  O     0.96538   0.75000   0.66251   0.00000  Uiso   1.00
O1056  O     0.75000   0.53462   0.33749   0.00000  Uiso   1.00
Zn1057 Zn    0.70052   0.50000   0.21730   0.00000  Uiso   1.00
Zn1058 Zn    0.54947   0.75000   0.28270   0.00000  Uiso   1.00
Zn1059 Zn    0.75000   0.95053   0.71730   0.00000  Uiso   1.00
Zn1060 Zn    0.75000   0.54948   0.28270   0.00000  Uiso   1.00
Zn1061 Zn    0.54947   0.75000   0.71730   0.00000  Uiso   1.00
Zn1062 Zn    0.95052   0.75000   0.28270   0.00000  Uiso   1.00
Zn1063 Zn    0.75000   0.54948   0.71730   0.00000  Uiso   1.00
Zn1064 Zn    0.75000   0.95053   0.28270   0.00000  Uiso   1.00
Zn1065 Zn    0.79947   0.50000   0.78270   0.00000  Uiso   1.00
Zn1066 Zn    0.50000   0.70052   0.21730   0.00000  Uiso   1.00
Zn1067 Zn    0.50000   0.79947   0.78270   0.00000  Uiso   1.00
Zn1068 Zn    0.79947   0.50000   0.21730   0.00000  Uiso   1.00
Zn1069 Zn    0.70052   0.50000   0.78270   0.00000  Uiso   1.00
Zn1070 Zn    0.50000   0.79947   0.21730   0.00000  Uiso   1.00
Zn1071 Zn    0.50000   0.70052   0.78270   0.00000  Uiso   1.00
Zn1072 Zn    0.95052   0.75000   0.71730   0.00000  Uiso   1.00
loop_
_geom_bond_atom_site_label_1
_geom_bond_atom_site_label_2
_geom_bond_distance
_geom_bond_site_symmetry_2
_ccdc_geom_bond_type
C1     O252    1.270   .     A
C1     C60     1.463   .     S
C1     O781    1.270   1_545 S
C2     O243    1.277   .     A
C2     O215    1.277   .     A
C2     C36     1.423   .     S
C3     N189    1.438   .     S
C3     C79     1.418   .     A
C3     C6      1.405   1_554 S
C4     C80     1.418   .     A
C4     N190    1.438   .     S
C4     C103    1.405   1_556 S
C5     C81     1.418   .     A
C5     N192    1.438   .     S
C5     C102    1.405   1_554 S
C6     C82     1.418   .     A
C6     N193    1.438   .     S
C6     C3      1.405   1_556 S
C7     C84     1.418   .     A
C7     N194    1.438   .     S
C7     C104    1.405   1_554 S
C8     O240    1.277   .     A
C8     C35     1.421   .     S
C8     O216    1.277   .     A
C9     O217    1.277   .     A
C9     C34     1.421   .     S
C9     O241    1.277   .     A
C10    O218    1.277   .     A
C10    C33     1.423   .     S
C10    O247    1.277   .     A
C11    O248    1.277   .     A
C11    C32     1.423   .     S
C11    O219    1.277   .     A
C12    C40     1.421   .     S
C12    O244    1.277   .     A
C12    O220    1.277   .     A
C13    O221    1.277   .     A
C13    O246    1.277   .     A
C13    C38     1.421   .     S
C14    O233    1.277   .     A
C14    C29     1.421   .     S
C14    O222    1.277   .     A
C15    C27     1.421   .     S
C15    O224    1.277   .     A
C15    O235    1.277   .     A
C16    C26     1.423   .     S
C16    O231    1.277   .     A
C16    O225    1.277   .     A
C17    C62     1.463   .     S
C17    O249    1.270   .     A
C17    O738    1.270   1_545 S
C18    O226    1.277   .     A
C18    C25     1.423   .     S
C18    O232    1.277   .     A
C19    O227    1.277   .     A
C19    O238    1.277   .     A
C19    C24     1.421   .     S
C20    C23     1.421   .     S
C20    O239    1.277   .     A
C20    O228    1.277   .     A
C21    C31     1.423   .     S
C21    O236    1.277   .     A
C21    O229    1.277   .     A
C22    O237    1.277   .     A
C22    O230    1.277   .     A
C22    C30     1.423   .     S
C23    C40     1.197   .     T
C24    C38     1.197   .     T
C25    C37     1.199   .     T
C26    C36     1.199   .     T
C27    C35     1.197   .     T
C28    O250    1.270   .     A
C28    C58     1.463   .     S
C28    O471    1.270   1_455 S
C29    C34     1.197   .     T
C30    C33     1.199   .     T
C31    C32     1.199   .     T
C37    C94     1.423   .     S
C39    C59     1.463   .     S
C39    O519    1.270   1_455 A
C39    O204    1.270   .     S
C41    C71     1.416   .     A
C41    N169    1.439   .     S
C41    C58     1.403   .     S
C42    N180    1.439   .     S
C42    C327    1.403   .     A
C42    C73     1.416   .     A
C43    C596    1.403   .     A
C43    C74     1.416   .     A
C43    N191    1.439   .     S
C44    C62     1.403   .     A
C44    C75     1.416   .     A
C44    N195    1.439   .     S
C45    C67     1.416   .     A
C45    N196    1.439   .     S
C45    C326    1.403   .     A
C46    N197    1.439   .     S
C46    C68     1.416   .     A
C46    C59     1.403   .     S
C47    C69     1.416   .     A
C47    N198    1.439   .     S
C47    C60     1.403   .     S
C48    C70     1.416   .     A
C48    N199    1.439   .     S
C48    C598    1.403   .     S
C49    C80     1.416   .     A
C49    N200    1.439   .     S
C49    C63     1.403   .     S
C50    O209    1.270   .     A
C50    O205    1.270   .     A
C50    C65     1.463   .     S
C51    C81     1.416   .     A
C51    C600    1.403   .     A
C51    N170    1.439   .     S
C52    N171    1.439   .     S
C52    C82     1.416   .     A
C52    C333    1.403   .     A
C53    C84     1.416   .     A
C53    N172    1.439   .     S
C53    C66     1.403   .     S
C54    N173    1.439   .     S
C54    C599    1.403   .     A
C54    C76     1.416   .     A
C55    N174    1.439   .     S
C55    C77     1.416   .     A
C55    C64     1.403   .     S
C56    C78     1.416   .     A
C56    N175    1.439   .     S
C56    C65     1.403   .     S
C57    C79     1.416   .     A
C57    C334    1.403   .     A
C57    N176    1.439   .     S
C58    C313    1.403   1_455 A
C59    C310    1.403   1_455 A
C60    C579    1.403   1_545 A
C61    C66     1.463   .     S
C61    O210    1.270   .     A
C61    O206    1.270   .     S
C62    C584    1.403   1_545 S
C63    C590    1.403   1_545 A
C63    C72     1.463   .     S
C64    C587    1.403   1_545 A
C64    C83     1.463   .     S
C65    C320    1.403   1_455 A
C66    C325    1.403   1_455 A
C67    C353    1.425   .     A
C67    C93     1.418   .     A
C68    C95     1.418   .     A
C68    C86     1.425   .     S
C69    C96     1.418   .     A
C69    C87     1.425   .     S
C70    C97     1.418   .     A
C70    C624    1.425   .     S
C71    C98     1.418   .     A
C71    C85     1.425   .     S
C72    O207    1.270   .     S
C72    O211    1.270   .     S
C73    C99     1.418   .     A
C73    C354    1.425   .     A
C74    C623    1.425   .     A
C74    C100    1.418   .     A
C75    C88     1.425   .     A
C75    C101    1.418   .     A
C76    C102    1.418   .     A
C76    C625    1.425   .     S
C77    C90     1.425   .     A
C77    C103    1.418   .     A
C78    C104    1.418   .     A
C78    C91     1.425   .     A
C79    C360    1.425   .     S
C80    C89     1.425   .     A
C81    C626    1.425   .     S
C82    C359    1.425   .     S
C83    O208    1.270   .     S
C83    O213    1.270   .     S
C84    C92     1.425   .     A
C85    C335    1.425   1_455 A
C85    C86     1.420   .     A
C86    C341    1.425   1_455 A
C87    C610    1.425   1_545 A
C87    C88     1.420   .     S
C88    C606    1.425   1_545 S
C89    C612    1.425   1_545 S
C89    C90     1.420   1_556 S
C90    C617    1.425   1_545 S
C90    C89     1.420   1_554 S
C91    C350    1.425   1_455 S
C91    C92     1.420   1_556 S
C92    C347    1.425   1_455 S
C92    C91     1.420   1_554 S
C93    C99     1.405   .     A
C93    N177    1.438   .     S
C94    O214    1.277   .     A
C94    O242    1.277   .     A
C95    N178    1.438   .     S
C95    C98     1.405   .     A
C96    N179    1.438   .     S
C96    C101    1.405   .     A
C97    C100    1.405   .     A
C97    N181    1.438   .     S
C98    N182    1.438   .     S
C99    N183    1.438   .     S
C100   N184    1.438   .     S
C101   N185    1.438   .     S
C102   N186    1.438   .     S
C102   C5      1.405   1_556 S
C103   N187    1.438   .     S
C103   C4      1.405   1_554 S
C104   N188    1.438   .     S
C104   C7      1.405   1_556 S
H105   N169    1.045   .     S
H106   N196    1.046   .     S
H107   N197    1.046   .     S
H108   N197    1.045   .     S
H109   N198    1.046   .     S
H110   N198    1.045   .     S
H111   N199    1.045   .     S
H112   N199    1.046   .     S
H113   N200    1.045   .     S
H114   N200    1.046   .     S
H115   N170    1.046   .     S
H116   N169    1.046   .     S
H117   N170    1.045   .     S
H118   N171    1.046   .     S
H119   N171    1.045   .     S
H120   N172    1.045   .     S
H121   N172    1.046   .     S
H122   N173    1.045   .     S
H123   N173    1.046   .     S
H124   N174    1.046   .     S
H125   N174    1.045   .     S
H126   N175    1.046   .     S
H127   N180    1.046   .     S
H128   N175    1.045   .     S
H129   N176    1.045   .     S
H130   N176    1.046   .     S
H131   N177    1.045   .     S
H132   N177    1.045   .     S
H133   N178    1.045   .     S
H134   N178    1.045   .     S
H135   N179    1.045   .     S
H136   N179    1.045   .     S
H137   N181    1.045   .     S
H138   N180    1.045   .     S
H139   N181    1.045   .     S
H140   N182    1.045   .     S
H141   N182    1.045   .     S
H142   N183    1.045   .     S
H143   N183    1.045   .     S
H144   N184    1.045   .     S
H145   N184    1.045   .     S
H146   N185    1.045   .     S
H147   N185    1.045   .     S
H148   N186    1.045   .     S
H149   N191    1.046   .     S
H150   N186    1.045   .     S
H151   N187    1.045   .     S
H152   N187    1.045   .     S
H153   N188    1.045   .     S
H154   N188    1.045   .     S
H155   N189    1.045   .     S
H156   N189    1.045   .     S
H157   N190    1.045   .     S
H158   N190    1.045   .     S
H159   N192    1.045   .     S
H160   N191    1.045   .     S
H161   N192    1.045   .     S
H162   N193    1.045   .     S
H163   N193    1.045   .     S
H164   N194    1.045   .     S
H165   N194    1.045   .     S
H166   N195    1.045   .     S
H167   N195    1.046   .     S
H168   N196    1.045   .     S
O201   Zn264   1.936   .     S
O201   Zn256   1.936   .     S
O201   Zn253   1.936   .     S
O201   Zn796   1.936   1_545 S
O202   Zn255   1.953   .     S
O202   C553    1.270   .     S
O203   Zn258   1.953   .     S
O203   C296    1.270   .     S
O204   Zn257   1.953   .     S
O205   Zn267   1.953   .     S
O206   Zn266   1.953   .     S
O207   Zn261   1.953   .     S
O208   Zn253   1.953   .     S
O209   Zn263   1.953   .     S
O210   Zn262   1.953   .     S
O211   Zn265   1.953   .     S
O212   Zn261   1.936   .     S
O212   Zn265   1.936   .     S
O212   Zn259   1.936   .     S
O212   Zn791   1.936   1_545 S
O213   Zn264   1.953   .     S
O214   Zn256   1.916   .     S
O215   Zn255   1.916   .     S
O216   Zn258   1.913   .     S
O217   Zn257   1.913   .     S
O218   Zn260   1.916   .     S
O219   Zn259   1.916   .     S
O220   Zn254   1.913   .     S
O221   Zn268   1.913   .     S
O222   Zn255   1.913   .     S
O223   Zn526   1.936   1_455 S
O223   Zn254   1.936   .     S
O223   Zn262   1.936   .     S
O223   Zn266   1.936   .     S
O224   Zn256   1.913   .     S
O225   Zn268   1.916   .     S
O226   Zn254   1.916   .     S
O227   Zn259   1.913   .     S
O228   Zn260   1.913   .     S
O229   Zn257   1.916   .     S
O230   Zn258   1.916   .     S
O231   Zn531   1.916   .     S
O232   Zn262   1.916   .     S
O233   Zn801   1.913   .     S
O234   Zn257   1.936   .     S
O234   Zn263   1.936   .     S
O234   Zn267   1.936   .     S
O234   Zn536   1.936   1_455 S
O235   Zn264   1.913   .     S
O236   Zn267   1.916   .     S
O237   Zn534   1.916   .     S
O238   Zn261   1.913   .     S
O239   Zn789   1.913   .     S
O240   Zn530   1.913   .     S
O241   Zn263   1.913   .     S
O242   Zn253   1.916   .     S
O243   Zn797   1.916   .     S
O244   Zn266   1.913   .     S
O245   Zn260   1.953   .     S
O245   C537    1.270   .     S
O246   Zn535   1.913   .     S
O247   Zn800   1.916   .     S
O248   Zn265   1.916   .     S
O249   Zn259   1.953   .     S
O250   Zn254   1.953   .     S
O251   C307    1.270   .     A
O251   Zn268   1.953   .     S
O252   Zn256   1.953   .     S
Zn253  O775    1.913   1_545 S
Zn255  O748    1.936   .     S
Zn258  O491    1.936   .     S
Zn260  O737    1.936   .     S
Zn261  O779    1.916   1_545 S
Zn262  O508    1.913   1_455 S
Zn263  O499    1.916   1_455 S
Zn264  O783    1.916   1_545 S
Zn265  O769    1.913   1_545 S
Zn266  O505    1.916   1_455 S
Zn267  O514    1.913   1_455 S
Zn268  O502    1.936   .     S
C269   O520    1.270   .     A
C269   C328    1.463   .     S
C269   O1049   1.270   1_545 S
C270   O511    1.277   .     A
C270   O483    1.277   .     A
C270   C304    1.423   .     S
C271   N457    1.438   .     S
C271   C347    1.418   .     A
C271   C274    1.405   1_554 S
C272   C348    1.418   .     A
C272   N458    1.438   .     S
C272   C371    1.405   1_556 S
C273   C349    1.418   .     A
C273   N460    1.438   .     S
C273   C370    1.405   1_554 S
C274   C350    1.418   .     A
C274   N461    1.438   .     S
C274   C271    1.405   1_556 S
C275   C352    1.418   .     A
C275   N462    1.438   .     S
C275   C372    1.405   1_554 S
C276   O508    1.277   .     A
C276   C303    1.421   .     S
C276   O484    1.277   .     A
C277   O485    1.277   .     A
C277   C302    1.421   .     S
C277   O509    1.277   .     A
C278   O486    1.277   .     A
C278   C301    1.423   .     S
C278   O515    1.277   .     A
C279   O516    1.277   .     A
C279   C300    1.423   .     S
C279   O487    1.277   .     A
C280   C308    1.421   .     S
C280   O512    1.277   .     A
C280   O488    1.277   .     A
C281   O489    1.277   .     A
C281   O514    1.277   .     A
C281   C306    1.421   .     S
C282   O501    1.277   .     A
C282   C297    1.421   .     S
C282   O490    1.277   .     A
C283   C295    1.421   .     S
C283   O492    1.277   .     A
C283   O503    1.277   .     A
C284   C294    1.423   .     S
C284   O499    1.277   .     A
C284   O493    1.277   .     A
C285   C330    1.463   .     S
C285   O517    1.270   .     A
C285   O1006   1.270   1_545 S
C286   O494    1.277   .     A
C286   C293    1.423   .     S
C286   O500    1.277   .     A
C287   O495    1.277   .     A
C287   O506    1.277   .     A
C287   C292    1.421   .     S
C288   C291    1.421   .     S
C288   O507    1.277   .     A
C288   O496    1.277   .     A
C289   C299    1.423   .     S
C289   O504    1.277   .     A
C289   O497    1.277   .     A
C290   O505    1.277   .     A
C290   O498    1.277   .     A
C290   C298    1.423   .     S
C291   C308    1.197   .     T
C292   C306    1.197   .     T
C293   C305    1.199   .     T
C294   C304    1.199   .     T
C295   C303    1.197   .     T
C296   O518    1.270   .     A
C296   C326    1.463   .     S
C297   C302    1.197   .     T
C298   C301    1.199   .     T
C299   C300    1.199   .     T
C305   C362    1.423   .     S
C307   C327    1.463   .     S
C307   O472    1.270   .     S
C309   C339    1.416   .     A
C309   N437    1.439   .     S
C309   C326    1.403   .     S
C310   N448    1.439   .     S
C310   C59     1.403   1_655 A
C310   C341    1.416   .     A
C311   C864    1.403   .     A
C311   C342    1.416   .     A
C311   N459    1.439   .     S
C312   C330    1.403   .     A
C312   C343    1.416   .     A
C312   N463    1.439   .     S
C313   C335    1.416   .     A
C313   N464    1.439   .     S
C313   C58     1.403   1_655 A
C314   N465    1.439   .     S
C314   C336    1.416   .     A
C314   C327    1.403   .     S
C315   C337    1.416   .     A
C315   N466    1.439   .     S
C315   C328    1.403   .     S
C316   C338    1.416   .     A
C316   N467    1.439   .     S
C316   C866    1.403   .     S
C317   C348    1.416   .     A
C317   N468    1.439   .     S
C317   C331    1.403   .     S
C318   O477    1.270   .     A
C318   O473    1.270   .     A
C318   C333    1.463   .     S
C319   C349    1.416   .     A
C319   C868    1.403   .     A
C319   N438    1.439   .     S
C320   N439    1.439   .     S
C320   C350    1.416   .     A
C320   C65     1.403   1_655 A
C321   C352    1.416   .     A
C321   N440    1.439   .     S
C321   C334    1.403   .     S
C322   N441    1.439   .     S
C322   C867    1.403   .     A
C322   C344    1.416   .     A
C323   N442    1.439   .     S
C323   C345    1.416   .     A
C323   C332    1.403   .     S
C324   C346    1.416   .     A
C324   N443    1.439   .     S
C324   C333    1.403   .     S
C325   C347    1.416   .     A
C325   C66     1.403   1_655 A
C325   N444    1.439   .     S
C328   C847    1.403   1_545 A
C329   C334    1.463   .     S
C329   O478    1.270   .     A
C329   O474    1.270   .     S
C330   C852    1.403   1_545 S
C331   C858    1.403   1_545 A
C331   C340    1.463   .     S
C332   C855    1.403   1_545 A
C332   C351    1.463   .     S
C335   C85     1.425   1_655 A
C335   C361    1.418   .     A
C336   C363    1.418   .     A
C336   C354    1.425   .     S
C337   C364    1.418   .     A
C337   C355    1.425   .     S
C338   C365    1.418   .     A
C338   C892    1.425   .     S
C339   C366    1.418   .     A
C339   C353    1.425   .     S
C340   O475    1.270   .     S
C340   O479    1.270   .     S
C341   C367    1.418   .     A
C341   C86     1.425   1_655 A
C342   C891    1.425   .     A
C342   C368    1.418   .     A
C343   C356    1.425   .     A
C343   C369    1.418   .     A
C344   C370    1.418   .     A
C344   C893    1.425   .     S
C345   C358    1.425   .     A
C345   C371    1.418   .     A
C346   C372    1.418   .     A
C346   C359    1.425   .     A
C347   C92     1.425   1_655 S
C348   C357    1.425   .     A
C349   C894    1.425   .     S
C350   C91     1.425   1_655 S
C351   O476    1.270   .     S
C351   O481    1.270   .     S
C352   C360    1.425   .     A
C353   C354    1.420   .     A
C355   C878    1.425   1_545 A
C355   C356    1.420   .     S
C356   C874    1.425   1_545 S
C357   C880    1.425   1_545 S
C357   C358    1.420   1_556 S
C358   C885    1.425   1_545 S
C358   C357    1.420   1_554 S
C359   C360    1.420   1_556 S
C360   C359    1.420   1_554 S
C361   C367    1.405   .     A
C361   N445    1.438   .     S
C362   O482    1.277   .     A
C362   O510    1.277   .     A
C363   N446    1.438   .     S
C363   C366    1.405   .     A
C364   N447    1.438   .     S
C364   C369    1.405   .     A
C365   C368    1.405   .     A
C365   N449    1.438   .     S
C366   N450    1.438   .     S
C367   N451    1.438   .     S
C368   N452    1.438   .     S
C369   N453    1.438   .     S
C370   N454    1.438   .     S
C370   C273    1.405   1_556 S
C371   N455    1.438   .     S
C371   C272    1.405   1_554 S
C372   N456    1.438   .     S
C372   C275    1.405   1_556 S
H373   N437    1.045   .     S
H374   N464    1.046   .     S
H375   N465    1.046   .     S
H376   N465    1.045   .     S
H377   N466    1.046   .     S
H378   N466    1.045   .     S
H379   N467    1.045   .     S
H380   N467    1.046   .     S
H381   N468    1.045   .     S
H382   N468    1.046   .     S
H383   N438    1.046   .     S
H384   N437    1.046   .     S
H385   N438    1.045   .     S
H386   N439    1.046   .     S
H387   N439    1.045   .     S
H388   N440    1.045   .     S
H389   N440    1.046   .     S
H390   N441    1.045   .     S
H391   N441    1.046   .     S
H392   N442    1.046   .     S
H393   N442    1.045   .     S
H394   N443    1.046   .     S
H395   N448    1.046   .     S
H396   N443    1.045   .     S
H397   N444    1.045   .     S
H398   N444    1.046   .     S
H399   N445    1.045   .     S
H400   N445    1.045   .     S
H401   N446    1.045   .     S
H402   N446    1.045   .     S
H403   N447    1.045   .     S
H404   N447    1.045   .     S
H405   N449    1.045   .     S
H406   N448    1.045   .     S
H407   N449    1.045   .     S
H408   N450    1.045   .     S
H409   N450    1.045   .     S
H410   N451    1.045   .     S
H411   N451    1.045   .     S
H412   N452    1.045   .     S
H413   N452    1.045   .     S
H414   N453    1.045   .     S
H415   N453    1.045   .     S
H416   N454    1.045   .     S
H417   N459    1.046   .     S
H418   N454    1.045   .     S
H419   N455    1.045   .     S
H420   N455    1.045   .     S
H421   N456    1.045   .     S
H422   N456    1.045   .     S
H423   N457    1.045   .     S
H424   N457    1.045   .     S
H425   N458    1.045   .     S
H426   N458    1.045   .     S
H427   N460    1.045   .     S
H428   N459    1.045   .     S
H429   N460    1.045   .     S
H430   N461    1.045   .     S
H431   N461    1.045   .     S
H432   N462    1.045   .     S
H433   N462    1.045   .     S
H434   N463    1.045   .     S
H435   N463    1.046   .     S
H436   N464    1.045   .     S
O469   Zn532   1.936   .     S
O469   Zn524   1.936   .     S
O469   Zn521   1.936   .     S
O469   Zn1064  1.936   1_545 S
O470   Zn523   1.953   .     S
O470   C821    1.270   .     S
O471   Zn526   1.953   .     S
O471   C28     1.270   1_655 S
O472   Zn525   1.953   .     S
O473   Zn535   1.953   .     S
O474   Zn534   1.953   .     S
O475   Zn529   1.953   .     S
O476   Zn521   1.953   .     S
O477   Zn531   1.953   .     S
O478   Zn530   1.953   .     S
O479   Zn533   1.953   .     S
O480   Zn529   1.936   .     S
O480   Zn533   1.936   .     S
O480   Zn527   1.936   .     S
O480   Zn1059  1.936   1_545 S
O481   Zn532   1.953   .     S
O482   Zn524   1.916   .     S
O483   Zn523   1.916   .     S
O484   Zn526   1.913   .     S
O485   Zn525   1.913   .     S
O486   Zn528   1.916   .     S
O487   Zn527   1.916   .     S
O488   Zn522   1.913   .     S
O489   Zn536   1.913   .     S
O490   Zn523   1.913   .     S
O491   Zn522   1.936   .     S
O491   Zn530   1.936   .     S
O491   Zn534   1.936   .     S
O492   Zn524   1.913   .     S
O493   Zn536   1.916   .     S
O494   Zn522   1.916   .     S
O495   Zn527   1.913   .     S
O496   Zn528   1.913   .     S
O497   Zn525   1.916   .     S
O498   Zn526   1.916   .     S
O499   Zn263   1.916   1_655 S
O500   Zn530   1.916   .     S
O501   Zn1069  1.913   .     S
O502   Zn525   1.936   .     S
O502   Zn531   1.936   .     S
O502   Zn535   1.936   .     S
O503   Zn532   1.913   .     S
O504   Zn535   1.916   .     S
O505   Zn266   1.916   1_655 S
O506   Zn529   1.913   .     S
O507   Zn1057  1.913   .     S
O508   Zn262   1.913   1_655 S
O509   Zn531   1.913   .     S
O510   Zn521   1.916   .     S
O511   Zn1065  1.916   .     S
O512   Zn534   1.913   .     S
O513   Zn528   1.953   .     S
O513   C805    1.270   .     S
O514   Zn267   1.913   1_655 S
O515   Zn1068  1.916   .     S
O516   Zn533   1.916   .     S
O517   Zn527   1.953   .     S
O518   Zn522   1.953   .     S
O519   C39     1.270   1_655 A
O519   Zn536   1.953   .     S
O520   Zn524   1.953   .     S
Zn521  O1043   1.913   1_545 S
Zn523  O1016   1.936   .     S
Zn526  O223    1.936   1_655 S
Zn528  O1005   1.936   .     S
Zn529  O1047   1.916   1_545 S
Zn532  O1051   1.916   1_545 S
Zn533  O1037   1.913   1_545 S
Zn536  O234    1.936   1_655 S
C537   O788    1.270   .     A
C537   C596    1.463   .     S
C538   O779    1.277   .     A
C538   O751    1.277   .     A
C538   C572    1.423   .     S
C539   N725    1.438   .     S
C539   C615    1.418   .     A
C539   C542    1.405   1_554 S
C540   C616    1.418   .     A
C540   N726    1.438   .     S
C540   C639    1.405   1_556 S
C541   C617    1.418   .     A
C541   N728    1.438   .     S
C541   C638    1.405   1_554 S
C542   C618    1.418   .     A
C542   N729    1.438   .     S
C542   C539    1.405   1_556 S
C543   C620    1.418   .     A
C543   N730    1.438   .     S
C543   C640    1.405   1_554 S
C544   O776    1.277   .     A
C544   C571    1.421   .     S
C544   O752    1.277   .     A
C545   O753    1.277   .     A
C545   C570    1.421   .     S
C545   O777    1.277   .     A
C546   O754    1.277   .     A
C546   C569    1.423   .     S
C546   O783    1.277   .     A
C547   O784    1.277   .     A
C547   C568    1.423   .     S
C547   O755    1.277   .     A
C548   C576    1.421   .     S
C548   O780    1.277   .     A
C548   O756    1.277   .     A
C549   O757    1.277   .     A
C549   O782    1.277   .     A
C549   C574    1.421   .     S
C550   O769    1.277   .     A
C550   C565    1.421   .     S
C550   O758    1.277   .     A
C551   C563    1.421   .     S
C551   O760    1.277   .     A
C551   O771    1.277   .     A
C552   C562    1.423   .     S
C552   O767    1.277   .     A
C552   O761    1.277   .     A
C553   C598    1.463   .     S
C553   O785    1.270   .     A
C554   O762    1.277   .     A
C554   C561    1.423   .     S
C554   O768    1.277   .     A
C555   O763    1.277   .     A
C555   O774    1.277   .     A
C555   C560    1.421   .     S
C556   C559    1.421   .     S
C556   O775    1.277   .     A
C556   O764    1.277   .     A
C557   C567    1.423   .     S
C557   O772    1.277   .     A
C557   O765    1.277   .     A
C558   O773    1.277   .     A
C558   O766    1.277   .     A
C558   C566    1.423   .     S
C559   C576    1.197   .     T
C560   C574    1.197   .     T
C561   C573    1.199   .     T
C562   C572    1.199   .     T
C563   C571    1.197   .     T
C564   O786    1.270   .     A
C564   C594    1.463   .     S
C564   O1007   1.270   1_455 S
C565   C570    1.197   .     T
C566   C569    1.199   .     T
C567   C568    1.199   .     T
C573   C630    1.423   .     S
C575   C595    1.463   .     S
C575   O1055   1.270   1_455 A
C575   O740    1.270   .     S
C577   C607    1.416   .     A
C577   N705    1.439   .     S
C577   C594    1.403   .     S
C578   N716    1.439   .     S
C578   C863    1.403   .     A
C578   C609    1.416   .     A
C579   C60     1.403   1_565 A
C579   C610    1.416   .     A
C579   N727    1.439   .     S
C580   C598    1.403   .     A
C580   C611    1.416   .     A
C580   N731    1.439   .     S
C581   C603    1.416   .     A
C581   N732    1.439   .     S
C581   C862    1.403   .     A
C582   N733    1.439   .     S
C582   C604    1.416   .     A
C582   C595    1.403   .     S
C583   C605    1.416   .     A
C583   N734    1.439   .     S
C583   C596    1.403   .     S
C584   C606    1.416   .     A
C584   N735    1.439   .     S
C584   C62     1.403   1_565 S
C585   C616    1.416   .     A
C585   N736    1.439   .     S
C585   C599    1.403   .     S
C586   O745    1.270   .     A
C586   O741    1.270   .     A
C586   C601    1.463   .     S
C587   C617    1.416   .     A
C587   C64     1.403   1_565 A
C587   N706    1.439   .     S
C588   N707    1.439   .     S
C588   C618    1.416   .     A
C588   C869    1.403   .     A
C589   C620    1.416   .     A
C589   N708    1.439   .     S
C589   C602    1.403   .     S
C590   N709    1.439   .     S
C590   C63     1.403   1_565 A
C590   C612    1.416   .     A
C591   N710    1.439   .     S
C591   C613    1.416   .     A
C591   C600    1.403   .     S
C592   C614    1.416   .     A
C592   N711    1.439   .     S
C592   C601    1.403   .     S
C593   C615    1.416   .     A
C593   C870    1.403   .     A
C593   N712    1.439   .     S
C594   C849    1.403   1_455 A
C595   C846    1.403   1_455 A
C597   C602    1.463   .     S
C597   O746    1.270   .     A
C597   O742    1.270   .     S
C599   C608    1.463   .     S
C600   C619    1.463   .     S
C601   C856    1.403   1_455 A
C602   C861    1.403   1_455 A
C603   C889    1.425   .     A
C603   C629    1.418   .     A
C604   C631    1.418   .     A
C604   C622    1.425   .     S
C605   C632    1.418   .     A
C605   C623    1.425   .     S
C606   C633    1.418   .     A
C606   C88     1.425   1_565 S
C607   C634    1.418   .     A
C607   C621    1.425   .     S
C608   O743    1.270   .     S
C608   O747    1.270   .     S
C609   C635    1.418   .     A
C609   C890    1.425   .     A
C610   C87     1.425   1_565 A
C610   C636    1.418   .     A
C611   C624    1.425   .     A
C611   C637    1.418   .     A
C612   C638    1.418   .     A
C612   C89     1.425   1_565 S
C613   C626    1.425   .     A
C613   C639    1.418   .     A
C614   C640    1.418   .     A
C614   C627    1.425   .     A
C615   C896    1.425   .     S
C616   C625    1.425   .     A
C617   C90     1.425   1_565 S
C618   C895    1.425   .     S
C619   O744    1.270   .     S
C619   O749    1.270   .     S
C620   C628    1.425   .     A
C621   C871    1.425   1_455 A
C621   C622    1.420   .     A
C622   C877    1.425   1_455 A
C623   C624    1.420   .     S
C625   C626    1.420   1_556 S
C626   C625    1.420   1_554 S
C627   C886    1.425   1_455 S
C627   C628    1.420   1_556 S
C628   C883    1.425   1_455 S
C628   C627    1.420   1_554 S
C629   C635    1.405   .     A
C629   N713    1.438   .     S
C630   O750    1.277   .     A
C630   O778    1.277   .     A
C631   N714    1.438   .     S
C631   C634    1.405   .     A
C632   N715    1.438   .     S
C632   C637    1.405   .     A
C633   C636    1.405   .     A
C633   N717    1.438   .     S
C634   N718    1.438   .     S
C635   N719    1.438   .     S
C636   N720    1.438   .     S
C637   N721    1.438   .     S
C638   N722    1.438   .     S
C638   C541    1.405   1_556 S
C639   N723    1.438   .     S
C639   C540    1.405   1_554 S
C640   N724    1.438   .     S
C640   C543    1.405   1_556 S
H641   N705    1.045   .     S
H642   N732    1.046   .     S
H643   N733    1.046   .     S
H644   N733    1.045   .     S
H645   N734    1.046   .     S
H646   N734    1.045   .     S
H647   N735    1.045   .     S
H648   N735    1.046   .     S
H649   N736    1.045   .     S
H650   N736    1.046   .     S
H651   N706    1.046   .     S
H652   N705    1.046   .     S
H653   N706    1.045   .     S
H654   N707    1.046   .     S
H655   N707    1.045   .     S
H656   N708    1.045   .     S
H657   N708    1.046   .     S
H658   N709    1.045   .     S
H659   N709    1.046   .     S
H660   N710    1.046   .     S
H661   N710    1.045   .     S
H662   N711    1.046   .     S
H663   N716    1.046   .     S
H664   N711    1.045   .     S
H665   N712    1.045   .     S
H666   N712    1.046   .     S
H667   N713    1.045   .     S
H668   N713    1.045   .     S
H669   N714    1.045   .     S
H670   N714    1.045   .     S
H671   N715    1.045   .     S
H672   N715    1.045   .     S
H673   N717    1.045   .     S
H674   N716    1.045   .     S
H675   N717    1.045   .     S
H676   N718    1.045   .     S
H677   N718    1.045   .     S
H678   N719    1.045   .     S
H679   N719    1.045   .     S
H680   N720    1.045   .     S
H681   N720    1.045   .     S
H682   N721    1.045   .     S
H683   N721    1.045   .     S
H684   N722    1.045   .     S
H685   N727    1.046   .     S
H686   N722    1.045   .     S
H687   N723    1.045   .     S
H688   N723    1.045   .     S
H689   N724    1.045   .     S
H690   N724    1.045   .     S
H691   N725    1.045   .     S
H692   N725    1.045   .     S
H693   N726    1.045   .     S
H694   N726    1.045   .     S
H695   N728    1.045   .     S
H696   N727    1.045   .     S
H697   N728    1.045   .     S
H698   N729    1.045   .     S
H699   N729    1.045   .     S
H700   N730    1.045   .     S
H701   N730    1.045   .     S
H702   N731    1.045   .     S
H703   N731    1.046   .     S
H704   N732    1.045   .     S
O737   Zn800   1.936   .     S
O737   Zn792   1.936   .     S
O737   Zn789   1.936   .     S
O738   Zn791   1.953   .     S
O738   C17     1.270   1_565 S
O739   Zn794   1.953   .     S
O739   C832    1.270   .     S
O740   Zn793   1.953   .     S
O741   Zn803   1.953   .     S
O742   Zn802   1.953   .     S
O743   Zn797   1.953   .     S
O744   Zn789   1.953   .     S
O745   Zn799   1.953   .     S
O746   Zn798   1.953   .     S
O747   Zn801   1.953   .     S
O748   Zn797   1.936   .     S
O748   Zn801   1.936   .     S
O748   Zn795   1.936   .     S
O749   Zn800   1.953   .     S
O750   Zn792   1.916   .     S
O751   Zn791   1.916   .     S
O752   Zn794   1.913   .     S
O753   Zn793   1.913   .     S
O754   Zn796   1.916   .     S
O755   Zn795   1.916   .     S
O756   Zn790   1.913   .     S
O757   Zn804   1.913   .     S
O758   Zn791   1.913   .     S
O759   Zn1062  1.936   1_455 S
O759   Zn790   1.936   .     S
O759   Zn798   1.936   .     S
O759   Zn802   1.936   .     S
O760   Zn792   1.913   .     S
O761   Zn804   1.916   .     S
O762   Zn790   1.916   .     S
O763   Zn795   1.913   .     S
O764   Zn796   1.913   .     S
O765   Zn793   1.916   .     S
O766   Zn794   1.916   .     S
O767   Zn1067  1.916   .     S
O768   Zn798   1.916   .     S
O769   Zn265   1.913   1_565 S
O770   Zn793   1.936   .     S
O770   Zn799   1.936   .     S
O770   Zn803   1.936   .     S
O770   Zn1072  1.936   1_455 S
O771   Zn800   1.913   .     S
O772   Zn803   1.916   .     S
O773   Zn1070  1.916   .     S
O774   Zn797   1.913   .     S
O775   Zn253   1.913   1_565 S
O776   Zn1066  1.913   .     S
O777   Zn799   1.913   .     S
O778   Zn789   1.916   .     S
O779   Zn261   1.916   1_565 S
O780   Zn802   1.913   .     S
O781   Zn796   1.953   .     S
O781   C1      1.270   1_565 S
O782   Zn1071  1.913   .     S
O783   Zn264   1.916   1_565 S
O784   Zn801   1.916   .     S
O785   Zn795   1.953   .     S
O786   Zn790   1.953   .     S
O787   C843    1.270   .     A
O787   Zn804   1.953   .     S
O788   Zn792   1.953   .     S
Zn791  O212    1.936   1_565 S
Zn794  O1027   1.936   .     S
Zn796  O201    1.936   1_565 S
Zn798  O1044   1.913   1_455 S
Zn799  O1035   1.916   1_455 S
Zn802  O1041   1.916   1_455 S
Zn803  O1050   1.913   1_455 S
Zn804  O1038   1.936   .     S
C805   O1056   1.270   .     A
C805   C864    1.463   .     S
C806   O1047   1.277   .     A
C806   O1019   1.277   .     A
C806   C840    1.423   .     S
C807   N993    1.438   .     S
C807   C883    1.418   .     A
C807   C810    1.405   1_554 S
C808   C884    1.418   .     A
C808   N994    1.438   .     S
C808   C907    1.405   1_556 S
C809   C885    1.418   .     A
C809   N996    1.438   .     S
C809   C906    1.405   1_554 S
C810   C886    1.418   .     A
C810   N997    1.438   .     S
C810   C807    1.405   1_556 S
C811   C888    1.418   .     A
C811   N998    1.438   .     S
C811   C908    1.405   1_554 S
C812   O1044   1.277   .     A
C812   C839    1.421   .     S
C812   O1020   1.277   .     A
C813   O1021   1.277   .     A
C813   C838    1.421   .     S
C813   O1045   1.277   .     A
C814   O1022   1.277   .     A
C814   C837    1.423   .     S
C814   O1051   1.277   .     A
C815   O1052   1.277   .     A
C815   C836    1.423   .     S
C815   O1023   1.277   .     A
C816   C844    1.421   .     S
C816   O1048   1.277   .     A
C816   O1024   1.277   .     A
C817   O1025   1.277   .     A
C817   O1050   1.277   .     A
C817   C842    1.421   .     S
C818   O1037   1.277   .     A
C818   C833    1.421   .     S
C818   O1026   1.277   .     A
C819   C831    1.421   .     S
C819   O1028   1.277   .     A
C819   O1039   1.277   .     A
C820   C830    1.423   .     S
C820   O1035   1.277   .     A
C820   O1029   1.277   .     A
C821   C866    1.463   .     S
C821   O1053   1.270   .     A
C822   O1030   1.277   .     A
C822   C829    1.423   .     S
C822   O1036   1.277   .     A
C823   O1031   1.277   .     A
C823   O1042   1.277   .     A
C823   C828    1.421   .     S
C824   C827    1.421   .     S
C824   O1043   1.277   .     A
C824   O1032   1.277   .     A
C825   C835    1.423   .     S
C825   O1040   1.277   .     A
C825   O1033   1.277   .     A
C826   O1041   1.277   .     A
C826   O1034   1.277   .     A
C826   C834    1.423   .     S
C827   C844    1.197   .     T
C828   C842    1.197   .     T
C829   C841    1.199   .     T
C830   C840    1.199   .     T
C831   C839    1.197   .     T
C832   O1054   1.270   .     A
C832   C862    1.463   .     S
C833   C838    1.197   .     T
C834   C837    1.199   .     T
C835   C836    1.199   .     T
C841   C898    1.423   .     S
C843   C863    1.463   .     S
C843   O1008   1.270   .     S
C845   C875    1.416   .     A
C845   N973    1.439   .     S
C845   C862    1.403   .     S
C846   N984    1.439   .     S
C846   C595    1.403   1_655 A
C846   C877    1.416   .     A
C847   C328    1.403   1_565 A
C847   C878    1.416   .     A
C847   N995    1.439   .     S
C848   C866    1.403   .     A
C848   C879    1.416   .     A
C848   N999    1.439   .     S
C849   C871    1.416   .     A
C849   N1000   1.439   .     S
C849   C594    1.403   1_655 A
C850   N1001   1.439   .     S
C850   C872    1.416   .     A
C850   C863    1.403   .     S
C851   C873    1.416   .     A
C851   N1002   1.439   .     S
C851   C864    1.403   .     S
C852   C874    1.416   .     A
C852   N1003   1.439   .     S
C852   C330    1.403   1_565 S
C853   C884    1.416   .     A
C853   N1004   1.439   .     S
C853   C867    1.403   .     S
C854   O1013   1.270   .     A
C854   O1009   1.270   .     A
C854   C869    1.463   .     S
C855   C885    1.416   .     A
C855   C332    1.403   1_565 A
C855   N974    1.439   .     S
C856   N975    1.439   .     S
C856   C886    1.416   .     A
C856   C601    1.403   1_655 A
C857   C888    1.416   .     A
C857   N976    1.439   .     S
C857   C870    1.403   .     S
C858   N977    1.439   .     S
C858   C331    1.403   1_565 A
C858   C880    1.416   .     A
C859   N978    1.439   .     S
C859   C881    1.416   .     A
C859   C868    1.403   .     S
C860   C882    1.416   .     A
C860   N979    1.439   .     S
C860   C869    1.403   .     S
C861   C883    1.416   .     A
C861   C602    1.403   1_655 A
C861   N980    1.439   .     S
C865   C870    1.463   .     S
C865   O1014   1.270   .     A
C865   O1010   1.270   .     S
C867   C876    1.463   .     S
C868   C887    1.463   .     S
C871   C621    1.425   1_655 A
C871   C897    1.418   .     A
C872   C899    1.418   .     A
C872   C890    1.425   .     S
C873   C900    1.418   .     A
C873   C891    1.425   .     S
C874   C901    1.418   .     A
C874   C356    1.425   1_565 S
C875   C902    1.418   .     A
C875   C889    1.425   .     S
C876   O1011   1.270   .     S
C876   O1015   1.270   .     S
C877   C903    1.418   .     A
C877   C622    1.425   1_655 A
C878   C355    1.425   1_565 A
C878   C904    1.418   .     A
C879   C892    1.425   .     A
C879   C905    1.418   .     A
C880   C906    1.418   .     A
C880   C357    1.425   1_565 S
C881   C894    1.425   .     A
C881   C907    1.418   .     A
C882   C908    1.418   .     A
C882   C895    1.425   .     A
C883   C628    1.425   1_655 S
C884   C893    1.425   .     A
C885   C358    1.425   1_565 S
C886   C627    1.425   1_655 S
C887   O1012   1.270   .     S
C887   O1017   1.270   .     S
C888   C896    1.425   .     A
C889   C890    1.420   .     A
C891   C892    1.420   .     S
C893   C894    1.420   1_556 S
C894   C893    1.420   1_554 S
C895   C896    1.420   1_556 S
C896   C895    1.420   1_554 S
C897   C903    1.405   .     A
C897   N981    1.438   .     S
C898   O1018   1.277   .     A
C898   O1046   1.277   .     A
C899   N982    1.438   .     S
C899   C902    1.405   .     A
C900   N983    1.438   .     S
C900   C905    1.405   .     A
C901   C904    1.405   .     A
C901   N985    1.438   .     S
C902   N986    1.438   .     S
C903   N987    1.438   .     S
C904   N988    1.438   .     S
C905   N989    1.438   .     S
C906   N990    1.438   .     S
C906   C809    1.405   1_556 S
C907   N991    1.438   .     S
C907   C808    1.405   1_554 S
C908   N992    1.438   .     S
C908   C811    1.405   1_556 S
H909   N973    1.045   .     S
H910   N1000   1.046   .     S
H911   N1001   1.046   .     S
H912   N1001   1.045   .     S
H913   N1002   1.046   .     S
H914   N1002   1.045   .     S
H915   N1003   1.045   .     S
H916   N1003   1.046   .     S
H917   N1004   1.045   .     S
H918   N1004   1.046   .     S
H919   N974    1.046   .     S
H920   N973    1.046   .     S
H921   N974    1.045   .     S
H922   N975    1.046   .     S
H923   N975    1.045   .     S
H924   N976    1.045   .     S
H925   N976    1.046   .     S
H926   N977    1.045   .     S
H927   N977    1.046   .     S
H928   N978    1.046   .     S
H929   N978    1.045   .     S
H930   N979    1.046   .     S
H931   N984    1.046   .     S
H932   N979    1.045   .     S
H933   N980    1.045   .     S
H934   N980    1.046   .     S
H935   N981    1.045   .     S
H936   N981    1.045   .     S
H937   N982    1.045   .     S
H938   N982    1.045   .     S
H939   N983    1.045   .     S
H940   N983    1.045   .     S
H941   N985    1.045   .     S
H942   N984    1.045   .     S
H943   N985    1.045   .     S
H944   N986    1.045   .     S
H945   N986    1.045   .     S
H946   N987    1.045   .     S
H947   N987    1.045   .     S
H948   N988    1.045   .     S
H949   N988    1.045   .     S
H950   N989    1.045   .     S
H951   N989    1.045   .     S
H952   N990    1.045   .     S
H953   N995    1.046   .     S
H954   N990    1.045   .     S
H955   N991    1.045   .     S
H956   N991    1.045   .     S
H957   N992    1.045   .     S
H958   N992    1.045   .     S
H959   N993    1.045   .     S
H960   N993    1.045   .     S
H961   N994    1.045   .     S
H962   N994    1.045   .     S
H963   N996    1.045   .     S
H964   N995    1.045   .     S
H965   N996    1.045   .     S
H966   N997    1.045   .     S
H967   N997    1.045   .     S
H968   N998    1.045   .     S
H969   N998    1.045   .     S
H970   N999    1.045   .     S
H971   N999    1.046   .     S
H972   N1000   1.045   .     S
O1005  Zn1068  1.936   .     S
O1005  Zn1060  1.936   .     S
O1005  Zn1057  1.936   .     S
O1006  Zn1059  1.953   .     S
O1006  C285    1.270   1_565 S
O1007  Zn1062  1.953   .     S
O1007  C564    1.270   1_655 S
O1008  Zn1061  1.953   .     S
O1009  Zn1071  1.953   .     S
O1010  Zn1070  1.953   .     S
O1011  Zn1065  1.953   .     S
O1012  Zn1057  1.953   .     S
O1013  Zn1067  1.953   .     S
O1014  Zn1066  1.953   .     S
O1015  Zn1069  1.953   .     S
O1016  Zn1065  1.936   .     S
O1016  Zn1069  1.936   .     S
O1016  Zn1063  1.936   .     S
O1017  Zn1068  1.953   .     S
O1018  Zn1060  1.916   .     S
O1019  Zn1059  1.916   .     S
O1020  Zn1062  1.913   .     S
O1021  Zn1061  1.913   .     S
O1022  Zn1064  1.916   .     S
O1023  Zn1063  1.916   .     S
O1024  Zn1058  1.913   .     S
O1025  Zn1072  1.913   .     S
O1026  Zn1059  1.913   .     S
O1027  Zn1058  1.936   .     S
O1027  Zn1066  1.936   .     S
O1027  Zn1070  1.936   .     S
O1028  Zn1060  1.913   .     S
O1029  Zn1072  1.916   .     S
O1030  Zn1058  1.916   .     S
O1031  Zn1063  1.913   .     S
O1032  Zn1064  1.913   .     S
O1033  Zn1061  1.916   .     S
O1034  Zn1062  1.916   .     S
O1035  Zn799   1.916   1_655 S
O1036  Zn1066  1.916   .     S
O1037  Zn533   1.913   1_565 S
O1038  Zn1061  1.936   .     S
O1038  Zn1067  1.936   .     S
O1038  Zn1071  1.936   .     S
O1039  Zn1068  1.913   .     S
O1040  Zn1071  1.916   .     S
O1041  Zn802   1.916   1_655 S
O1042  Zn1065  1.913   .     S
O1043  Zn521   1.913   1_565 S
O1044  Zn798   1.913   1_655 S
O1045  Zn1067  1.913   .     S
O1046  Zn1057  1.916   .     S
O1047  Zn529   1.916   1_565 S
O1048  Zn1070  1.913   .     S
O1049  Zn1064  1.953   .     S
O1049  C269    1.270   1_565 S
O1050  Zn803   1.913   1_655 S
O1051  Zn532   1.916   1_565 S
O1052  Zn1069  1.916   .     S
O1053  Zn1063  1.953   .     S
O1054  Zn1058  1.953   .     S
O1055  C575    1.270   1_655 A
O1055  Zn1072  1.953   .     S
O1056  Zn1060  1.953   .     S
Zn1059 O480    1.936   1_565 S
Zn1062 O759    1.936   1_655 S
Zn1064 O469    1.936   1_565 S
Zn1072 O770    1.936   1_655 S
