data_str_m1_o10_o16_pcu_sym.241
_audit_creation_date              2020-01-03
_audit_creation_method            'Materials Studio'
_symmetry_space_group_name_H-M    'P1'
_symmetry_Int_Tables_number       1
_symmetry_cell_setting            triclinic
loop_
_symmetry_equiv_pos_as_xyz
  x,y,z
_cell_length_a                    32.5053
_cell_length_b                    32.6763
_cell_length_c                    30.9989
_cell_angle_alpha                 96.1712
_cell_angle_beta                  74.2712
_cell_angle_gamma                 98.3878
loop_
_atom_site_label
_atom_site_type_symbol
_atom_site_fract_x
_atom_site_fract_y
_atom_site_fract_z
_atom_site_U_iso_or_equiv
_atom_site_adp_type
_atom_site_occupancy
C1     C     0.05279   0.15983   0.26001   0.00000  Uiso   1.00
C2     C     0.16586   0.14581   0.05700   0.00000  Uiso   1.00
C3     C     0.23992   0.14312   0.05730   0.00000  Uiso   1.00
C4     C     0.28087   0.17388   0.23992   0.00000  Uiso   1.00
C5     C     0.13765   0.18945   0.42086   0.00000  Uiso   1.00
C6     C     0.32685   0.17656   0.23563   0.00000  Uiso   1.00
C7     C     0.00743   0.15768   0.26415   0.00000  Uiso   1.00
C8     C     0.18015   0.32262   0.23655   0.00000  Uiso   1.00
C9     C     0.15157   0.01242   0.26472   0.00000  Uiso   1.00
C10    C     0.15632   0.05617   0.26016   0.00000  Uiso   1.00
C11    C     0.17654   0.27797   0.24019   0.00000  Uiso   1.00
C12    C     0.08420   0.19838   0.49207   0.00000  Uiso   1.00
C13    C     0.18571   0.14846   0.12918   0.00000  Uiso   1.00
C14    C     0.14853   0.18474   0.37108   0.00000  Uiso   1.00
C15    C     0.25351   0.14800   0.01146   0.00000  Uiso   1.00
C16    C     0.19651   0.14259   0.08026   0.00000  Uiso   1.00
C17    C     0.09613   0.19866   0.44539   0.00000  Uiso   1.00
C18    C     0.30413   0.10878   0.46753   0.00000  Uiso   1.00
C19    C     0.31207   0.07941   0.49903   0.00000  Uiso   1.00
C20    C     0.32636   0.03914   0.47354   0.00000  Uiso   1.00
C21    C     0.11048   0.09355   0.07564   0.00000  Uiso   1.00
C22    C     0.10083   0.07831   0.03039   0.00000  Uiso   1.00
C23    C     0.11160   0.18658   0.01462   0.00000  Uiso   1.00
C24    C     0.08274   0.03254   0.02960   0.00000  Uiso   1.00
C25    C     0.15227   0.17473   0.49109   0.00000  Uiso   1.00
C26    C     0.16692   0.18081   0.44444   0.00000  Uiso   1.00
C27    C     0.18006   0.15977   0.01286   0.00000  Uiso   1.00
C28    C     0.22425   0.15864   0.48949   0.00000  Uiso   1.00
C29    C     0.23904   0.16947   0.44507   0.00000  Uiso   1.00
C30    C     0.21091   0.17993   0.42283   0.00000  Uiso   1.00
H31    H     0.26360   0.14035   0.07530   0.00000  Uiso   1.00
H32    H     0.08769   0.00215   0.29412   0.00000  Uiso   1.00
H33    H     0.11918   0.01032   0.33028   0.00000  Uiso   1.00
H34    H     0.00015   0.11340   0.43926   0.00000  Uiso   1.00
H35    H     0.27760   0.09433   0.45220   0.00000  Uiso   1.00
H36    H     0.00399   0.09487   0.01535   0.00000  Uiso   1.00
H37    H     0.28200   0.07181   0.02564   0.00000  Uiso   1.00
H38    H     0.30176   0.02344   0.45646   0.00000  Uiso   1.00
H39    H     0.33039   0.01802   0.49747   0.00000  Uiso   1.00
H40    H     0.02427   0.04555   0.44816   0.00000  Uiso   1.00
H41    H     0.08066   0.08683   0.10286   0.00000  Uiso   1.00
H42    H     0.31881   0.14054   0.29107   0.00000  Uiso   1.00
H43    H     0.13491   0.07582   0.08187   0.00000  Uiso   1.00
H44    H     0.07719   0.09680   0.02420   0.00000  Uiso   1.00
H45    H     0.13085   0.08244   0.00285   0.00000  Uiso   1.00
H46    H     0.07751   0.02215   0.49600   0.00000  Uiso   1.00
H47    H     0.05148   0.02767   0.05531   0.00000  Uiso   1.00
H48    H     0.10572   0.01350   0.03625   0.00000  Uiso   1.00
H49    H     0.03811   0.18676   0.43144   0.00000  Uiso   1.00
H50    H     0.05710   0.23761   0.43559   0.00000  Uiso   1.00
H51    H     0.27270   0.17001   0.42710   0.00000  Uiso   1.00
H52    H     0.10091   0.18917   0.05075   0.00000  Uiso   1.00
H53    H     0.05301   0.20681   0.01106   0.00000  Uiso   1.00
H54    H     0.22477   0.18933   0.38905   0.00000  Uiso   1.00
H55    H     0.01612   0.19385   0.20919   0.00000  Uiso   1.00
H56    H     0.24381   0.00264   0.20739   0.00000  Uiso   1.00
H57    H     0.21228   0.32766   0.17120   0.00000  Uiso   1.00
N58    N     0.21472   0.00853   0.20243   0.00000  Uiso   1.00
N59    N     0.11626   0.32865   0.29952   0.00000  Uiso   1.00
N60    N     0.06574   0.20817   0.42312   0.00000  Uiso   1.00
O61    O     0.16667   0.16667   0.25000   0.00000  Uiso   1.00
O62    O     0.15451   0.12637   0.15458   0.00000  Uiso   1.00
O63    O     0.12940   0.20391   0.34968   0.00000  Uiso   1.00
O64    O     0.20824   0.17759   0.14606   0.00000  Uiso   1.00
O65    O     0.17451   0.15880   0.34968   0.00000  Uiso   1.00
O66    O     0.29683   0.14815   0.49005   0.00000  Uiso   1.00
O67    O     0.12258   0.13701   0.07825   0.00000  Uiso   1.00
O68    O     0.17930   0.08019   0.28213   0.00000  Uiso   1.00
O69    O     0.14632   0.26085   0.27014   0.00000  Uiso   1.00
O70    O     0.07412   0.13291   0.23413   0.00000  Uiso   1.00
O71    O     0.26693   0.19272   0.21360   0.00000  Uiso   1.00
O72    O     0.07071   0.18878   0.28213   0.00000  Uiso   1.00
O73    O     0.25491   0.15226   0.27013   0.00000  Uiso   1.00
O74    O     0.13760   0.06944   0.23413   0.00000  Uiso   1.00
O75    O     0.20345   0.25620   0.21361   0.00000  Uiso   1.00
Zn76   Zn    0.19338   0.13994   0.28734   0.00000  Uiso   1.00
Zn77   Zn    0.13379   0.12458   0.21876   0.00000  Uiso   1.00
Zn78   Zn    0.21056   0.19775   0.20657   0.00000  Uiso   1.00
Zn79   Zn    0.12893   0.20439   0.28734   0.00000  Uiso   1.00
C80    C     0.38612   0.15983   0.26001   0.00000  Uiso   1.00
C81    C     0.49919   0.14581   0.05700   0.00000  Uiso   1.00
C82    C     0.57326   0.14312   0.05730   0.00000  Uiso   1.00
C83    C     0.61420   0.17388   0.23992   0.00000  Uiso   1.00
C84    C     0.47098   0.18945   0.42086   0.00000  Uiso   1.00
C85    C     0.66019   0.17656   0.23563   0.00000  Uiso   1.00
C86    C     0.34077   0.15768   0.26415   0.00000  Uiso   1.00
C87    C     0.51348   0.32262   0.23655   0.00000  Uiso   1.00
C88    C     0.48490   0.01242   0.26472   0.00000  Uiso   1.00
C89    C     0.48966   0.05617   0.26016   0.00000  Uiso   1.00
C90    C     0.50988   0.27797   0.24019   0.00000  Uiso   1.00
C91    C     0.41754   0.19838   0.49207   0.00000  Uiso   1.00
C92    C     0.51904   0.14846   0.12918   0.00000  Uiso   1.00
C93    C     0.48186   0.18474   0.37108   0.00000  Uiso   1.00
C94    C     0.58684   0.14800   0.01146   0.00000  Uiso   1.00
C95    C     0.52985   0.14259   0.08026   0.00000  Uiso   1.00
C96    C     0.42947   0.19866   0.44539   0.00000  Uiso   1.00
C97    C     0.63746   0.10878   0.46753   0.00000  Uiso   1.00
C98    C     0.64541   0.07941   0.49903   0.00000  Uiso   1.00
C99    C     0.65969   0.03914   0.47354   0.00000  Uiso   1.00
C100   C     0.44381   0.09355   0.07564   0.00000  Uiso   1.00
C101   C     0.43417   0.07831   0.03039   0.00000  Uiso   1.00
C102   C     0.44493   0.18658   0.01462   0.00000  Uiso   1.00
C103   C     0.41607   0.03254   0.02960   0.00000  Uiso   1.00
C104   C     0.48560   0.17473   0.49109   0.00000  Uiso   1.00
C105   C     0.50025   0.18081   0.44444   0.00000  Uiso   1.00
C106   C     0.51339   0.15977   0.01286   0.00000  Uiso   1.00
C107   C     0.55758   0.15864   0.48949   0.00000  Uiso   1.00
C108   C     0.57237   0.16947   0.44507   0.00000  Uiso   1.00
C109   C     0.54424   0.17993   0.42283   0.00000  Uiso   1.00
H110   H     0.59693   0.14035   0.07530   0.00000  Uiso   1.00
H111   H     0.42102   0.00215   0.29412   0.00000  Uiso   1.00
H112   H     0.45252   0.01032   0.33028   0.00000  Uiso   1.00
H113   H     0.33348   0.11340   0.43926   0.00000  Uiso   1.00
H114   H     0.61094   0.09433   0.45220   0.00000  Uiso   1.00
H115   H     0.33732   0.09487   0.01535   0.00000  Uiso   1.00
H116   H     0.61534   0.07181   0.02564   0.00000  Uiso   1.00
H117   H     0.63510   0.02344   0.45646   0.00000  Uiso   1.00
H118   H     0.66372   0.01802   0.49747   0.00000  Uiso   1.00
H119   H     0.35760   0.04555   0.44816   0.00000  Uiso   1.00
H120   H     0.41399   0.08683   0.10286   0.00000  Uiso   1.00
H121   H     0.65215   0.14054   0.29107   0.00000  Uiso   1.00
H122   H     0.46825   0.07582   0.08187   0.00000  Uiso   1.00
H123   H     0.41052   0.09680   0.02420   0.00000  Uiso   1.00
H124   H     0.46418   0.08244   0.00285   0.00000  Uiso   1.00
H125   H     0.41084   0.02215   0.49600   0.00000  Uiso   1.00
H126   H     0.38481   0.02767   0.05531   0.00000  Uiso   1.00
H127   H     0.43905   0.01350   0.03625   0.00000  Uiso   1.00
H128   H     0.37145   0.18676   0.43144   0.00000  Uiso   1.00
H129   H     0.39044   0.23761   0.43559   0.00000  Uiso   1.00
H130   H     0.60603   0.17001   0.42710   0.00000  Uiso   1.00
H131   H     0.43425   0.18917   0.05075   0.00000  Uiso   1.00
H132   H     0.38634   0.20681   0.01106   0.00000  Uiso   1.00
H133   H     0.55811   0.18933   0.38905   0.00000  Uiso   1.00
H134   H     0.34945   0.19385   0.20919   0.00000  Uiso   1.00
H135   H     0.57714   0.00264   0.20739   0.00000  Uiso   1.00
H136   H     0.54561   0.32766   0.17120   0.00000  Uiso   1.00
N137   N     0.54805   0.00853   0.20243   0.00000  Uiso   1.00
N138   N     0.44959   0.32865   0.29952   0.00000  Uiso   1.00
N139   N     0.39907   0.20817   0.42312   0.00000  Uiso   1.00
O140   O     0.50000   0.16667   0.25000   0.00000  Uiso   1.00
O141   O     0.48784   0.12637   0.15458   0.00000  Uiso   1.00
O142   O     0.46274   0.20391   0.34968   0.00000  Uiso   1.00
O143   O     0.54157   0.17759   0.14606   0.00000  Uiso   1.00
O144   O     0.50785   0.15880   0.34968   0.00000  Uiso   1.00
O145   O     0.63016   0.14815   0.49005   0.00000  Uiso   1.00
O146   O     0.45591   0.13701   0.07825   0.00000  Uiso   1.00
O147   O     0.51264   0.08019   0.28213   0.00000  Uiso   1.00
O148   O     0.47965   0.26085   0.27014   0.00000  Uiso   1.00
O149   O     0.40745   0.13291   0.23413   0.00000  Uiso   1.00
O150   O     0.60026   0.19272   0.21360   0.00000  Uiso   1.00
O151   O     0.40405   0.18878   0.28213   0.00000  Uiso   1.00
O152   O     0.58824   0.15226   0.27013   0.00000  Uiso   1.00
O153   O     0.47093   0.06944   0.23413   0.00000  Uiso   1.00
O154   O     0.53678   0.25620   0.21361   0.00000  Uiso   1.00
Zn155  Zn    0.52672   0.13994   0.28734   0.00000  Uiso   1.00
Zn156  Zn    0.46713   0.12458   0.21876   0.00000  Uiso   1.00
Zn157  Zn    0.54389   0.19775   0.20657   0.00000  Uiso   1.00
Zn158  Zn    0.46226   0.20439   0.28734   0.00000  Uiso   1.00
C159   C     0.71946   0.15983   0.26001   0.00000  Uiso   1.00
C160   C     0.83252   0.14581   0.05700   0.00000  Uiso   1.00
C161   C     0.90659   0.14312   0.05730   0.00000  Uiso   1.00
C162   C     0.94754   0.17388   0.23992   0.00000  Uiso   1.00
C163   C     0.80432   0.18945   0.42086   0.00000  Uiso   1.00
C164   C     0.99352   0.17656   0.23563   0.00000  Uiso   1.00
C165   C     0.67410   0.15768   0.26415   0.00000  Uiso   1.00
C166   C     0.84681   0.32262   0.23655   0.00000  Uiso   1.00
C167   C     0.81823   0.01242   0.26472   0.00000  Uiso   1.00
C168   C     0.82299   0.05617   0.26016   0.00000  Uiso   1.00
C169   C     0.84321   0.27797   0.24019   0.00000  Uiso   1.00
C170   C     0.75087   0.19838   0.49207   0.00000  Uiso   1.00
C171   C     0.85237   0.14846   0.12918   0.00000  Uiso   1.00
C172   C     0.81519   0.18474   0.37108   0.00000  Uiso   1.00
C173   C     0.92018   0.14800   0.01146   0.00000  Uiso   1.00
C174   C     0.86318   0.14259   0.08026   0.00000  Uiso   1.00
C175   C     0.76280   0.19866   0.44539   0.00000  Uiso   1.00
C176   C     0.97080   0.10878   0.46753   0.00000  Uiso   1.00
C177   C     0.97874   0.07941   0.49903   0.00000  Uiso   1.00
C178   C     0.99303   0.03914   0.47354   0.00000  Uiso   1.00
C179   C     0.77715   0.09355   0.07564   0.00000  Uiso   1.00
C180   C     0.76750   0.07831   0.03039   0.00000  Uiso   1.00
C181   C     0.77826   0.18658   0.01462   0.00000  Uiso   1.00
C182   C     0.74941   0.03254   0.02960   0.00000  Uiso   1.00
C183   C     0.81893   0.17473   0.49109   0.00000  Uiso   1.00
C184   C     0.83359   0.18081   0.44444   0.00000  Uiso   1.00
C185   C     0.84673   0.15977   0.01286   0.00000  Uiso   1.00
C186   C     0.89092   0.15864   0.48949   0.00000  Uiso   1.00
C187   C     0.90570   0.16947   0.44507   0.00000  Uiso   1.00
C188   C     0.87757   0.17993   0.42283   0.00000  Uiso   1.00
H189   H     0.93026   0.14035   0.07530   0.00000  Uiso   1.00
H190   H     0.75436   0.00215   0.29412   0.00000  Uiso   1.00
H191   H     0.78585   0.01032   0.33028   0.00000  Uiso   1.00
H192   H     0.66681   0.11340   0.43926   0.00000  Uiso   1.00
H193   H     0.94427   0.09433   0.45220   0.00000  Uiso   1.00
H194   H     0.67065   0.09487   0.01535   0.00000  Uiso   1.00
H195   H     0.94867   0.07181   0.02564   0.00000  Uiso   1.00
H196   H     0.96843   0.02344   0.45646   0.00000  Uiso   1.00
H197   H     0.99706   0.01802   0.49747   0.00000  Uiso   1.00
H198   H     0.69093   0.04555   0.44816   0.00000  Uiso   1.00
H199   H     0.74732   0.08683   0.10286   0.00000  Uiso   1.00
H200   H     0.98548   0.14054   0.29107   0.00000  Uiso   1.00
H201   H     0.80158   0.07582   0.08187   0.00000  Uiso   1.00
H202   H     0.74385   0.09680   0.02420   0.00000  Uiso   1.00
H203   H     0.79751   0.08244   0.00285   0.00000  Uiso   1.00
H204   H     0.74418   0.02215   0.49600   0.00000  Uiso   1.00
H205   H     0.71815   0.02767   0.05531   0.00000  Uiso   1.00
H206   H     0.77239   0.01350   0.03625   0.00000  Uiso   1.00
H207   H     0.70478   0.18676   0.43144   0.00000  Uiso   1.00
H208   H     0.72377   0.23761   0.43559   0.00000  Uiso   1.00
H209   H     0.93936   0.17001   0.42710   0.00000  Uiso   1.00
H210   H     0.76758   0.18917   0.05075   0.00000  Uiso   1.00
H211   H     0.71967   0.20681   0.01106   0.00000  Uiso   1.00
H212   H     0.89144   0.18933   0.38905   0.00000  Uiso   1.00
H213   H     0.68278   0.19385   0.20919   0.00000  Uiso   1.00
H214   H     0.91048   0.00264   0.20739   0.00000  Uiso   1.00
H215   H     0.87895   0.32766   0.17120   0.00000  Uiso   1.00
N216   N     0.88139   0.00853   0.20243   0.00000  Uiso   1.00
N217   N     0.78293   0.32865   0.29952   0.00000  Uiso   1.00
N218   N     0.73240   0.20817   0.42312   0.00000  Uiso   1.00
O219   O     0.83333   0.16667   0.25000   0.00000  Uiso   1.00
O220   O     0.82118   0.12637   0.15458   0.00000  Uiso   1.00
O221   O     0.79607   0.20391   0.34968   0.00000  Uiso   1.00
O222   O     0.87491   0.17759   0.14606   0.00000  Uiso   1.00
O223   O     0.84118   0.15880   0.34968   0.00000  Uiso   1.00
O224   O     0.96350   0.14815   0.49005   0.00000  Uiso   1.00
O225   O     0.78925   0.13701   0.07825   0.00000  Uiso   1.00
O226   O     0.84597   0.08019   0.28213   0.00000  Uiso   1.00
O227   O     0.81298   0.26085   0.27014   0.00000  Uiso   1.00
O228   O     0.74078   0.13291   0.23413   0.00000  Uiso   1.00
O229   O     0.93360   0.19272   0.21360   0.00000  Uiso   1.00
O230   O     0.73738   0.18878   0.28213   0.00000  Uiso   1.00
O231   O     0.92158   0.15226   0.27013   0.00000  Uiso   1.00
O232   O     0.80426   0.06944   0.23413   0.00000  Uiso   1.00
O233   O     0.87012   0.25620   0.21361   0.00000  Uiso   1.00
Zn234  Zn    0.86005   0.13994   0.28734   0.00000  Uiso   1.00
Zn235  Zn    0.80046   0.12458   0.21876   0.00000  Uiso   1.00
Zn236  Zn    0.87723   0.19775   0.20657   0.00000  Uiso   1.00
Zn237  Zn    0.79560   0.20439   0.28734   0.00000  Uiso   1.00
C238   C     0.05279   0.49316   0.26001   0.00000  Uiso   1.00
C239   C     0.16586   0.47915   0.05700   0.00000  Uiso   1.00
C240   C     0.23992   0.47646   0.05730   0.00000  Uiso   1.00
C241   C     0.28087   0.50721   0.23992   0.00000  Uiso   1.00
C242   C     0.13765   0.52278   0.42086   0.00000  Uiso   1.00
C243   C     0.32685   0.50990   0.23563   0.00000  Uiso   1.00
C244   C     0.00743   0.49101   0.26415   0.00000  Uiso   1.00
C245   C     0.18015   0.65596   0.23655   0.00000  Uiso   1.00
C246   C     0.15157   0.34575   0.26472   0.00000  Uiso   1.00
C247   C     0.15632   0.38950   0.26016   0.00000  Uiso   1.00
C248   C     0.17654   0.61130   0.24019   0.00000  Uiso   1.00
C249   C     0.08420   0.53171   0.49207   0.00000  Uiso   1.00
C250   C     0.18571   0.48179   0.12918   0.00000  Uiso   1.00
C251   C     0.14853   0.51808   0.37108   0.00000  Uiso   1.00
C252   C     0.25351   0.48134   0.01146   0.00000  Uiso   1.00
C253   C     0.19651   0.47593   0.08026   0.00000  Uiso   1.00
C254   C     0.09613   0.53199   0.44539   0.00000  Uiso   1.00
C255   C     0.30413   0.44211   0.46753   0.00000  Uiso   1.00
C256   C     0.31207   0.41274   0.49903   0.00000  Uiso   1.00
C257   C     0.32636   0.37247   0.47354   0.00000  Uiso   1.00
C258   C     0.11048   0.42689   0.07564   0.00000  Uiso   1.00
C259   C     0.10083   0.41165   0.03039   0.00000  Uiso   1.00
C260   C     0.11160   0.51991   0.01462   0.00000  Uiso   1.00
C261   C     0.08274   0.36587   0.02960   0.00000  Uiso   1.00
C262   C     0.15227   0.50806   0.49109   0.00000  Uiso   1.00
C263   C     0.16692   0.51415   0.44444   0.00000  Uiso   1.00
C264   C     0.18006   0.49311   0.01286   0.00000  Uiso   1.00
C265   C     0.22425   0.49198   0.48949   0.00000  Uiso   1.00
C266   C     0.23904   0.50281   0.44507   0.00000  Uiso   1.00
C267   C     0.21091   0.51326   0.42283   0.00000  Uiso   1.00
H268   H     0.26360   0.47368   0.07530   0.00000  Uiso   1.00
H269   H     0.08769   0.33548   0.29412   0.00000  Uiso   1.00
H270   H     0.11918   0.34366   0.33028   0.00000  Uiso   1.00
H271   H     0.00015   0.44673   0.43926   0.00000  Uiso   1.00
H272   H     0.27760   0.42767   0.45220   0.00000  Uiso   1.00
H273   H     0.00399   0.42821   0.01535   0.00000  Uiso   1.00
H274   H     0.28200   0.40514   0.02564   0.00000  Uiso   1.00
H275   H     0.30176   0.35677   0.45646   0.00000  Uiso   1.00
H276   H     0.33039   0.35136   0.49747   0.00000  Uiso   1.00
H277   H     0.02427   0.37888   0.44816   0.00000  Uiso   1.00
H278   H     0.08066   0.42016   0.10286   0.00000  Uiso   1.00
H279   H     0.31881   0.47387   0.29107   0.00000  Uiso   1.00
H280   H     0.13491   0.40915   0.08187   0.00000  Uiso   1.00
H281   H     0.07719   0.43014   0.02420   0.00000  Uiso   1.00
H282   H     0.13085   0.41577   0.00285   0.00000  Uiso   1.00
H283   H     0.07751   0.35548   0.49600   0.00000  Uiso   1.00
H284   H     0.05148   0.36100   0.05531   0.00000  Uiso   1.00
H285   H     0.10572   0.34683   0.03625   0.00000  Uiso   1.00
H286   H     0.03811   0.52009   0.43144   0.00000  Uiso   1.00
H287   H     0.05710   0.57094   0.43559   0.00000  Uiso   1.00
H288   H     0.27270   0.50335   0.42710   0.00000  Uiso   1.00
H289   H     0.10091   0.52250   0.05075   0.00000  Uiso   1.00
H290   H     0.05301   0.54015   0.01106   0.00000  Uiso   1.00
H291   H     0.22477   0.52266   0.38905   0.00000  Uiso   1.00
H292   H     0.01612   0.52719   0.20919   0.00000  Uiso   1.00
H293   H     0.24381   0.33598   0.20739   0.00000  Uiso   1.00
H294   H     0.21228   0.66100   0.17120   0.00000  Uiso   1.00
N295   N     0.21472   0.34186   0.20243   0.00000  Uiso   1.00
N296   N     0.11626   0.66198   0.29952   0.00000  Uiso   1.00
N297   N     0.06574   0.54150   0.42312   0.00000  Uiso   1.00
O298   O     0.16667   0.50000   0.25000   0.00000  Uiso   1.00
O299   O     0.15451   0.45970   0.15458   0.00000  Uiso   1.00
O300   O     0.12940   0.53724   0.34968   0.00000  Uiso   1.00
O301   O     0.20824   0.51092   0.14606   0.00000  Uiso   1.00
O302   O     0.17451   0.49213   0.34968   0.00000  Uiso   1.00
O303   O     0.29683   0.48148   0.49005   0.00000  Uiso   1.00
O304   O     0.12258   0.47035   0.07825   0.00000  Uiso   1.00
O305   O     0.17930   0.41352   0.28213   0.00000  Uiso   1.00
O306   O     0.14632   0.59418   0.27014   0.00000  Uiso   1.00
O307   O     0.07412   0.46625   0.23413   0.00000  Uiso   1.00
O308   O     0.26693   0.52605   0.21360   0.00000  Uiso   1.00
O309   O     0.07071   0.52211   0.28213   0.00000  Uiso   1.00
O310   O     0.25491   0.48559   0.27013   0.00000  Uiso   1.00
O311   O     0.13760   0.40277   0.23413   0.00000  Uiso   1.00
O312   O     0.20345   0.58953   0.21361   0.00000  Uiso   1.00
Zn313  Zn    0.19338   0.47327   0.28734   0.00000  Uiso   1.00
Zn314  Zn    0.13379   0.45791   0.21876   0.00000  Uiso   1.00
Zn315  Zn    0.21056   0.53109   0.20657   0.00000  Uiso   1.00
Zn316  Zn    0.12893   0.53773   0.28734   0.00000  Uiso   1.00
C317   C     0.38612   0.49316   0.26001   0.00000  Uiso   1.00
C318   C     0.49919   0.47915   0.05700   0.00000  Uiso   1.00
C319   C     0.57326   0.47646   0.05730   0.00000  Uiso   1.00
C320   C     0.61420   0.50721   0.23992   0.00000  Uiso   1.00
C321   C     0.47098   0.52278   0.42086   0.00000  Uiso   1.00
C322   C     0.66019   0.50990   0.23563   0.00000  Uiso   1.00
C323   C     0.34077   0.49101   0.26415   0.00000  Uiso   1.00
C324   C     0.51348   0.65596   0.23655   0.00000  Uiso   1.00
C325   C     0.48490   0.34575   0.26472   0.00000  Uiso   1.00
C326   C     0.48966   0.38950   0.26016   0.00000  Uiso   1.00
C327   C     0.50988   0.61130   0.24019   0.00000  Uiso   1.00
C328   C     0.41754   0.53171   0.49207   0.00000  Uiso   1.00
C329   C     0.51904   0.48179   0.12918   0.00000  Uiso   1.00
C330   C     0.48186   0.51808   0.37108   0.00000  Uiso   1.00
C331   C     0.58684   0.48134   0.01146   0.00000  Uiso   1.00
C332   C     0.52985   0.47593   0.08026   0.00000  Uiso   1.00
C333   C     0.42947   0.53199   0.44539   0.00000  Uiso   1.00
C334   C     0.63746   0.44211   0.46753   0.00000  Uiso   1.00
C335   C     0.64541   0.41274   0.49903   0.00000  Uiso   1.00
C336   C     0.65969   0.37247   0.47354   0.00000  Uiso   1.00
C337   C     0.44381   0.42689   0.07564   0.00000  Uiso   1.00
C338   C     0.43417   0.41165   0.03039   0.00000  Uiso   1.00
C339   C     0.44493   0.51991   0.01462   0.00000  Uiso   1.00
C340   C     0.41607   0.36587   0.02960   0.00000  Uiso   1.00
C341   C     0.48560   0.50806   0.49109   0.00000  Uiso   1.00
C342   C     0.50025   0.51415   0.44444   0.00000  Uiso   1.00
C343   C     0.51339   0.49311   0.01286   0.00000  Uiso   1.00
C344   C     0.55758   0.49198   0.48949   0.00000  Uiso   1.00
C345   C     0.57237   0.50281   0.44507   0.00000  Uiso   1.00
C346   C     0.54424   0.51326   0.42283   0.00000  Uiso   1.00
H347   H     0.59693   0.47368   0.07530   0.00000  Uiso   1.00
H348   H     0.42102   0.33548   0.29412   0.00000  Uiso   1.00
H349   H     0.45252   0.34366   0.33028   0.00000  Uiso   1.00
H350   H     0.33348   0.44673   0.43926   0.00000  Uiso   1.00
H351   H     0.61094   0.42767   0.45220   0.00000  Uiso   1.00
H352   H     0.33732   0.42821   0.01535   0.00000  Uiso   1.00
H353   H     0.61534   0.40514   0.02564   0.00000  Uiso   1.00
H354   H     0.63510   0.35677   0.45646   0.00000  Uiso   1.00
H355   H     0.66372   0.35136   0.49747   0.00000  Uiso   1.00
H356   H     0.35760   0.37888   0.44816   0.00000  Uiso   1.00
H357   H     0.41399   0.42016   0.10286   0.00000  Uiso   1.00
H358   H     0.65215   0.47387   0.29107   0.00000  Uiso   1.00
H359   H     0.46825   0.40915   0.08187   0.00000  Uiso   1.00
H360   H     0.41052   0.43014   0.02420   0.00000  Uiso   1.00
H361   H     0.46418   0.41577   0.00285   0.00000  Uiso   1.00
H362   H     0.41084   0.35548   0.49600   0.00000  Uiso   1.00
H363   H     0.38481   0.36100   0.05531   0.00000  Uiso   1.00
H364   H     0.43905   0.34683   0.03625   0.00000  Uiso   1.00
H365   H     0.37145   0.52009   0.43144   0.00000  Uiso   1.00
H366   H     0.39044   0.57094   0.43559   0.00000  Uiso   1.00
H367   H     0.60603   0.50335   0.42710   0.00000  Uiso   1.00
H368   H     0.43425   0.52250   0.05075   0.00000  Uiso   1.00
H369   H     0.38634   0.54015   0.01106   0.00000  Uiso   1.00
H370   H     0.55811   0.52266   0.38905   0.00000  Uiso   1.00
H371   H     0.34945   0.52719   0.20919   0.00000  Uiso   1.00
H372   H     0.57714   0.33598   0.20739   0.00000  Uiso   1.00
H373   H     0.54561   0.66100   0.17120   0.00000  Uiso   1.00
N374   N     0.54805   0.34186   0.20243   0.00000  Uiso   1.00
N375   N     0.44959   0.66198   0.29952   0.00000  Uiso   1.00
N376   N     0.39907   0.54150   0.42312   0.00000  Uiso   1.00
O377   O     0.50000   0.50000   0.25000   0.00000  Uiso   1.00
O378   O     0.48784   0.45970   0.15458   0.00000  Uiso   1.00
O379   O     0.46274   0.53724   0.34968   0.00000  Uiso   1.00
O380   O     0.54157   0.51092   0.14606   0.00000  Uiso   1.00
O381   O     0.50785   0.49213   0.34968   0.00000  Uiso   1.00
O382   O     0.63016   0.48148   0.49005   0.00000  Uiso   1.00
O383   O     0.45591   0.47035   0.07825   0.00000  Uiso   1.00
O384   O     0.51264   0.41352   0.28213   0.00000  Uiso   1.00
O385   O     0.47965   0.59418   0.27014   0.00000  Uiso   1.00
O386   O     0.40745   0.46625   0.23413   0.00000  Uiso   1.00
O387   O     0.60026   0.52605   0.21360   0.00000  Uiso   1.00
O388   O     0.40405   0.52211   0.28213   0.00000  Uiso   1.00
O389   O     0.58824   0.48559   0.27013   0.00000  Uiso   1.00
O390   O     0.47093   0.40277   0.23413   0.00000  Uiso   1.00
O391   O     0.53678   0.58953   0.21361   0.00000  Uiso   1.00
Zn392  Zn    0.52672   0.47327   0.28734   0.00000  Uiso   1.00
Zn393  Zn    0.46713   0.45791   0.21876   0.00000  Uiso   1.00
Zn394  Zn    0.54389   0.53109   0.20657   0.00000  Uiso   1.00
Zn395  Zn    0.46226   0.53773   0.28734   0.00000  Uiso   1.00
C396   C     0.71946   0.49316   0.26001   0.00000  Uiso   1.00
C397   C     0.83252   0.47915   0.05700   0.00000  Uiso   1.00
C398   C     0.90659   0.47646   0.05730   0.00000  Uiso   1.00
C399   C     0.94754   0.50721   0.23992   0.00000  Uiso   1.00
C400   C     0.80432   0.52278   0.42086   0.00000  Uiso   1.00
C401   C     0.99352   0.50990   0.23563   0.00000  Uiso   1.00
C402   C     0.67410   0.49101   0.26415   0.00000  Uiso   1.00
C403   C     0.84681   0.65596   0.23655   0.00000  Uiso   1.00
C404   C     0.81823   0.34575   0.26472   0.00000  Uiso   1.00
C405   C     0.82299   0.38950   0.26016   0.00000  Uiso   1.00
C406   C     0.84321   0.61130   0.24019   0.00000  Uiso   1.00
C407   C     0.75087   0.53171   0.49207   0.00000  Uiso   1.00
C408   C     0.85237   0.48179   0.12918   0.00000  Uiso   1.00
C409   C     0.81519   0.51808   0.37108   0.00000  Uiso   1.00
C410   C     0.92018   0.48134   0.01146   0.00000  Uiso   1.00
C411   C     0.86318   0.47593   0.08026   0.00000  Uiso   1.00
C412   C     0.76280   0.53199   0.44539   0.00000  Uiso   1.00
C413   C     0.97080   0.44211   0.46753   0.00000  Uiso   1.00
C414   C     0.97874   0.41274   0.49903   0.00000  Uiso   1.00
C415   C     0.99303   0.37247   0.47354   0.00000  Uiso   1.00
C416   C     0.77715   0.42689   0.07564   0.00000  Uiso   1.00
C417   C     0.76750   0.41165   0.03039   0.00000  Uiso   1.00
C418   C     0.77826   0.51991   0.01462   0.00000  Uiso   1.00
C419   C     0.74941   0.36587   0.02960   0.00000  Uiso   1.00
C420   C     0.81893   0.50806   0.49109   0.00000  Uiso   1.00
C421   C     0.83359   0.51415   0.44444   0.00000  Uiso   1.00
C422   C     0.84673   0.49311   0.01286   0.00000  Uiso   1.00
C423   C     0.89092   0.49198   0.48949   0.00000  Uiso   1.00
C424   C     0.90570   0.50281   0.44507   0.00000  Uiso   1.00
C425   C     0.87757   0.51326   0.42283   0.00000  Uiso   1.00
H426   H     0.93026   0.47368   0.07530   0.00000  Uiso   1.00
H427   H     0.75436   0.33548   0.29412   0.00000  Uiso   1.00
H428   H     0.78585   0.34366   0.33028   0.00000  Uiso   1.00
H429   H     0.66681   0.44673   0.43926   0.00000  Uiso   1.00
H430   H     0.94427   0.42767   0.45220   0.00000  Uiso   1.00
H431   H     0.67065   0.42821   0.01535   0.00000  Uiso   1.00
H432   H     0.94867   0.40514   0.02564   0.00000  Uiso   1.00
H433   H     0.96843   0.35677   0.45646   0.00000  Uiso   1.00
H434   H     0.99706   0.35136   0.49747   0.00000  Uiso   1.00
H435   H     0.69093   0.37888   0.44816   0.00000  Uiso   1.00
H436   H     0.74732   0.42016   0.10286   0.00000  Uiso   1.00
H437   H     0.98548   0.47387   0.29107   0.00000  Uiso   1.00
H438   H     0.80158   0.40915   0.08187   0.00000  Uiso   1.00
H439   H     0.74385   0.43014   0.02420   0.00000  Uiso   1.00
H440   H     0.79751   0.41577   0.00285   0.00000  Uiso   1.00
H441   H     0.74418   0.35548   0.49600   0.00000  Uiso   1.00
H442   H     0.71815   0.36100   0.05531   0.00000  Uiso   1.00
H443   H     0.77239   0.34683   0.03625   0.00000  Uiso   1.00
H444   H     0.70478   0.52009   0.43144   0.00000  Uiso   1.00
H445   H     0.72377   0.57094   0.43559   0.00000  Uiso   1.00
H446   H     0.93936   0.50335   0.42710   0.00000  Uiso   1.00
H447   H     0.76758   0.52250   0.05075   0.00000  Uiso   1.00
H448   H     0.71967   0.54015   0.01106   0.00000  Uiso   1.00
H449   H     0.89144   0.52266   0.38905   0.00000  Uiso   1.00
H450   H     0.68278   0.52719   0.20919   0.00000  Uiso   1.00
H451   H     0.91048   0.33598   0.20739   0.00000  Uiso   1.00
H452   H     0.87895   0.66100   0.17120   0.00000  Uiso   1.00
N453   N     0.88139   0.34186   0.20243   0.00000  Uiso   1.00
N454   N     0.78293   0.66198   0.29952   0.00000  Uiso   1.00
N455   N     0.73240   0.54150   0.42312   0.00000  Uiso   1.00
O456   O     0.83333   0.50000   0.25000   0.00000  Uiso   1.00
O457   O     0.82118   0.45970   0.15458   0.00000  Uiso   1.00
O458   O     0.79607   0.53724   0.34968   0.00000  Uiso   1.00
O459   O     0.87491   0.51092   0.14606   0.00000  Uiso   1.00
O460   O     0.84118   0.49213   0.34968   0.00000  Uiso   1.00
O461   O     0.96350   0.48148   0.49005   0.00000  Uiso   1.00
O462   O     0.78925   0.47035   0.07825   0.00000  Uiso   1.00
O463   O     0.84597   0.41352   0.28213   0.00000  Uiso   1.00
O464   O     0.81298   0.59418   0.27014   0.00000  Uiso   1.00
O465   O     0.74078   0.46625   0.23413   0.00000  Uiso   1.00
O466   O     0.93360   0.52605   0.21360   0.00000  Uiso   1.00
O467   O     0.73738   0.52211   0.28213   0.00000  Uiso   1.00
O468   O     0.92158   0.48559   0.27013   0.00000  Uiso   1.00
O469   O     0.80426   0.40277   0.23413   0.00000  Uiso   1.00
O470   O     0.87012   0.58953   0.21361   0.00000  Uiso   1.00
Zn471  Zn    0.86005   0.47327   0.28734   0.00000  Uiso   1.00
Zn472  Zn    0.80046   0.45791   0.21876   0.00000  Uiso   1.00
Zn473  Zn    0.87723   0.53109   0.20657   0.00000  Uiso   1.00
Zn474  Zn    0.79560   0.53773   0.28734   0.00000  Uiso   1.00
C475   C     0.05279   0.82649   0.26001   0.00000  Uiso   1.00
C476   C     0.16586   0.81248   0.05700   0.00000  Uiso   1.00
C477   C     0.23992   0.80979   0.05730   0.00000  Uiso   1.00
C478   C     0.28087   0.84055   0.23992   0.00000  Uiso   1.00
C479   C     0.13765   0.85612   0.42086   0.00000  Uiso   1.00
C480   C     0.32685   0.84323   0.23563   0.00000  Uiso   1.00
C481   C     0.00743   0.82434   0.26415   0.00000  Uiso   1.00
C482   C     0.18015   0.98929   0.23655   0.00000  Uiso   1.00
C483   C     0.15157   0.67908   0.26472   0.00000  Uiso   1.00
C484   C     0.15632   0.72284   0.26016   0.00000  Uiso   1.00
C485   C     0.17654   0.94464   0.24019   0.00000  Uiso   1.00
C486   C     0.08420   0.86505   0.49207   0.00000  Uiso   1.00
C487   C     0.18571   0.81512   0.12918   0.00000  Uiso   1.00
C488   C     0.14853   0.85141   0.37108   0.00000  Uiso   1.00
C489   C     0.25351   0.81467   0.01146   0.00000  Uiso   1.00
C490   C     0.19651   0.80926   0.08026   0.00000  Uiso   1.00
C491   C     0.09613   0.86532   0.44539   0.00000  Uiso   1.00
C492   C     0.30413   0.77545   0.46753   0.00000  Uiso   1.00
C493   C     0.31207   0.74608   0.49903   0.00000  Uiso   1.00
C494   C     0.32636   0.70580   0.47354   0.00000  Uiso   1.00
C495   C     0.11048   0.76022   0.07564   0.00000  Uiso   1.00
C496   C     0.10083   0.74498   0.03039   0.00000  Uiso   1.00
C497   C     0.11160   0.85324   0.01462   0.00000  Uiso   1.00
C498   C     0.08274   0.69920   0.02960   0.00000  Uiso   1.00
C499   C     0.15227   0.84139   0.49109   0.00000  Uiso   1.00
C500   C     0.16692   0.84748   0.44444   0.00000  Uiso   1.00
C501   C     0.18006   0.82644   0.01286   0.00000  Uiso   1.00
C502   C     0.22425   0.82531   0.48949   0.00000  Uiso   1.00
C503   C     0.23904   0.83614   0.44507   0.00000  Uiso   1.00
C504   C     0.21091   0.84659   0.42283   0.00000  Uiso   1.00
H505   H     0.26360   0.80702   0.07530   0.00000  Uiso   1.00
H506   H     0.08769   0.66881   0.29412   0.00000  Uiso   1.00
H507   H     0.11918   0.67699   0.33028   0.00000  Uiso   1.00
H508   H     0.00015   0.78006   0.43926   0.00000  Uiso   1.00
H509   H     0.27760   0.76100   0.45220   0.00000  Uiso   1.00
H510   H     0.00399   0.76154   0.01535   0.00000  Uiso   1.00
H511   H     0.28200   0.73848   0.02564   0.00000  Uiso   1.00
H512   H     0.30176   0.69011   0.45646   0.00000  Uiso   1.00
H513   H     0.33039   0.68469   0.49747   0.00000  Uiso   1.00
H514   H     0.02427   0.71221   0.44816   0.00000  Uiso   1.00
H515   H     0.08066   0.75350   0.10286   0.00000  Uiso   1.00
H516   H     0.31881   0.80721   0.29107   0.00000  Uiso   1.00
H517   H     0.13491   0.74249   0.08187   0.00000  Uiso   1.00
H518   H     0.07719   0.76347   0.02420   0.00000  Uiso   1.00
H519   H     0.13085   0.74911   0.00285   0.00000  Uiso   1.00
H520   H     0.07751   0.68882   0.49600   0.00000  Uiso   1.00
H521   H     0.05148   0.69434   0.05531   0.00000  Uiso   1.00
H522   H     0.10572   0.68017   0.03625   0.00000  Uiso   1.00
H523   H     0.03811   0.85343   0.43144   0.00000  Uiso   1.00
H524   H     0.05710   0.90427   0.43559   0.00000  Uiso   1.00
H525   H     0.27270   0.83668   0.42710   0.00000  Uiso   1.00
H526   H     0.10091   0.85584   0.05075   0.00000  Uiso   1.00
H527   H     0.05301   0.87348   0.01106   0.00000  Uiso   1.00
H528   H     0.22477   0.85600   0.38905   0.00000  Uiso   1.00
H529   H     0.01612   0.86052   0.20919   0.00000  Uiso   1.00
H530   H     0.24381   0.66931   0.20739   0.00000  Uiso   1.00
H531   H     0.21228   0.99433   0.17120   0.00000  Uiso   1.00
N532   N     0.21472   0.67519   0.20243   0.00000  Uiso   1.00
N533   N     0.11626   0.99531   0.29952   0.00000  Uiso   1.00
N534   N     0.06574   0.87483   0.42312   0.00000  Uiso   1.00
O535   O     0.16667   0.83333   0.25000   0.00000  Uiso   1.00
O536   O     0.15451   0.79304   0.15458   0.00000  Uiso   1.00
O537   O     0.12940   0.87058   0.34968   0.00000  Uiso   1.00
O538   O     0.20824   0.84425   0.14606   0.00000  Uiso   1.00
O539   O     0.17451   0.82546   0.34968   0.00000  Uiso   1.00
O540   O     0.29683   0.81482   0.49005   0.00000  Uiso   1.00
O541   O     0.12258   0.80368   0.07825   0.00000  Uiso   1.00
O542   O     0.17930   0.74686   0.28213   0.00000  Uiso   1.00
O543   O     0.14632   0.92751   0.27014   0.00000  Uiso   1.00
O544   O     0.07412   0.79958   0.23413   0.00000  Uiso   1.00
O545   O     0.26693   0.85939   0.21360   0.00000  Uiso   1.00
O546   O     0.07071   0.85544   0.28213   0.00000  Uiso   1.00
O547   O     0.25491   0.81892   0.27013   0.00000  Uiso   1.00
O548   O     0.13760   0.73610   0.23413   0.00000  Uiso   1.00
O549   O     0.20345   0.92286   0.21361   0.00000  Uiso   1.00
Zn550  Zn    0.19338   0.80661   0.28734   0.00000  Uiso   1.00
Zn551  Zn    0.13379   0.79124   0.21876   0.00000  Uiso   1.00
Zn552  Zn    0.21056   0.86442   0.20657   0.00000  Uiso   1.00
Zn553  Zn    0.12893   0.87106   0.28734   0.00000  Uiso   1.00
C554   C     0.38612   0.82649   0.26001   0.00000  Uiso   1.00
C555   C     0.49919   0.81248   0.05700   0.00000  Uiso   1.00
C556   C     0.57326   0.80979   0.05730   0.00000  Uiso   1.00
C557   C     0.61420   0.84055   0.23992   0.00000  Uiso   1.00
C558   C     0.47098   0.85612   0.42086   0.00000  Uiso   1.00
C559   C     0.66019   0.84323   0.23563   0.00000  Uiso   1.00
C560   C     0.34077   0.82434   0.26415   0.00000  Uiso   1.00
C561   C     0.51348   0.98929   0.23655   0.00000  Uiso   1.00
C562   C     0.48490   0.67908   0.26472   0.00000  Uiso   1.00
C563   C     0.48966   0.72284   0.26016   0.00000  Uiso   1.00
C564   C     0.50988   0.94464   0.24019   0.00000  Uiso   1.00
C565   C     0.41754   0.86505   0.49207   0.00000  Uiso   1.00
C566   C     0.51904   0.81512   0.12918   0.00000  Uiso   1.00
C567   C     0.48186   0.85141   0.37108   0.00000  Uiso   1.00
C568   C     0.58684   0.81467   0.01146   0.00000  Uiso   1.00
C569   C     0.52985   0.80926   0.08026   0.00000  Uiso   1.00
C570   C     0.42947   0.86532   0.44539   0.00000  Uiso   1.00
C571   C     0.63746   0.77545   0.46753   0.00000  Uiso   1.00
C572   C     0.64541   0.74608   0.49903   0.00000  Uiso   1.00
C573   C     0.65969   0.70580   0.47354   0.00000  Uiso   1.00
C574   C     0.44381   0.76022   0.07564   0.00000  Uiso   1.00
C575   C     0.43417   0.74498   0.03039   0.00000  Uiso   1.00
C576   C     0.44493   0.85324   0.01462   0.00000  Uiso   1.00
C577   C     0.41607   0.69920   0.02960   0.00000  Uiso   1.00
C578   C     0.48560   0.84139   0.49109   0.00000  Uiso   1.00
C579   C     0.50025   0.84748   0.44444   0.00000  Uiso   1.00
C580   C     0.51339   0.82644   0.01286   0.00000  Uiso   1.00
C581   C     0.55758   0.82531   0.48949   0.00000  Uiso   1.00
C582   C     0.57237   0.83614   0.44507   0.00000  Uiso   1.00
C583   C     0.54424   0.84659   0.42283   0.00000  Uiso   1.00
H584   H     0.59693   0.80702   0.07530   0.00000  Uiso   1.00
H585   H     0.42102   0.66881   0.29412   0.00000  Uiso   1.00
H586   H     0.45252   0.67699   0.33028   0.00000  Uiso   1.00
H587   H     0.33348   0.78006   0.43926   0.00000  Uiso   1.00
H588   H     0.61094   0.76100   0.45220   0.00000  Uiso   1.00
H589   H     0.33732   0.76154   0.01535   0.00000  Uiso   1.00
H590   H     0.61534   0.73848   0.02564   0.00000  Uiso   1.00
H591   H     0.63510   0.69011   0.45646   0.00000  Uiso   1.00
H592   H     0.66372   0.68469   0.49747   0.00000  Uiso   1.00
H593   H     0.35760   0.71221   0.44816   0.00000  Uiso   1.00
H594   H     0.41399   0.75350   0.10286   0.00000  Uiso   1.00
H595   H     0.65215   0.80721   0.29107   0.00000  Uiso   1.00
H596   H     0.46825   0.74249   0.08187   0.00000  Uiso   1.00
H597   H     0.41052   0.76347   0.02420   0.00000  Uiso   1.00
H598   H     0.46418   0.74911   0.00285   0.00000  Uiso   1.00
H599   H     0.41084   0.68882   0.49600   0.00000  Uiso   1.00
H600   H     0.38481   0.69434   0.05531   0.00000  Uiso   1.00
H601   H     0.43905   0.68017   0.03625   0.00000  Uiso   1.00
H602   H     0.37145   0.85343   0.43144   0.00000  Uiso   1.00
H603   H     0.39044   0.90427   0.43559   0.00000  Uiso   1.00
H604   H     0.60603   0.83668   0.42710   0.00000  Uiso   1.00
H605   H     0.43425   0.85584   0.05075   0.00000  Uiso   1.00
H606   H     0.38634   0.87348   0.01106   0.00000  Uiso   1.00
H607   H     0.55811   0.85600   0.38905   0.00000  Uiso   1.00
H608   H     0.34945   0.86052   0.20919   0.00000  Uiso   1.00
H609   H     0.57714   0.66931   0.20739   0.00000  Uiso   1.00
H610   H     0.54561   0.99433   0.17120   0.00000  Uiso   1.00
N611   N     0.54805   0.67519   0.20243   0.00000  Uiso   1.00
N612   N     0.44959   0.99531   0.29952   0.00000  Uiso   1.00
N613   N     0.39907   0.87483   0.42312   0.00000  Uiso   1.00
O614   O     0.50000   0.83333   0.25000   0.00000  Uiso   1.00
O615   O     0.48784   0.79304   0.15458   0.00000  Uiso   1.00
O616   O     0.46274   0.87058   0.34968   0.00000  Uiso   1.00
O617   O     0.54157   0.84425   0.14606   0.00000  Uiso   1.00
O618   O     0.50785   0.82546   0.34968   0.00000  Uiso   1.00
O619   O     0.63016   0.81482   0.49005   0.00000  Uiso   1.00
O620   O     0.45591   0.80368   0.07825   0.00000  Uiso   1.00
O621   O     0.51264   0.74686   0.28213   0.00000  Uiso   1.00
O622   O     0.47965   0.92751   0.27014   0.00000  Uiso   1.00
O623   O     0.40745   0.79958   0.23413   0.00000  Uiso   1.00
O624   O     0.60026   0.85939   0.21360   0.00000  Uiso   1.00
O625   O     0.40405   0.85544   0.28213   0.00000  Uiso   1.00
O626   O     0.58824   0.81892   0.27013   0.00000  Uiso   1.00
O627   O     0.47093   0.73610   0.23413   0.00000  Uiso   1.00
O628   O     0.53678   0.92286   0.21361   0.00000  Uiso   1.00
Zn629  Zn    0.52672   0.80661   0.28734   0.00000  Uiso   1.00
Zn630  Zn    0.46713   0.79124   0.21876   0.00000  Uiso   1.00
Zn631  Zn    0.54389   0.86442   0.20657   0.00000  Uiso   1.00
Zn632  Zn    0.46226   0.87106   0.28734   0.00000  Uiso   1.00
C633   C     0.71946   0.82649   0.26001   0.00000  Uiso   1.00
C634   C     0.83252   0.81248   0.05700   0.00000  Uiso   1.00
C635   C     0.90659   0.80979   0.05730   0.00000  Uiso   1.00
C636   C     0.94754   0.84055   0.23992   0.00000  Uiso   1.00
C637   C     0.80432   0.85612   0.42086   0.00000  Uiso   1.00
C638   C     0.99352   0.84323   0.23563   0.00000  Uiso   1.00
C639   C     0.67410   0.82434   0.26415   0.00000  Uiso   1.00
C640   C     0.84681   0.98929   0.23655   0.00000  Uiso   1.00
C641   C     0.81823   0.67908   0.26472   0.00000  Uiso   1.00
C642   C     0.82299   0.72284   0.26016   0.00000  Uiso   1.00
C643   C     0.84321   0.94464   0.24019   0.00000  Uiso   1.00
C644   C     0.75087   0.86505   0.49207   0.00000  Uiso   1.00
C645   C     0.85237   0.81512   0.12918   0.00000  Uiso   1.00
C646   C     0.81519   0.85141   0.37108   0.00000  Uiso   1.00
C647   C     0.92018   0.81467   0.01146   0.00000  Uiso   1.00
C648   C     0.86318   0.80926   0.08026   0.00000  Uiso   1.00
C649   C     0.76280   0.86532   0.44539   0.00000  Uiso   1.00
C650   C     0.97080   0.77545   0.46753   0.00000  Uiso   1.00
C651   C     0.97874   0.74608   0.49903   0.00000  Uiso   1.00
C652   C     0.99303   0.70580   0.47354   0.00000  Uiso   1.00
C653   C     0.77715   0.76022   0.07564   0.00000  Uiso   1.00
C654   C     0.76750   0.74498   0.03039   0.00000  Uiso   1.00
C655   C     0.77826   0.85324   0.01462   0.00000  Uiso   1.00
C656   C     0.74941   0.69920   0.02960   0.00000  Uiso   1.00
C657   C     0.81893   0.84139   0.49109   0.00000  Uiso   1.00
C658   C     0.83359   0.84748   0.44444   0.00000  Uiso   1.00
C659   C     0.84673   0.82644   0.01286   0.00000  Uiso   1.00
C660   C     0.89092   0.82531   0.48949   0.00000  Uiso   1.00
C661   C     0.90570   0.83614   0.44507   0.00000  Uiso   1.00
C662   C     0.87757   0.84659   0.42283   0.00000  Uiso   1.00
H663   H     0.93026   0.80702   0.07530   0.00000  Uiso   1.00
H664   H     0.75436   0.66881   0.29412   0.00000  Uiso   1.00
H665   H     0.78585   0.67699   0.33028   0.00000  Uiso   1.00
H666   H     0.66681   0.78006   0.43926   0.00000  Uiso   1.00
H667   H     0.94427   0.76100   0.45220   0.00000  Uiso   1.00
H668   H     0.67065   0.76154   0.01535   0.00000  Uiso   1.00
H669   H     0.94867   0.73848   0.02564   0.00000  Uiso   1.00
H670   H     0.96843   0.69011   0.45646   0.00000  Uiso   1.00
H671   H     0.99706   0.68469   0.49747   0.00000  Uiso   1.00
H672   H     0.69093   0.71221   0.44816   0.00000  Uiso   1.00
H673   H     0.74732   0.75350   0.10286   0.00000  Uiso   1.00
H674   H     0.98548   0.80721   0.29107   0.00000  Uiso   1.00
H675   H     0.80158   0.74249   0.08187   0.00000  Uiso   1.00
H676   H     0.74385   0.76347   0.02420   0.00000  Uiso   1.00
H677   H     0.79751   0.74911   0.00285   0.00000  Uiso   1.00
H678   H     0.74418   0.68882   0.49600   0.00000  Uiso   1.00
H679   H     0.71815   0.69434   0.05531   0.00000  Uiso   1.00
H680   H     0.77239   0.68017   0.03625   0.00000  Uiso   1.00
H681   H     0.70478   0.85343   0.43144   0.00000  Uiso   1.00
H682   H     0.72377   0.90427   0.43559   0.00000  Uiso   1.00
H683   H     0.93936   0.83668   0.42710   0.00000  Uiso   1.00
H684   H     0.76758   0.85584   0.05075   0.00000  Uiso   1.00
H685   H     0.71967   0.87348   0.01106   0.00000  Uiso   1.00
H686   H     0.89144   0.85600   0.38905   0.00000  Uiso   1.00
H687   H     0.68278   0.86052   0.20919   0.00000  Uiso   1.00
H688   H     0.91048   0.66931   0.20739   0.00000  Uiso   1.00
H689   H     0.87895   0.99433   0.17120   0.00000  Uiso   1.00
N690   N     0.88139   0.67519   0.20243   0.00000  Uiso   1.00
N691   N     0.78293   0.99531   0.29952   0.00000  Uiso   1.00
N692   N     0.73240   0.87483   0.42312   0.00000  Uiso   1.00
O693   O     0.83333   0.83333   0.25000   0.00000  Uiso   1.00
O694   O     0.82118   0.79304   0.15458   0.00000  Uiso   1.00
O695   O     0.79607   0.87058   0.34968   0.00000  Uiso   1.00
O696   O     0.87491   0.84425   0.14606   0.00000  Uiso   1.00
O697   O     0.84118   0.82546   0.34968   0.00000  Uiso   1.00
O698   O     0.96350   0.81482   0.49005   0.00000  Uiso   1.00
O699   O     0.78925   0.80368   0.07825   0.00000  Uiso   1.00
O700   O     0.84597   0.74686   0.28213   0.00000  Uiso   1.00
O701   O     0.81298   0.92751   0.27014   0.00000  Uiso   1.00
O702   O     0.74078   0.79958   0.23413   0.00000  Uiso   1.00
O703   O     0.93360   0.85939   0.21360   0.00000  Uiso   1.00
O704   O     0.73738   0.85544   0.28213   0.00000  Uiso   1.00
O705   O     0.92158   0.81892   0.27013   0.00000  Uiso   1.00
O706   O     0.80426   0.73610   0.23413   0.00000  Uiso   1.00
O707   O     0.87012   0.92286   0.21361   0.00000  Uiso   1.00
Zn708  Zn    0.86005   0.80661   0.28734   0.00000  Uiso   1.00
Zn709  Zn    0.80046   0.79124   0.21876   0.00000  Uiso   1.00
Zn710  Zn    0.87723   0.86442   0.20657   0.00000  Uiso   1.00
Zn711  Zn    0.79560   0.87106   0.28734   0.00000  Uiso   1.00
C712   C     0.05279   0.15983   0.76001   0.00000  Uiso   1.00
C713   C     0.16586   0.14581   0.55700   0.00000  Uiso   1.00
C714   C     0.23992   0.14312   0.55730   0.00000  Uiso   1.00
C715   C     0.28087   0.17388   0.73992   0.00000  Uiso   1.00
C716   C     0.13765   0.18945   0.92086   0.00000  Uiso   1.00
C717   C     0.32685   0.17656   0.73563   0.00000  Uiso   1.00
C718   C     0.00743   0.15768   0.76415   0.00000  Uiso   1.00
C719   C     0.18015   0.32262   0.73655   0.00000  Uiso   1.00
C720   C     0.15157   0.01242   0.76472   0.00000  Uiso   1.00
C721   C     0.15632   0.05617   0.76016   0.00000  Uiso   1.00
C722   C     0.17654   0.27797   0.74019   0.00000  Uiso   1.00
C723   C     0.08420   0.19838   0.99207   0.00000  Uiso   1.00
C724   C     0.18571   0.14846   0.62918   0.00000  Uiso   1.00
C725   C     0.14853   0.18474   0.87108   0.00000  Uiso   1.00
C726   C     0.25351   0.14800   0.51146   0.00000  Uiso   1.00
C727   C     0.19651   0.14259   0.58026   0.00000  Uiso   1.00
C728   C     0.09613   0.19866   0.94539   0.00000  Uiso   1.00
C729   C     0.30413   0.10878   0.96753   0.00000  Uiso   1.00
C730   C     0.31207   0.07941   0.99903   0.00000  Uiso   1.00
C731   C     0.32636   0.03914   0.97354   0.00000  Uiso   1.00
C732   C     0.11048   0.09355   0.57564   0.00000  Uiso   1.00
C733   C     0.10083   0.07831   0.53039   0.00000  Uiso   1.00
C734   C     0.11160   0.18658   0.51462   0.00000  Uiso   1.00
C735   C     0.08274   0.03254   0.52960   0.00000  Uiso   1.00
C736   C     0.15227   0.17473   0.99109   0.00000  Uiso   1.00
C737   C     0.16692   0.18081   0.94444   0.00000  Uiso   1.00
C738   C     0.18006   0.15977   0.51286   0.00000  Uiso   1.00
C739   C     0.22425   0.15864   0.98949   0.00000  Uiso   1.00
C740   C     0.23904   0.16947   0.94507   0.00000  Uiso   1.00
C741   C     0.21091   0.17993   0.92283   0.00000  Uiso   1.00
H742   H     0.26360   0.14035   0.57530   0.00000  Uiso   1.00
H743   H     0.08769   0.00215   0.79412   0.00000  Uiso   1.00
H744   H     0.11918   0.01032   0.83028   0.00000  Uiso   1.00
H745   H     0.00015   0.11340   0.93926   0.00000  Uiso   1.00
H746   H     0.27760   0.09433   0.95220   0.00000  Uiso   1.00
H747   H     0.00399   0.09487   0.51535   0.00000  Uiso   1.00
H748   H     0.28200   0.07181   0.52564   0.00000  Uiso   1.00
H749   H     0.30176   0.02344   0.95646   0.00000  Uiso   1.00
H750   H     0.33039   0.01802   0.99747   0.00000  Uiso   1.00
H751   H     0.02427   0.04555   0.94816   0.00000  Uiso   1.00
H752   H     0.08066   0.08683   0.60286   0.00000  Uiso   1.00
H753   H     0.31881   0.14054   0.79107   0.00000  Uiso   1.00
H754   H     0.13491   0.07582   0.58187   0.00000  Uiso   1.00
H755   H     0.07719   0.09680   0.52420   0.00000  Uiso   1.00
H756   H     0.13085   0.08244   0.50285   0.00000  Uiso   1.00
H757   H     0.07751   0.02215   0.99600   0.00000  Uiso   1.00
H758   H     0.05148   0.02767   0.55531   0.00000  Uiso   1.00
H759   H     0.10572   0.01350   0.53625   0.00000  Uiso   1.00
H760   H     0.03811   0.18676   0.93144   0.00000  Uiso   1.00
H761   H     0.05710   0.23761   0.93559   0.00000  Uiso   1.00
H762   H     0.27270   0.17001   0.92710   0.00000  Uiso   1.00
H763   H     0.10091   0.18917   0.55075   0.00000  Uiso   1.00
H764   H     0.05301   0.20681   0.51106   0.00000  Uiso   1.00
H765   H     0.22477   0.18933   0.88905   0.00000  Uiso   1.00
H766   H     0.01612   0.19385   0.70919   0.00000  Uiso   1.00
H767   H     0.24381   0.00264   0.70739   0.00000  Uiso   1.00
H768   H     0.21228   0.32766   0.67120   0.00000  Uiso   1.00
N769   N     0.21472   0.00853   0.70243   0.00000  Uiso   1.00
N770   N     0.11626   0.32865   0.79952   0.00000  Uiso   1.00
N771   N     0.06574   0.20817   0.92312   0.00000  Uiso   1.00
O772   O     0.16667   0.16667   0.75000   0.00000  Uiso   1.00
O773   O     0.15451   0.12637   0.65458   0.00000  Uiso   1.00
O774   O     0.12940   0.20391   0.84968   0.00000  Uiso   1.00
O775   O     0.20824   0.17759   0.64606   0.00000  Uiso   1.00
O776   O     0.17451   0.15880   0.84968   0.00000  Uiso   1.00
O777   O     0.29683   0.14815   0.99005   0.00000  Uiso   1.00
O778   O     0.12258   0.13701   0.57825   0.00000  Uiso   1.00
O779   O     0.17930   0.08019   0.78213   0.00000  Uiso   1.00
O780   O     0.14632   0.26085   0.77014   0.00000  Uiso   1.00
O781   O     0.07412   0.13291   0.73413   0.00000  Uiso   1.00
O782   O     0.26693   0.19272   0.71360   0.00000  Uiso   1.00
O783   O     0.07071   0.18878   0.78213   0.00000  Uiso   1.00
O784   O     0.25491   0.15226   0.77013   0.00000  Uiso   1.00
O785   O     0.13760   0.06944   0.73413   0.00000  Uiso   1.00
O786   O     0.20345   0.25620   0.71361   0.00000  Uiso   1.00
Zn787  Zn    0.19338   0.13994   0.78734   0.00000  Uiso   1.00
Zn788  Zn    0.13379   0.12458   0.71876   0.00000  Uiso   1.00
Zn789  Zn    0.21056   0.19775   0.70657   0.00000  Uiso   1.00
Zn790  Zn    0.12893   0.20439   0.78734   0.00000  Uiso   1.00
C791   C     0.38612   0.15983   0.76001   0.00000  Uiso   1.00
C792   C     0.49919   0.14581   0.55700   0.00000  Uiso   1.00
C793   C     0.57326   0.14312   0.55730   0.00000  Uiso   1.00
C794   C     0.61420   0.17388   0.73992   0.00000  Uiso   1.00
C795   C     0.47098   0.18945   0.92086   0.00000  Uiso   1.00
C796   C     0.66019   0.17656   0.73563   0.00000  Uiso   1.00
C797   C     0.34077   0.15768   0.76415   0.00000  Uiso   1.00
C798   C     0.51348   0.32262   0.73655   0.00000  Uiso   1.00
C799   C     0.48490   0.01242   0.76472   0.00000  Uiso   1.00
C800   C     0.48966   0.05617   0.76016   0.00000  Uiso   1.00
C801   C     0.50988   0.27797   0.74019   0.00000  Uiso   1.00
C802   C     0.41754   0.19838   0.99207   0.00000  Uiso   1.00
C803   C     0.51904   0.14846   0.62918   0.00000  Uiso   1.00
C804   C     0.48186   0.18474   0.87108   0.00000  Uiso   1.00
C805   C     0.58684   0.14800   0.51146   0.00000  Uiso   1.00
C806   C     0.52985   0.14259   0.58026   0.00000  Uiso   1.00
C807   C     0.42947   0.19866   0.94539   0.00000  Uiso   1.00
C808   C     0.63746   0.10878   0.96753   0.00000  Uiso   1.00
C809   C     0.64541   0.07941   0.99903   0.00000  Uiso   1.00
C810   C     0.65969   0.03914   0.97354   0.00000  Uiso   1.00
C811   C     0.44381   0.09355   0.57564   0.00000  Uiso   1.00
C812   C     0.43417   0.07831   0.53039   0.00000  Uiso   1.00
C813   C     0.44493   0.18658   0.51462   0.00000  Uiso   1.00
C814   C     0.41607   0.03254   0.52960   0.00000  Uiso   1.00
C815   C     0.48560   0.17473   0.99109   0.00000  Uiso   1.00
C816   C     0.50025   0.18081   0.94444   0.00000  Uiso   1.00
C817   C     0.51339   0.15977   0.51286   0.00000  Uiso   1.00
C818   C     0.55758   0.15864   0.98949   0.00000  Uiso   1.00
C819   C     0.57237   0.16947   0.94507   0.00000  Uiso   1.00
C820   C     0.54424   0.17993   0.92283   0.00000  Uiso   1.00
H821   H     0.59693   0.14035   0.57530   0.00000  Uiso   1.00
H822   H     0.42102   0.00215   0.79412   0.00000  Uiso   1.00
H823   H     0.45252   0.01032   0.83028   0.00000  Uiso   1.00
H824   H     0.33348   0.11340   0.93926   0.00000  Uiso   1.00
H825   H     0.61094   0.09433   0.95220   0.00000  Uiso   1.00
H826   H     0.33732   0.09487   0.51535   0.00000  Uiso   1.00
H827   H     0.61534   0.07181   0.52564   0.00000  Uiso   1.00
H828   H     0.63510   0.02344   0.95646   0.00000  Uiso   1.00
H829   H     0.66372   0.01802   0.99747   0.00000  Uiso   1.00
H830   H     0.35760   0.04555   0.94816   0.00000  Uiso   1.00
H831   H     0.41399   0.08683   0.60286   0.00000  Uiso   1.00
H832   H     0.65215   0.14054   0.79107   0.00000  Uiso   1.00
H833   H     0.46825   0.07582   0.58187   0.00000  Uiso   1.00
H834   H     0.41052   0.09680   0.52420   0.00000  Uiso   1.00
H835   H     0.46418   0.08244   0.50285   0.00000  Uiso   1.00
H836   H     0.41084   0.02215   0.99600   0.00000  Uiso   1.00
H837   H     0.38481   0.02767   0.55531   0.00000  Uiso   1.00
H838   H     0.43905   0.01350   0.53625   0.00000  Uiso   1.00
H839   H     0.37145   0.18676   0.93144   0.00000  Uiso   1.00
H840   H     0.39044   0.23761   0.93559   0.00000  Uiso   1.00
H841   H     0.60603   0.17001   0.92710   0.00000  Uiso   1.00
H842   H     0.43425   0.18917   0.55075   0.00000  Uiso   1.00
H843   H     0.38634   0.20681   0.51106   0.00000  Uiso   1.00
H844   H     0.55811   0.18933   0.88905   0.00000  Uiso   1.00
H845   H     0.34945   0.19385   0.70919   0.00000  Uiso   1.00
H846   H     0.57714   0.00264   0.70739   0.00000  Uiso   1.00
H847   H     0.54561   0.32766   0.67120   0.00000  Uiso   1.00
N848   N     0.54805   0.00853   0.70243   0.00000  Uiso   1.00
N849   N     0.44959   0.32865   0.79952   0.00000  Uiso   1.00
N850   N     0.39907   0.20817   0.92312   0.00000  Uiso   1.00
O851   O     0.50000   0.16667   0.75000   0.00000  Uiso   1.00
O852   O     0.48784   0.12637   0.65458   0.00000  Uiso   1.00
O853   O     0.46274   0.20391   0.84968   0.00000  Uiso   1.00
O854   O     0.54157   0.17759   0.64606   0.00000  Uiso   1.00
O855   O     0.50785   0.15880   0.84968   0.00000  Uiso   1.00
O856   O     0.63016   0.14815   0.99005   0.00000  Uiso   1.00
O857   O     0.45591   0.13701   0.57825   0.00000  Uiso   1.00
O858   O     0.51264   0.08019   0.78213   0.00000  Uiso   1.00
O859   O     0.47965   0.26085   0.77014   0.00000  Uiso   1.00
O860   O     0.40745   0.13291   0.73413   0.00000  Uiso   1.00
O861   O     0.60026   0.19272   0.71360   0.00000  Uiso   1.00
O862   O     0.40405   0.18878   0.78213   0.00000  Uiso   1.00
O863   O     0.58824   0.15226   0.77013   0.00000  Uiso   1.00
O864   O     0.47093   0.06944   0.73413   0.00000  Uiso   1.00
O865   O     0.53678   0.25620   0.71361   0.00000  Uiso   1.00
Zn866  Zn    0.52672   0.13994   0.78734   0.00000  Uiso   1.00
Zn867  Zn    0.46713   0.12458   0.71876   0.00000  Uiso   1.00
Zn868  Zn    0.54389   0.19775   0.70657   0.00000  Uiso   1.00
Zn869  Zn    0.46226   0.20439   0.78734   0.00000  Uiso   1.00
C870   C     0.71946   0.15983   0.76001   0.00000  Uiso   1.00
C871   C     0.83252   0.14581   0.55700   0.00000  Uiso   1.00
C872   C     0.90659   0.14312   0.55730   0.00000  Uiso   1.00
C873   C     0.94754   0.17388   0.73992   0.00000  Uiso   1.00
C874   C     0.80432   0.18945   0.92086   0.00000  Uiso   1.00
C875   C     0.99352   0.17656   0.73563   0.00000  Uiso   1.00
C876   C     0.67410   0.15768   0.76415   0.00000  Uiso   1.00
C877   C     0.84681   0.32262   0.73655   0.00000  Uiso   1.00
C878   C     0.81823   0.01242   0.76472   0.00000  Uiso   1.00
C879   C     0.82299   0.05617   0.76016   0.00000  Uiso   1.00
C880   C     0.84321   0.27797   0.74019   0.00000  Uiso   1.00
C881   C     0.75087   0.19838   0.99207   0.00000  Uiso   1.00
C882   C     0.85237   0.14846   0.62918   0.00000  Uiso   1.00
C883   C     0.81519   0.18474   0.87108   0.00000  Uiso   1.00
C884   C     0.92018   0.14800   0.51146   0.00000  Uiso   1.00
C885   C     0.86318   0.14259   0.58026   0.00000  Uiso   1.00
C886   C     0.76280   0.19866   0.94539   0.00000  Uiso   1.00
C887   C     0.97080   0.10878   0.96753   0.00000  Uiso   1.00
C888   C     0.97874   0.07941   0.99903   0.00000  Uiso   1.00
C889   C     0.99303   0.03914   0.97354   0.00000  Uiso   1.00
C890   C     0.77715   0.09355   0.57564   0.00000  Uiso   1.00
C891   C     0.76750   0.07831   0.53039   0.00000  Uiso   1.00
C892   C     0.77826   0.18658   0.51462   0.00000  Uiso   1.00
C893   C     0.74941   0.03254   0.52960   0.00000  Uiso   1.00
C894   C     0.81893   0.17473   0.99109   0.00000  Uiso   1.00
C895   C     0.83359   0.18081   0.94444   0.00000  Uiso   1.00
C896   C     0.84673   0.15977   0.51286   0.00000  Uiso   1.00
C897   C     0.89092   0.15864   0.98949   0.00000  Uiso   1.00
C898   C     0.90570   0.16947   0.94507   0.00000  Uiso   1.00
C899   C     0.87757   0.17993   0.92283   0.00000  Uiso   1.00
H900   H     0.93026   0.14035   0.57530   0.00000  Uiso   1.00
H901   H     0.75436   0.00215   0.79412   0.00000  Uiso   1.00
H902   H     0.78585   0.01032   0.83028   0.00000  Uiso   1.00
H903   H     0.66681   0.11340   0.93926   0.00000  Uiso   1.00
H904   H     0.94427   0.09433   0.95220   0.00000  Uiso   1.00
H905   H     0.67065   0.09487   0.51535   0.00000  Uiso   1.00
H906   H     0.94867   0.07181   0.52564   0.00000  Uiso   1.00
H907   H     0.96843   0.02344   0.95646   0.00000  Uiso   1.00
H908   H     0.99706   0.01802   0.99747   0.00000  Uiso   1.00
H909   H     0.69093   0.04555   0.94816   0.00000  Uiso   1.00
H910   H     0.74732   0.08683   0.60286   0.00000  Uiso   1.00
H911   H     0.98548   0.14054   0.79107   0.00000  Uiso   1.00
H912   H     0.80158   0.07582   0.58187   0.00000  Uiso   1.00
H913   H     0.74385   0.09680   0.52420   0.00000  Uiso   1.00
H914   H     0.79751   0.08244   0.50285   0.00000  Uiso   1.00
H915   H     0.74418   0.02215   0.99600   0.00000  Uiso   1.00
H916   H     0.71815   0.02767   0.55531   0.00000  Uiso   1.00
H917   H     0.77239   0.01350   0.53625   0.00000  Uiso   1.00
H918   H     0.70478   0.18676   0.93144   0.00000  Uiso   1.00
H919   H     0.72377   0.23761   0.93559   0.00000  Uiso   1.00
H920   H     0.93936   0.17001   0.92710   0.00000  Uiso   1.00
H921   H     0.76758   0.18917   0.55075   0.00000  Uiso   1.00
H922   H     0.71967   0.20681   0.51106   0.00000  Uiso   1.00
H923   H     0.89144   0.18933   0.88905   0.00000  Uiso   1.00
H924   H     0.68278   0.19385   0.70919   0.00000  Uiso   1.00
H925   H     0.91048   0.00264   0.70739   0.00000  Uiso   1.00
H926   H     0.87895   0.32766   0.67120   0.00000  Uiso   1.00
N927   N     0.88139   0.00853   0.70243   0.00000  Uiso   1.00
N928   N     0.78293   0.32865   0.79952   0.00000  Uiso   1.00
N929   N     0.73240   0.20817   0.92312   0.00000  Uiso   1.00
O930   O     0.83333   0.16667   0.75000   0.00000  Uiso   1.00
O931   O     0.82118   0.12637   0.65458   0.00000  Uiso   1.00
O932   O     0.79607   0.20391   0.84968   0.00000  Uiso   1.00
O933   O     0.87491   0.17759   0.64606   0.00000  Uiso   1.00
O934   O     0.84118   0.15880   0.84968   0.00000  Uiso   1.00
O935   O     0.96350   0.14815   0.99005   0.00000  Uiso   1.00
O936   O     0.78925   0.13701   0.57825   0.00000  Uiso   1.00
O937   O     0.84597   0.08019   0.78213   0.00000  Uiso   1.00
O938   O     0.81298   0.26085   0.77014   0.00000  Uiso   1.00
O939   O     0.74078   0.13291   0.73413   0.00000  Uiso   1.00
O940   O     0.93360   0.19272   0.71360   0.00000  Uiso   1.00
O941   O     0.73738   0.18878   0.78213   0.00000  Uiso   1.00
O942   O     0.92158   0.15226   0.77013   0.00000  Uiso   1.00
O943   O     0.80426   0.06944   0.73413   0.00000  Uiso   1.00
O944   O     0.87012   0.25620   0.71361   0.00000  Uiso   1.00
Zn945  Zn    0.86005   0.13994   0.78734   0.00000  Uiso   1.00
Zn946  Zn    0.80046   0.12458   0.71876   0.00000  Uiso   1.00
Zn947  Zn    0.87723   0.19775   0.70657   0.00000  Uiso   1.00
Zn948  Zn    0.79560   0.20439   0.78734   0.00000  Uiso   1.00
C949   C     0.05279   0.49316   0.76001   0.00000  Uiso   1.00
C950   C     0.16586   0.47915   0.55700   0.00000  Uiso   1.00
C951   C     0.23992   0.47646   0.55730   0.00000  Uiso   1.00
C952   C     0.28087   0.50721   0.73992   0.00000  Uiso   1.00
C953   C     0.13765   0.52278   0.92086   0.00000  Uiso   1.00
C954   C     0.32685   0.50990   0.73563   0.00000  Uiso   1.00
C955   C     0.00743   0.49101   0.76415   0.00000  Uiso   1.00
C956   C     0.18015   0.65596   0.73655   0.00000  Uiso   1.00
C957   C     0.15157   0.34575   0.76472   0.00000  Uiso   1.00
C958   C     0.15632   0.38950   0.76016   0.00000  Uiso   1.00
C959   C     0.17654   0.61130   0.74019   0.00000  Uiso   1.00
C960   C     0.08420   0.53171   0.99207   0.00000  Uiso   1.00
C961   C     0.18571   0.48179   0.62918   0.00000  Uiso   1.00
C962   C     0.14853   0.51808   0.87108   0.00000  Uiso   1.00
C963   C     0.25351   0.48134   0.51146   0.00000  Uiso   1.00
C964   C     0.19651   0.47593   0.58026   0.00000  Uiso   1.00
C965   C     0.09613   0.53199   0.94539   0.00000  Uiso   1.00
C966   C     0.30413   0.44211   0.96753   0.00000  Uiso   1.00
C967   C     0.31207   0.41274   0.99903   0.00000  Uiso   1.00
C968   C     0.32636   0.37247   0.97354   0.00000  Uiso   1.00
C969   C     0.11048   0.42689   0.57564   0.00000  Uiso   1.00
C970   C     0.10083   0.41165   0.53039   0.00000  Uiso   1.00
C971   C     0.11160   0.51991   0.51462   0.00000  Uiso   1.00
C972   C     0.08274   0.36587   0.52960   0.00000  Uiso   1.00
C973   C     0.15227   0.50806   0.99109   0.00000  Uiso   1.00
C974   C     0.16692   0.51415   0.94444   0.00000  Uiso   1.00
C975   C     0.18006   0.49311   0.51286   0.00000  Uiso   1.00
C976   C     0.22425   0.49198   0.98949   0.00000  Uiso   1.00
C977   C     0.23904   0.50281   0.94507   0.00000  Uiso   1.00
C978   C     0.21091   0.51326   0.92283   0.00000  Uiso   1.00
H979   H     0.26360   0.47368   0.57530   0.00000  Uiso   1.00
H980   H     0.08769   0.33548   0.79412   0.00000  Uiso   1.00
H981   H     0.11918   0.34366   0.83028   0.00000  Uiso   1.00
H982   H     0.00015   0.44673   0.93926   0.00000  Uiso   1.00
H983   H     0.27760   0.42767   0.95220   0.00000  Uiso   1.00
H984   H     0.00399   0.42821   0.51535   0.00000  Uiso   1.00
H985   H     0.28200   0.40514   0.52564   0.00000  Uiso   1.00
H986   H     0.30176   0.35677   0.95646   0.00000  Uiso   1.00
H987   H     0.33039   0.35136   0.99747   0.00000  Uiso   1.00
H988   H     0.02427   0.37888   0.94816   0.00000  Uiso   1.00
H989   H     0.08066   0.42016   0.60286   0.00000  Uiso   1.00
H990   H     0.31881   0.47387   0.79107   0.00000  Uiso   1.00
H991   H     0.13491   0.40915   0.58187   0.00000  Uiso   1.00
H992   H     0.07719   0.43014   0.52420   0.00000  Uiso   1.00
H993   H     0.13085   0.41577   0.50285   0.00000  Uiso   1.00
H994   H     0.07751   0.35548   0.99600   0.00000  Uiso   1.00
H995   H     0.05148   0.36100   0.55531   0.00000  Uiso   1.00
H996   H     0.10572   0.34683   0.53625   0.00000  Uiso   1.00
H997   H     0.03811   0.52009   0.93144   0.00000  Uiso   1.00
H998   H     0.05710   0.57094   0.93559   0.00000  Uiso   1.00
H999   H     0.27270   0.50335   0.92710   0.00000  Uiso   1.00
H1000  H     0.10091   0.52250   0.55075   0.00000  Uiso   1.00
H1001  H     0.05301   0.54015   0.51106   0.00000  Uiso   1.00
H1002  H     0.22477   0.52266   0.88905   0.00000  Uiso   1.00
H1003  H     0.01612   0.52719   0.70919   0.00000  Uiso   1.00
H1004  H     0.24381   0.33598   0.70739   0.00000  Uiso   1.00
H1005  H     0.21228   0.66100   0.67120   0.00000  Uiso   1.00
N1006  N     0.21472   0.34186   0.70243   0.00000  Uiso   1.00
N1007  N     0.11626   0.66198   0.79952   0.00000  Uiso   1.00
N1008  N     0.06574   0.54150   0.92312   0.00000  Uiso   1.00
O1009  O     0.16667   0.50000   0.75000   0.00000  Uiso   1.00
O1010  O     0.15451   0.45970   0.65458   0.00000  Uiso   1.00
O1011  O     0.12940   0.53724   0.84968   0.00000  Uiso   1.00
O1012  O     0.20824   0.51092   0.64606   0.00000  Uiso   1.00
O1013  O     0.17451   0.49213   0.84968   0.00000  Uiso   1.00
O1014  O     0.29683   0.48148   0.99005   0.00000  Uiso   1.00
O1015  O     0.12258   0.47035   0.57825   0.00000  Uiso   1.00
O1016  O     0.17930   0.41352   0.78213   0.00000  Uiso   1.00
O1017  O     0.14632   0.59418   0.77014   0.00000  Uiso   1.00
O1018  O     0.07412   0.46625   0.73413   0.00000  Uiso   1.00
O1019  O     0.26693   0.52605   0.71360   0.00000  Uiso   1.00
O1020  O     0.07071   0.52211   0.78213   0.00000  Uiso   1.00
O1021  O     0.25491   0.48559   0.77013   0.00000  Uiso   1.00
O1022  O     0.13760   0.40277   0.73413   0.00000  Uiso   1.00
O1023  O     0.20345   0.58953   0.71361   0.00000  Uiso   1.00
Zn1024 Zn    0.19338   0.47327   0.78734   0.00000  Uiso   1.00
Zn1025 Zn    0.13379   0.45791   0.71876   0.00000  Uiso   1.00
Zn1026 Zn    0.21056   0.53109   0.70657   0.00000  Uiso   1.00
Zn1027 Zn    0.12893   0.53773   0.78734   0.00000  Uiso   1.00
C1028  C     0.38612   0.49316   0.76001   0.00000  Uiso   1.00
C1029  C     0.49919   0.47915   0.55700   0.00000  Uiso   1.00
C1030  C     0.57326   0.47646   0.55730   0.00000  Uiso   1.00
C1031  C     0.61420   0.50721   0.73992   0.00000  Uiso   1.00
C1032  C     0.47098   0.52278   0.92086   0.00000  Uiso   1.00
C1033  C     0.66019   0.50990   0.73563   0.00000  Uiso   1.00
C1034  C     0.34077   0.49101   0.76415   0.00000  Uiso   1.00
C1035  C     0.51348   0.65596   0.73655   0.00000  Uiso   1.00
C1036  C     0.48490   0.34575   0.76472   0.00000  Uiso   1.00
C1037  C     0.48966   0.38950   0.76016   0.00000  Uiso   1.00
C1038  C     0.50988   0.61130   0.74019   0.00000  Uiso   1.00
C1039  C     0.41754   0.53171   0.99207   0.00000  Uiso   1.00
C1040  C     0.51904   0.48179   0.62918   0.00000  Uiso   1.00
C1041  C     0.48186   0.51808   0.87108   0.00000  Uiso   1.00
C1042  C     0.58684   0.48134   0.51146   0.00000  Uiso   1.00
C1043  C     0.52985   0.47593   0.58026   0.00000  Uiso   1.00
C1044  C     0.42947   0.53199   0.94539   0.00000  Uiso   1.00
C1045  C     0.63746   0.44211   0.96753   0.00000  Uiso   1.00
C1046  C     0.64541   0.41274   0.99903   0.00000  Uiso   1.00
C1047  C     0.65969   0.37247   0.97354   0.00000  Uiso   1.00
C1048  C     0.44381   0.42689   0.57564   0.00000  Uiso   1.00
C1049  C     0.43417   0.41165   0.53039   0.00000  Uiso   1.00
C1050  C     0.44493   0.51991   0.51462   0.00000  Uiso   1.00
C1051  C     0.41607   0.36587   0.52960   0.00000  Uiso   1.00
C1052  C     0.48560   0.50806   0.99109   0.00000  Uiso   1.00
C1053  C     0.50025   0.51415   0.94444   0.00000  Uiso   1.00
C1054  C     0.51339   0.49311   0.51286   0.00000  Uiso   1.00
C1055  C     0.55758   0.49198   0.98949   0.00000  Uiso   1.00
C1056  C     0.57237   0.50281   0.94507   0.00000  Uiso   1.00
C1057  C     0.54424   0.51326   0.92283   0.00000  Uiso   1.00
H1058  H     0.59693   0.47368   0.57530   0.00000  Uiso   1.00
H1059  H     0.42102   0.33548   0.79412   0.00000  Uiso   1.00
H1060  H     0.45252   0.34366   0.83028   0.00000  Uiso   1.00
H1061  H     0.33348   0.44673   0.93926   0.00000  Uiso   1.00
H1062  H     0.61094   0.42767   0.95220   0.00000  Uiso   1.00
H1063  H     0.33732   0.42821   0.51535   0.00000  Uiso   1.00
H1064  H     0.61534   0.40514   0.52564   0.00000  Uiso   1.00
H1065  H     0.63510   0.35677   0.95646   0.00000  Uiso   1.00
H1066  H     0.66372   0.35136   0.99747   0.00000  Uiso   1.00
H1067  H     0.35760   0.37888   0.94816   0.00000  Uiso   1.00
H1068  H     0.41399   0.42016   0.60286   0.00000  Uiso   1.00
H1069  H     0.65215   0.47387   0.79107   0.00000  Uiso   1.00
H1070  H     0.46825   0.40915   0.58187   0.00000  Uiso   1.00
H1071  H     0.41052   0.43014   0.52420   0.00000  Uiso   1.00
H1072  H     0.46418   0.41577   0.50285   0.00000  Uiso   1.00
H1073  H     0.41084   0.35548   0.99600   0.00000  Uiso   1.00
H1074  H     0.38481   0.36100   0.55531   0.00000  Uiso   1.00
H1075  H     0.43905   0.34683   0.53625   0.00000  Uiso   1.00
H1076  H     0.37145   0.52009   0.93144   0.00000  Uiso   1.00
H1077  H     0.39044   0.57094   0.93559   0.00000  Uiso   1.00
H1078  H     0.60603   0.50335   0.92710   0.00000  Uiso   1.00
H1079  H     0.43425   0.52250   0.55075   0.00000  Uiso   1.00
H1080  H     0.38634   0.54015   0.51106   0.00000  Uiso   1.00
H1081  H     0.55811   0.52266   0.88905   0.00000  Uiso   1.00
H1082  H     0.34945   0.52719   0.70919   0.00000  Uiso   1.00
H1083  H     0.57714   0.33598   0.70739   0.00000  Uiso   1.00
H1084  H     0.54561   0.66100   0.67120   0.00000  Uiso   1.00
N1085  N     0.54805   0.34186   0.70243   0.00000  Uiso   1.00
N1086  N     0.44959   0.66198   0.79952   0.00000  Uiso   1.00
N1087  N     0.39907   0.54150   0.92312   0.00000  Uiso   1.00
O1088  O     0.50000   0.50000   0.75000   0.00000  Uiso   1.00
O1089  O     0.48784   0.45970   0.65458   0.00000  Uiso   1.00
O1090  O     0.46274   0.53724   0.84968   0.00000  Uiso   1.00
O1091  O     0.54157   0.51092   0.64606   0.00000  Uiso   1.00
O1092  O     0.50785   0.49213   0.84968   0.00000  Uiso   1.00
O1093  O     0.63016   0.48148   0.99005   0.00000  Uiso   1.00
O1094  O     0.45591   0.47035   0.57825   0.00000  Uiso   1.00
O1095  O     0.51264   0.41352   0.78213   0.00000  Uiso   1.00
O1096  O     0.47965   0.59418   0.77014   0.00000  Uiso   1.00
O1097  O     0.40745   0.46625   0.73413   0.00000  Uiso   1.00
O1098  O     0.60026   0.52605   0.71360   0.00000  Uiso   1.00
O1099  O     0.40405   0.52211   0.78213   0.00000  Uiso   1.00
O1100  O     0.58824   0.48559   0.77013   0.00000  Uiso   1.00
O1101  O     0.47093   0.40277   0.73413   0.00000  Uiso   1.00
O1102  O     0.53678   0.58953   0.71361   0.00000  Uiso   1.00
Zn1103 Zn    0.52672   0.47327   0.78734   0.00000  Uiso   1.00
Zn1104 Zn    0.46713   0.45791   0.71876   0.00000  Uiso   1.00
Zn1105 Zn    0.54389   0.53109   0.70657   0.00000  Uiso   1.00
Zn1106 Zn    0.46226   0.53773   0.78734   0.00000  Uiso   1.00
C1107  C     0.71946   0.49316   0.76001   0.00000  Uiso   1.00
C1108  C     0.83252   0.47915   0.55700   0.00000  Uiso   1.00
C1109  C     0.90659   0.47646   0.55730   0.00000  Uiso   1.00
C1110  C     0.94754   0.50721   0.73992   0.00000  Uiso   1.00
C1111  C     0.80432   0.52278   0.92086   0.00000  Uiso   1.00
C1112  C     0.99352   0.50990   0.73563   0.00000  Uiso   1.00
C1113  C     0.67410   0.49101   0.76415   0.00000  Uiso   1.00
C1114  C     0.84681   0.65596   0.73655   0.00000  Uiso   1.00
C1115  C     0.81823   0.34575   0.76472   0.00000  Uiso   1.00
C1116  C     0.82299   0.38950   0.76016   0.00000  Uiso   1.00
C1117  C     0.84321   0.61130   0.74019   0.00000  Uiso   1.00
C1118  C     0.75087   0.53171   0.99207   0.00000  Uiso   1.00
C1119  C     0.85237   0.48179   0.62918   0.00000  Uiso   1.00
C1120  C     0.81519   0.51808   0.87108   0.00000  Uiso   1.00
C1121  C     0.92018   0.48134   0.51146   0.00000  Uiso   1.00
C1122  C     0.86318   0.47593   0.58026   0.00000  Uiso   1.00
C1123  C     0.76280   0.53199   0.94539   0.00000  Uiso   1.00
C1124  C     0.97080   0.44211   0.96753   0.00000  Uiso   1.00
C1125  C     0.97874   0.41274   0.99903   0.00000  Uiso   1.00
C1126  C     0.99303   0.37247   0.97354   0.00000  Uiso   1.00
C1127  C     0.77715   0.42689   0.57564   0.00000  Uiso   1.00
C1128  C     0.76750   0.41165   0.53039   0.00000  Uiso   1.00
C1129  C     0.77826   0.51991   0.51462   0.00000  Uiso   1.00
C1130  C     0.74941   0.36587   0.52960   0.00000  Uiso   1.00
C1131  C     0.81893   0.50806   0.99109   0.00000  Uiso   1.00
C1132  C     0.83359   0.51415   0.94444   0.00000  Uiso   1.00
C1133  C     0.84673   0.49311   0.51286   0.00000  Uiso   1.00
C1134  C     0.89092   0.49198   0.98949   0.00000  Uiso   1.00
C1135  C     0.90570   0.50281   0.94507   0.00000  Uiso   1.00
C1136  C     0.87757   0.51326   0.92283   0.00000  Uiso   1.00
H1137  H     0.93026   0.47368   0.57530   0.00000  Uiso   1.00
H1138  H     0.75436   0.33548   0.79412   0.00000  Uiso   1.00
H1139  H     0.78585   0.34366   0.83028   0.00000  Uiso   1.00
H1140  H     0.66681   0.44673   0.93926   0.00000  Uiso   1.00
H1141  H     0.94427   0.42767   0.95220   0.00000  Uiso   1.00
H1142  H     0.67065   0.42821   0.51535   0.00000  Uiso   1.00
H1143  H     0.94867   0.40514   0.52564   0.00000  Uiso   1.00
H1144  H     0.96843   0.35677   0.95646   0.00000  Uiso   1.00
H1145  H     0.99706   0.35136   0.99747   0.00000  Uiso   1.00
H1146  H     0.69093   0.37888   0.94816   0.00000  Uiso   1.00
H1147  H     0.74732   0.42016   0.60286   0.00000  Uiso   1.00
H1148  H     0.98548   0.47387   0.79107   0.00000  Uiso   1.00
H1149  H     0.80158   0.40915   0.58187   0.00000  Uiso   1.00
H1150  H     0.74385   0.43014   0.52420   0.00000  Uiso   1.00
H1151  H     0.79751   0.41577   0.50285   0.00000  Uiso   1.00
H1152  H     0.74418   0.35548   0.99600   0.00000  Uiso   1.00
H1153  H     0.71815   0.36100   0.55531   0.00000  Uiso   1.00
H1154  H     0.77239   0.34683   0.53625   0.00000  Uiso   1.00
H1155  H     0.70478   0.52009   0.93144   0.00000  Uiso   1.00
H1156  H     0.72377   0.57094   0.93559   0.00000  Uiso   1.00
H1157  H     0.93936   0.50335   0.92710   0.00000  Uiso   1.00
H1158  H     0.76758   0.52250   0.55075   0.00000  Uiso   1.00
H1159  H     0.71967   0.54015   0.51106   0.00000  Uiso   1.00
H1160  H     0.89144   0.52266   0.88905   0.00000  Uiso   1.00
H1161  H     0.68278   0.52719   0.70919   0.00000  Uiso   1.00
H1162  H     0.91048   0.33598   0.70739   0.00000  Uiso   1.00
H1163  H     0.87895   0.66100   0.67120   0.00000  Uiso   1.00
N1164  N     0.88139   0.34186   0.70243   0.00000  Uiso   1.00
N1165  N     0.78293   0.66198   0.79952   0.00000  Uiso   1.00
N1166  N     0.73240   0.54150   0.92312   0.00000  Uiso   1.00
O1167  O     0.83333   0.50000   0.75000   0.00000  Uiso   1.00
O1168  O     0.82118   0.45970   0.65458   0.00000  Uiso   1.00
O1169  O     0.79607   0.53724   0.84968   0.00000  Uiso   1.00
O1170  O     0.87491   0.51092   0.64606   0.00000  Uiso   1.00
O1171  O     0.84118   0.49213   0.84968   0.00000  Uiso   1.00
O1172  O     0.96350   0.48148   0.99005   0.00000  Uiso   1.00
O1173  O     0.78925   0.47035   0.57825   0.00000  Uiso   1.00
O1174  O     0.84597   0.41352   0.78213   0.00000  Uiso   1.00
O1175  O     0.81298   0.59418   0.77014   0.00000  Uiso   1.00
O1176  O     0.74078   0.46625   0.73413   0.00000  Uiso   1.00
O1177  O     0.93360   0.52605   0.71360   0.00000  Uiso   1.00
O1178  O     0.73738   0.52211   0.78213   0.00000  Uiso   1.00
O1179  O     0.92158   0.48559   0.77013   0.00000  Uiso   1.00
O1180  O     0.80426   0.40277   0.73413   0.00000  Uiso   1.00
O1181  O     0.87012   0.58953   0.71361   0.00000  Uiso   1.00
Zn1182 Zn    0.86005   0.47327   0.78734   0.00000  Uiso   1.00
Zn1183 Zn    0.80046   0.45791   0.71876   0.00000  Uiso   1.00
Zn1184 Zn    0.87723   0.53109   0.70657   0.00000  Uiso   1.00
Zn1185 Zn    0.79560   0.53773   0.78734   0.00000  Uiso   1.00
C1186  C     0.05279   0.82649   0.76001   0.00000  Uiso   1.00
C1187  C     0.16586   0.81248   0.55700   0.00000  Uiso   1.00
C1188  C     0.23992   0.80979   0.55730   0.00000  Uiso   1.00
C1189  C     0.28087   0.84055   0.73992   0.00000  Uiso   1.00
C1190  C     0.13765   0.85612   0.92086   0.00000  Uiso   1.00
C1191  C     0.32685   0.84323   0.73563   0.00000  Uiso   1.00
C1192  C     0.00743   0.82434   0.76415   0.00000  Uiso   1.00
C1193  C     0.18015   0.98929   0.73655   0.00000  Uiso   1.00
C1194  C     0.15157   0.67908   0.76472   0.00000  Uiso   1.00
C1195  C     0.15632   0.72284   0.76016   0.00000  Uiso   1.00
C1196  C     0.17654   0.94464   0.74019   0.00000  Uiso   1.00
C1197  C     0.08420   0.86505   0.99207   0.00000  Uiso   1.00
C1198  C     0.18571   0.81512   0.62918   0.00000  Uiso   1.00
C1199  C     0.14853   0.85141   0.87108   0.00000  Uiso   1.00
C1200  C     0.25351   0.81467   0.51146   0.00000  Uiso   1.00
C1201  C     0.19651   0.80926   0.58026   0.00000  Uiso   1.00
C1202  C     0.09613   0.86532   0.94539   0.00000  Uiso   1.00
C1203  C     0.30413   0.77545   0.96753   0.00000  Uiso   1.00
C1204  C     0.31207   0.74608   0.99903   0.00000  Uiso   1.00
C1205  C     0.32636   0.70580   0.97354   0.00000  Uiso   1.00
C1206  C     0.11048   0.76022   0.57564   0.00000  Uiso   1.00
C1207  C     0.10083   0.74498   0.53039   0.00000  Uiso   1.00
C1208  C     0.11160   0.85324   0.51462   0.00000  Uiso   1.00
C1209  C     0.08274   0.69920   0.52960   0.00000  Uiso   1.00
C1210  C     0.15227   0.84139   0.99109   0.00000  Uiso   1.00
C1211  C     0.16692   0.84748   0.94444   0.00000  Uiso   1.00
C1212  C     0.18006   0.82644   0.51286   0.00000  Uiso   1.00
C1213  C     0.22425   0.82531   0.98949   0.00000  Uiso   1.00
C1214  C     0.23904   0.83614   0.94507   0.00000  Uiso   1.00
C1215  C     0.21091   0.84659   0.92283   0.00000  Uiso   1.00
H1216  H     0.26360   0.80702   0.57530   0.00000  Uiso   1.00
H1217  H     0.08769   0.66881   0.79412   0.00000  Uiso   1.00
H1218  H     0.11918   0.67699   0.83028   0.00000  Uiso   1.00
H1219  H     0.00015   0.78006   0.93926   0.00000  Uiso   1.00
H1220  H     0.27760   0.76100   0.95220   0.00000  Uiso   1.00
H1221  H     0.00399   0.76154   0.51535   0.00000  Uiso   1.00
H1222  H     0.28200   0.73848   0.52564   0.00000  Uiso   1.00
H1223  H     0.30176   0.69011   0.95646   0.00000  Uiso   1.00
H1224  H     0.33039   0.68469   0.99747   0.00000  Uiso   1.00
H1225  H     0.02427   0.71221   0.94816   0.00000  Uiso   1.00
H1226  H     0.08066   0.75350   0.60286   0.00000  Uiso   1.00
H1227  H     0.31881   0.80721   0.79107   0.00000  Uiso   1.00
H1228  H     0.13491   0.74249   0.58187   0.00000  Uiso   1.00
H1229  H     0.07719   0.76347   0.52420   0.00000  Uiso   1.00
H1230  H     0.13085   0.74911   0.50285   0.00000  Uiso   1.00
H1231  H     0.07751   0.68882   0.99600   0.00000  Uiso   1.00
H1232  H     0.05148   0.69434   0.55531   0.00000  Uiso   1.00
H1233  H     0.10572   0.68017   0.53625   0.00000  Uiso   1.00
H1234  H     0.03811   0.85343   0.93144   0.00000  Uiso   1.00
H1235  H     0.05710   0.90427   0.93559   0.00000  Uiso   1.00
H1236  H     0.27270   0.83668   0.92710   0.00000  Uiso   1.00
H1237  H     0.10091   0.85584   0.55075   0.00000  Uiso   1.00
H1238  H     0.05301   0.87348   0.51106   0.00000  Uiso   1.00
H1239  H     0.22477   0.85600   0.88905   0.00000  Uiso   1.00
H1240  H     0.01612   0.86052   0.70919   0.00000  Uiso   1.00
H1241  H     0.24381   0.66931   0.70739   0.00000  Uiso   1.00
H1242  H     0.21228   0.99433   0.67120   0.00000  Uiso   1.00
N1243  N     0.21472   0.67519   0.70243   0.00000  Uiso   1.00
N1244  N     0.11626   0.99531   0.79952   0.00000  Uiso   1.00
N1245  N     0.06574   0.87483   0.92312   0.00000  Uiso   1.00
O1246  O     0.16667   0.83333   0.75000   0.00000  Uiso   1.00
O1247  O     0.15451   0.79304   0.65458   0.00000  Uiso   1.00
O1248  O     0.12940   0.87058   0.84968   0.00000  Uiso   1.00
O1249  O     0.20824   0.84425   0.64606   0.00000  Uiso   1.00
O1250  O     0.17451   0.82546   0.84968   0.00000  Uiso   1.00
O1251  O     0.29683   0.81482   0.99005   0.00000  Uiso   1.00
O1252  O     0.12258   0.80368   0.57825   0.00000  Uiso   1.00
O1253  O     0.17930   0.74686   0.78213   0.00000  Uiso   1.00
O1254  O     0.14632   0.92751   0.77014   0.00000  Uiso   1.00
O1255  O     0.07412   0.79958   0.73413   0.00000  Uiso   1.00
O1256  O     0.26693   0.85939   0.71360   0.00000  Uiso   1.00
O1257  O     0.07071   0.85544   0.78213   0.00000  Uiso   1.00
O1258  O     0.25491   0.81892   0.77013   0.00000  Uiso   1.00
O1259  O     0.13760   0.73610   0.73413   0.00000  Uiso   1.00
O1260  O     0.20345   0.92286   0.71361   0.00000  Uiso   1.00
Zn1261 Zn    0.19338   0.80661   0.78734   0.00000  Uiso   1.00
Zn1262 Zn    0.13379   0.79124   0.71876   0.00000  Uiso   1.00
Zn1263 Zn    0.21056   0.86442   0.70657   0.00000  Uiso   1.00
Zn1264 Zn    0.12893   0.87106   0.78734   0.00000  Uiso   1.00
C1265  C     0.38612   0.82649   0.76001   0.00000  Uiso   1.00
C1266  C     0.49919   0.81248   0.55700   0.00000  Uiso   1.00
C1267  C     0.57326   0.80979   0.55730   0.00000  Uiso   1.00
C1268  C     0.61420   0.84055   0.73992   0.00000  Uiso   1.00
C1269  C     0.47098   0.85612   0.92086   0.00000  Uiso   1.00
C1270  C     0.66019   0.84323   0.73563   0.00000  Uiso   1.00
C1271  C     0.34077   0.82434   0.76415   0.00000  Uiso   1.00
C1272  C     0.51348   0.98929   0.73655   0.00000  Uiso   1.00
C1273  C     0.48490   0.67908   0.76472   0.00000  Uiso   1.00
C1274  C     0.48966   0.72284   0.76016   0.00000  Uiso   1.00
C1275  C     0.50988   0.94464   0.74019   0.00000  Uiso   1.00
C1276  C     0.41754   0.86505   0.99207   0.00000  Uiso   1.00
C1277  C     0.51904   0.81512   0.62918   0.00000  Uiso   1.00
C1278  C     0.48186   0.85141   0.87108   0.00000  Uiso   1.00
C1279  C     0.58684   0.81467   0.51146   0.00000  Uiso   1.00
C1280  C     0.52985   0.80926   0.58026   0.00000  Uiso   1.00
C1281  C     0.42947   0.86532   0.94539   0.00000  Uiso   1.00
C1282  C     0.63746   0.77545   0.96753   0.00000  Uiso   1.00
C1283  C     0.64541   0.74608   0.99903   0.00000  Uiso   1.00
C1284  C     0.65969   0.70580   0.97354   0.00000  Uiso   1.00
C1285  C     0.44381   0.76022   0.57564   0.00000  Uiso   1.00
C1286  C     0.43417   0.74498   0.53039   0.00000  Uiso   1.00
C1287  C     0.44493   0.85324   0.51462   0.00000  Uiso   1.00
C1288  C     0.41607   0.69920   0.52960   0.00000  Uiso   1.00
C1289  C     0.48560   0.84139   0.99109   0.00000  Uiso   1.00
C1290  C     0.50025   0.84748   0.94444   0.00000  Uiso   1.00
C1291  C     0.51339   0.82644   0.51286   0.00000  Uiso   1.00
C1292  C     0.55758   0.82531   0.98949   0.00000  Uiso   1.00
C1293  C     0.57237   0.83614   0.94507   0.00000  Uiso   1.00
C1294  C     0.54424   0.84659   0.92283   0.00000  Uiso   1.00
H1295  H     0.59693   0.80702   0.57530   0.00000  Uiso   1.00
H1296  H     0.42102   0.66881   0.79412   0.00000  Uiso   1.00
H1297  H     0.45252   0.67699   0.83028   0.00000  Uiso   1.00
H1298  H     0.33348   0.78006   0.93926   0.00000  Uiso   1.00
H1299  H     0.61094   0.76100   0.95220   0.00000  Uiso   1.00
H1300  H     0.33732   0.76154   0.51535   0.00000  Uiso   1.00
H1301  H     0.61534   0.73848   0.52564   0.00000  Uiso   1.00
H1302  H     0.63510   0.69011   0.95646   0.00000  Uiso   1.00
H1303  H     0.66372   0.68469   0.99747   0.00000  Uiso   1.00
H1304  H     0.35760   0.71221   0.94816   0.00000  Uiso   1.00
H1305  H     0.41399   0.75350   0.60286   0.00000  Uiso   1.00
H1306  H     0.65215   0.80721   0.79107   0.00000  Uiso   1.00
H1307  H     0.46825   0.74249   0.58187   0.00000  Uiso   1.00
H1308  H     0.41052   0.76347   0.52420   0.00000  Uiso   1.00
H1309  H     0.46418   0.74911   0.50285   0.00000  Uiso   1.00
H1310  H     0.41084   0.68882   0.99600   0.00000  Uiso   1.00
H1311  H     0.38481   0.69434   0.55531   0.00000  Uiso   1.00
H1312  H     0.43905   0.68017   0.53625   0.00000  Uiso   1.00
H1313  H     0.37145   0.85343   0.93144   0.00000  Uiso   1.00
H1314  H     0.39044   0.90427   0.93559   0.00000  Uiso   1.00
H1315  H     0.60603   0.83668   0.92710   0.00000  Uiso   1.00
H1316  H     0.43425   0.85584   0.55075   0.00000  Uiso   1.00
H1317  H     0.38634   0.87348   0.51106   0.00000  Uiso   1.00
H1318  H     0.55811   0.85600   0.88905   0.00000  Uiso   1.00
H1319  H     0.34945   0.86052   0.70919   0.00000  Uiso   1.00
H1320  H     0.57714   0.66931   0.70739   0.00000  Uiso   1.00
H1321  H     0.54561   0.99433   0.67120   0.00000  Uiso   1.00
N1322  N     0.54805   0.67519   0.70243   0.00000  Uiso   1.00
N1323  N     0.44959   0.99531   0.79952   0.00000  Uiso   1.00
N1324  N     0.39907   0.87483   0.92312   0.00000  Uiso   1.00
O1325  O     0.50000   0.83333   0.75000   0.00000  Uiso   1.00
O1326  O     0.48784   0.79304   0.65458   0.00000  Uiso   1.00
O1327  O     0.46274   0.87058   0.84968   0.00000  Uiso   1.00
O1328  O     0.54157   0.84425   0.64606   0.00000  Uiso   1.00
O1329  O     0.50785   0.82546   0.84968   0.00000  Uiso   1.00
O1330  O     0.63016   0.81482   0.99005   0.00000  Uiso   1.00
O1331  O     0.45591   0.80368   0.57825   0.00000  Uiso   1.00
O1332  O     0.51264   0.74686   0.78213   0.00000  Uiso   1.00
O1333  O     0.47965   0.92751   0.77014   0.00000  Uiso   1.00
O1334  O     0.40745   0.79958   0.73413   0.00000  Uiso   1.00
O1335  O     0.60026   0.85939   0.71360   0.00000  Uiso   1.00
O1336  O     0.40405   0.85544   0.78213   0.00000  Uiso   1.00
O1337  O     0.58824   0.81892   0.77013   0.00000  Uiso   1.00
O1338  O     0.47093   0.73610   0.73413   0.00000  Uiso   1.00
O1339  O     0.53678   0.92286   0.71361   0.00000  Uiso   1.00
Zn1340 Zn    0.52672   0.80661   0.78734   0.00000  Uiso   1.00
Zn1341 Zn    0.46713   0.79124   0.71876   0.00000  Uiso   1.00
Zn1342 Zn    0.54389   0.86442   0.70657   0.00000  Uiso   1.00
Zn1343 Zn    0.46226   0.87106   0.78734   0.00000  Uiso   1.00
C1344  C     0.71946   0.82649   0.76001   0.00000  Uiso   1.00
C1345  C     0.83252   0.81248   0.55700   0.00000  Uiso   1.00
C1346  C     0.90659   0.80979   0.55730   0.00000  Uiso   1.00
C1347  C     0.94754   0.84055   0.73992   0.00000  Uiso   1.00
C1348  C     0.80432   0.85612   0.92086   0.00000  Uiso   1.00
C1349  C     0.99352   0.84323   0.73563   0.00000  Uiso   1.00
C1350  C     0.67410   0.82434   0.76415   0.00000  Uiso   1.00
C1351  C     0.84681   0.98929   0.73655   0.00000  Uiso   1.00
C1352  C     0.81823   0.67908   0.76472   0.00000  Uiso   1.00
C1353  C     0.82299   0.72284   0.76016   0.00000  Uiso   1.00
C1354  C     0.84321   0.94464   0.74019   0.00000  Uiso   1.00
C1355  C     0.75087   0.86505   0.99207   0.00000  Uiso   1.00
C1356  C     0.85237   0.81512   0.62918   0.00000  Uiso   1.00
C1357  C     0.81519   0.85141   0.87108   0.00000  Uiso   1.00
C1358  C     0.92018   0.81467   0.51146   0.00000  Uiso   1.00
C1359  C     0.86318   0.80926   0.58026   0.00000  Uiso   1.00
C1360  C     0.76280   0.86532   0.94539   0.00000  Uiso   1.00
C1361  C     0.97080   0.77545   0.96753   0.00000  Uiso   1.00
C1362  C     0.97874   0.74608   0.99903   0.00000  Uiso   1.00
C1363  C     0.99303   0.70580   0.97354   0.00000  Uiso   1.00
C1364  C     0.77715   0.76022   0.57564   0.00000  Uiso   1.00
C1365  C     0.76750   0.74498   0.53039   0.00000  Uiso   1.00
C1366  C     0.77826   0.85324   0.51462   0.00000  Uiso   1.00
C1367  C     0.74941   0.69920   0.52960   0.00000  Uiso   1.00
C1368  C     0.81893   0.84139   0.99109   0.00000  Uiso   1.00
C1369  C     0.83359   0.84748   0.94444   0.00000  Uiso   1.00
C1370  C     0.84673   0.82644   0.51286   0.00000  Uiso   1.00
C1371  C     0.89092   0.82531   0.98949   0.00000  Uiso   1.00
C1372  C     0.90570   0.83614   0.94507   0.00000  Uiso   1.00
C1373  C     0.87757   0.84659   0.92283   0.00000  Uiso   1.00
H1374  H     0.93026   0.80702   0.57530   0.00000  Uiso   1.00
H1375  H     0.75436   0.66881   0.79412   0.00000  Uiso   1.00
H1376  H     0.78585   0.67699   0.83028   0.00000  Uiso   1.00
H1377  H     0.66681   0.78006   0.93926   0.00000  Uiso   1.00
H1378  H     0.94427   0.76100   0.95220   0.00000  Uiso   1.00
H1379  H     0.67065   0.76154   0.51535   0.00000  Uiso   1.00
H1380  H     0.94867   0.73848   0.52564   0.00000  Uiso   1.00
H1381  H     0.96843   0.69011   0.95646   0.00000  Uiso   1.00
H1382  H     0.99706   0.68469   0.99747   0.00000  Uiso   1.00
H1383  H     0.69093   0.71221   0.94816   0.00000  Uiso   1.00
H1384  H     0.74732   0.75350   0.60286   0.00000  Uiso   1.00
H1385  H     0.98548   0.80721   0.79107   0.00000  Uiso   1.00
H1386  H     0.80158   0.74249   0.58187   0.00000  Uiso   1.00
H1387  H     0.74385   0.76347   0.52420   0.00000  Uiso   1.00
H1388  H     0.79751   0.74911   0.50285   0.00000  Uiso   1.00
H1389  H     0.74418   0.68882   0.99600   0.00000  Uiso   1.00
H1390  H     0.71815   0.69434   0.55531   0.00000  Uiso   1.00
H1391  H     0.77239   0.68017   0.53625   0.00000  Uiso   1.00
H1392  H     0.70478   0.85343   0.93144   0.00000  Uiso   1.00
H1393  H     0.72377   0.90427   0.93559   0.00000  Uiso   1.00
H1394  H     0.93936   0.83668   0.92710   0.00000  Uiso   1.00
H1395  H     0.76758   0.85584   0.55075   0.00000  Uiso   1.00
H1396  H     0.71967   0.87348   0.51106   0.00000  Uiso   1.00
H1397  H     0.89144   0.85600   0.88905   0.00000  Uiso   1.00
H1398  H     0.68278   0.86052   0.70919   0.00000  Uiso   1.00
H1399  H     0.91048   0.66931   0.70739   0.00000  Uiso   1.00
H1400  H     0.87895   0.99433   0.67120   0.00000  Uiso   1.00
N1401  N     0.88139   0.67519   0.70243   0.00000  Uiso   1.00
N1402  N     0.78293   0.99531   0.79952   0.00000  Uiso   1.00
N1403  N     0.73240   0.87483   0.92312   0.00000  Uiso   1.00
O1404  O     0.83333   0.83333   0.75000   0.00000  Uiso   1.00
O1405  O     0.82118   0.79304   0.65458   0.00000  Uiso   1.00
O1406  O     0.79607   0.87058   0.84968   0.00000  Uiso   1.00
O1407  O     0.87491   0.84425   0.64606   0.00000  Uiso   1.00
O1408  O     0.84118   0.82546   0.84968   0.00000  Uiso   1.00
O1409  O     0.96350   0.81482   0.99005   0.00000  Uiso   1.00
O1410  O     0.78925   0.80368   0.57825   0.00000  Uiso   1.00
O1411  O     0.84597   0.74686   0.78213   0.00000  Uiso   1.00
O1412  O     0.81298   0.92751   0.77014   0.00000  Uiso   1.00
O1413  O     0.74078   0.79958   0.73413   0.00000  Uiso   1.00
O1414  O     0.93360   0.85939   0.71360   0.00000  Uiso   1.00
O1415  O     0.73738   0.85544   0.78213   0.00000  Uiso   1.00
O1416  O     0.92158   0.81892   0.77013   0.00000  Uiso   1.00
O1417  O     0.80426   0.73610   0.73413   0.00000  Uiso   1.00
O1418  O     0.87012   0.92286   0.71361   0.00000  Uiso   1.00
Zn1419 Zn    0.86005   0.80661   0.78734   0.00000  Uiso   1.00
Zn1420 Zn    0.80046   0.79124   0.71876   0.00000  Uiso   1.00
Zn1421 Zn    0.87723   0.86442   0.70657   0.00000  Uiso   1.00
Zn1422 Zn    0.79560   0.87106   0.78734   0.00000  Uiso   1.00
loop_
_geom_bond_atom_site_label_1
_geom_bond_atom_site_label_2
_geom_bond_distance
_geom_bond_site_symmetry_2
_ccdc_geom_bond_type
C1     O72     1.273   .     A
C1     C7      1.437   .     S
C1     O70     1.274   .     A
C2     C27     1.422   .     A
C2     C16     1.400   .     A
C2     O67     1.384   .     S
C3     H31     1.084   .     S
C3     C15     1.389   .     A
C3     C16     1.396   .     A
C4     C6      1.455   .     S
C4     O73     1.276   .     A
C4     O71     1.280   .     A
C5     C17     1.415   .     A
C5     C14     1.483   .     S
C5     C26     1.421   .     A
C6     C86     1.335   .     S
C6     H134    1.088   .     S
C7     C164    1.335   1_455 S
C7     H200    1.086   1_455 S
C8     C11     1.461   .     S
C8     C246    1.349   .     S
C8     N295    1.439   .     S
C9     C10     1.434   .     S
C9     C482    1.349   1_545 S
C9     N533    1.437   1_545 S
C10    O68     1.276   .     A
C10    O74     1.276   .     A
C11    O69     1.264   .     A
C11    O75     1.271   .     A
C12    C17     1.394   .     A
C12    C734    1.388   .     S
C12    H764    1.083   .     S
C13    O62     1.283   .     A
C13    O64     1.270   .     A
C13    C16     1.459   .     S
C14    O63     1.283   .     A
C14    O65     1.287   .     A
C15    C739    1.410   1_554 S
C15    O777    1.384   1_554 S
C17    N60     1.433   .     S
C18    C19     1.533   .     S
C18    H35     1.117   .     S
C18    O66     1.416   .     S
C18    H113    1.111   .     S
C19    C20     1.526   .     S
C19    H826    1.111   .     S
C19    H748    1.111   .     S
C20    H38     1.111   .     S
C20    H39     1.110   .     S
C20    H119    1.111   .     S
C21    H43     1.116   .     S
C21    C22     1.535   .     S
C21    O67     1.417   .     S
C21    H41     1.111   .     S
C22    H44     1.110   .     S
C22    C24     1.525   .     S
C22    H45     1.111   .     S
C23    H52     1.077   .     S
C23    C723    1.388   1_554 S
C23    C736    1.413   1_554 S
C24    H48     1.111   .     S
C24    H47     1.111   .     S
C24    H757    1.110   1_554 S
C25    C26     1.421   .     A
C25    C734    1.413   .     S
C25    C738    1.428   .     S
C26    C30     1.408   .     A
C27    C736    1.428   1_554 S
C27    C739    1.427   1_554 S
C28    C29     1.396   .     A
C28    C726    1.410   .     S
C28    C738    1.427   .     S
C29    C30     1.382   .     A
C29    H51     1.083   .     S
C30    H54     1.080   .     S
H32    N533    1.046   1_545 S
H33    N533    1.046   1_545 S
H34    C176    1.111   1_455 S
H36    C888    1.111   1_454 S
H37    C730    1.111   1_554 S
H40    C178    1.111   1_455 S
H42    C86     1.086   .     S
H46    C735    1.110   .     S
H49    N60     1.045   .     S
H50    N60     1.046   .     S
H53    C723    1.083   1_554 S
H55    C164    1.088   1_455 S
H56    N58     1.045   .     S
H57    N295    1.045   .     S
N58    H531    1.045   1_545 S
N58    C482    1.439   1_545 S
N59    H270    1.046   .     S
N59    H269    1.046   .     S
N59    C246    1.437   .     S
O61    Zn77    1.954   .     S
O61    Zn76    1.960   .     S
O61    Zn78    1.926   .     S
O61    Zn79    1.931   .     S
O62    Zn77    1.924   .     S
O63    Zn79    1.939   .     S
O64    Zn78    1.938   .     S
O65    Zn76    1.924   .     S
O66    C726    1.384   .     S
O68    Zn76    1.939   .     S
O69    Zn79    1.937   .     S
O70    Zn77    1.921   .     S
O71    Zn78    1.935   .     S
O72    Zn79    1.932   .     S
O73    Zn76    1.918   .     S
O74    Zn77    1.942   .     S
O75    Zn78    1.939   .     S
C80    O151    1.273   .     A
C80    C86     1.437   .     S
C80    O149    1.274   .     A
C81    C106    1.422   .     A
C81    C95     1.400   .     A
C81    O146    1.384   .     S
C82    H110    1.084   .     S
C82    C94     1.389   .     A
C82    C95     1.396   .     A
C83    C85     1.455   .     S
C83    O152    1.276   .     A
C83    O150    1.280   .     A
C84    C96     1.415   .     A
C84    C93     1.483   .     S
C84    C105    1.421   .     A
C85    C165    1.335   .     S
C85    H213    1.088   .     S
C87    C90     1.461   .     S
C87    C325    1.349   .     S
C87    N374    1.439   .     S
C88    C89     1.434   .     S
C88    C561    1.349   1_545 S
C88    N612    1.437   1_545 S
C89    O147    1.276   .     A
C89    O153    1.276   .     A
C90    O148    1.264   .     A
C90    O154    1.271   .     A
C91    C96     1.394   .     A
C91    C813    1.388   .     S
C91    H843    1.083   .     S
C92    O141    1.283   .     A
C92    O143    1.270   .     A
C92    C95     1.459   .     S
C93    O142    1.283   .     A
C93    O144    1.287   .     A
C94    C818    1.410   1_554 S
C94    O856    1.384   1_554 S
C96    N139    1.433   .     S
C97    C98     1.533   .     S
C97    H114    1.117   .     S
C97    O145    1.416   .     S
C97    H192    1.111   .     S
C98    C99     1.526   .     S
C98    H905    1.111   .     S
C98    H827    1.111   .     S
C99    H117    1.111   .     S
C99    H118    1.110   .     S
C99    H198    1.111   .     S
C100   H122    1.116   .     S
C100   C101    1.535   .     S
C100   O146    1.417   .     S
C100   H120    1.111   .     S
C101   H123    1.110   .     S
C101   C103    1.525   .     S
C101   H124    1.111   .     S
C102   H131    1.077   .     S
C102   C802    1.388   1_554 S
C102   C815    1.413   1_554 S
C103   H127    1.111   .     S
C103   H126    1.111   .     S
C103   H836    1.110   1_554 S
C104   C105    1.421   .     A
C104   C813    1.413   .     S
C104   C817    1.428   .     S
C105   C109    1.408   .     A
C106   C815    1.428   1_554 S
C106   C818    1.427   1_554 S
C107   C108    1.396   .     A
C107   C805    1.410   .     S
C107   C817    1.427   .     S
C108   C109    1.382   .     A
C108   H130    1.083   .     S
C109   H133    1.080   .     S
H111   N612    1.046   1_545 S
H112   N612    1.046   1_545 S
H115   C730    1.111   1_554 S
H116   C809    1.111   1_554 S
H121   C165    1.086   .     S
H125   C814    1.110   .     S
H128   N139    1.045   .     S
H129   N139    1.046   .     S
H132   C802    1.083   1_554 S
H135   N137    1.045   .     S
H136   N374    1.045   .     S
N137   H610    1.045   1_545 S
N137   C561    1.439   1_545 S
N138   H349    1.046   .     S
N138   H348    1.046   .     S
N138   C325    1.437   .     S
O140   Zn156   1.954   .     S
O140   Zn155   1.960   .     S
O140   Zn157   1.926   .     S
O140   Zn158   1.931   .     S
O141   Zn156   1.924   .     S
O142   Zn158   1.939   .     S
O143   Zn157   1.938   .     S
O144   Zn155   1.924   .     S
O145   C805    1.384   .     S
O147   Zn155   1.939   .     S
O148   Zn158   1.937   .     S
O149   Zn156   1.921   .     S
O150   Zn157   1.935   .     S
O151   Zn158   1.932   .     S
O152   Zn155   1.918   .     S
O153   Zn156   1.942   .     S
O154   Zn157   1.939   .     S
C159   O230    1.273   .     A
C159   C165    1.437   .     S
C159   O228    1.274   .     A
C160   C185    1.422   .     A
C160   C174    1.400   .     A
C160   O225    1.384   .     S
C161   H189    1.084   .     S
C161   C173    1.389   .     A
C161   C174    1.396   .     A
C162   C164    1.455   .     S
C162   O231    1.276   .     A
C162   O229    1.280   .     A
C163   C175    1.415   .     A
C163   C172    1.483   .     S
C163   C184    1.421   .     A
C164   C7      1.335   1_655 S
C164   H55     1.088   1_655 S
C166   C169    1.461   .     S
C166   C404    1.349   .     S
C166   N453    1.439   .     S
C167   C168    1.434   .     S
C167   C640    1.349   1_545 S
C167   N691    1.437   1_545 S
C168   O226    1.276   .     A
C168   O232    1.276   .     A
C169   O227    1.264   .     A
C169   O233    1.271   .     A
C170   C175    1.394   .     A
C170   C892    1.388   .     S
C170   H922    1.083   .     S
C171   O220    1.283   .     A
C171   O222    1.270   .     A
C171   C174    1.459   .     S
C172   O221    1.283   .     A
C172   O223    1.287   .     A
C173   C897    1.410   1_554 S
C173   O935    1.384   1_554 S
C175   N218    1.433   .     S
C176   C177    1.533   .     S
C176   H193    1.117   .     S
C176   O224    1.416   .     S
C176   H34     1.111   1_655 S
C177   C178    1.526   .     S
C177   H747    1.111   1_655 S
C177   H906    1.111   .     S
C178   H196    1.111   .     S
C178   H197    1.110   .     S
C178   H40     1.111   1_655 S
C179   H201    1.116   .     S
C179   C180    1.535   .     S
C179   O225    1.417   .     S
C179   H199    1.111   .     S
C180   H202    1.110   .     S
C180   C182    1.525   .     S
C180   H203    1.111   .     S
C181   H210    1.077   .     S
C181   C881    1.388   1_554 S
C181   C894    1.413   1_554 S
C182   H206    1.111   .     S
C182   H205    1.111   .     S
C182   H915    1.110   1_554 S
C183   C184    1.421   .     A
C183   C892    1.413   .     S
C183   C896    1.428   .     S
C184   C188    1.408   .     A
C185   C894    1.428   1_554 S
C185   C897    1.427   1_554 S
C186   C187    1.396   .     A
C186   C884    1.410   .     S
C186   C896    1.427   .     S
C187   C188    1.382   .     A
C187   H209    1.083   .     S
C188   H212    1.080   .     S
H190   N691    1.046   1_545 S
H191   N691    1.046   1_545 S
H194   C809    1.111   1_554 S
H195   C888    1.111   1_554 S
H200   C7      1.086   1_655 S
H204   C893    1.110   .     S
H207   N218    1.045   .     S
H208   N218    1.046   .     S
H211   C881    1.083   1_554 S
H214   N216    1.045   .     S
H215   N453    1.045   .     S
N216   H689    1.045   1_545 S
N216   C640    1.439   1_545 S
N217   H428    1.046   .     S
N217   H427    1.046   .     S
N217   C404    1.437   .     S
O219   Zn235   1.954   .     S
O219   Zn234   1.960   .     S
O219   Zn236   1.926   .     S
O219   Zn237   1.931   .     S
O220   Zn235   1.924   .     S
O221   Zn237   1.939   .     S
O222   Zn236   1.938   .     S
O223   Zn234   1.924   .     S
O224   C884    1.384   .     S
O226   Zn234   1.939   .     S
O227   Zn237   1.937   .     S
O228   Zn235   1.921   .     S
O229   Zn236   1.935   .     S
O230   Zn237   1.932   .     S
O231   Zn234   1.918   .     S
O232   Zn235   1.942   .     S
O233   Zn236   1.939   .     S
C238   O309    1.273   .     A
C238   C244    1.437   .     S
C238   O307    1.274   .     A
C239   C264    1.422   .     A
C239   C253    1.400   .     A
C239   O304    1.384   .     S
C240   H268    1.084   .     S
C240   C252    1.389   .     A
C240   C253    1.396   .     A
C241   C243    1.455   .     S
C241   O310    1.276   .     A
C241   O308    1.280   .     A
C242   C254    1.415   .     A
C242   C251    1.483   .     S
C242   C263    1.421   .     A
C243   C323    1.335   .     S
C243   H371    1.088   .     S
C244   C401    1.335   1_455 S
C244   H437    1.086   1_455 S
C245   C248    1.461   .     S
C245   C483    1.349   .     S
C245   N532    1.439   .     S
C246   C247    1.434   .     S
C247   O305    1.276   .     A
C247   O311    1.276   .     A
C248   O306    1.264   .     A
C248   O312    1.271   .     A
C249   C254    1.394   .     A
C249   C971    1.388   .     S
C249   H1001   1.083   .     S
C250   O299    1.283   .     A
C250   O301    1.270   .     A
C250   C253    1.459   .     S
C251   O300    1.283   .     A
C251   O302    1.287   .     A
C252   C976    1.410   1_554 S
C252   O1014   1.384   1_554 S
C254   N297    1.433   .     S
C255   C256    1.533   .     S
C255   H272    1.117   .     S
C255   O303    1.416   .     S
C255   H350    1.111   .     S
C256   C257    1.526   .     S
C256   H1063   1.111   .     S
C256   H985    1.111   .     S
C257   H275    1.111   .     S
C257   H276    1.110   .     S
C257   H356    1.111   .     S
C258   H280    1.116   .     S
C258   C259    1.535   .     S
C258   O304    1.417   .     S
C258   H278    1.111   .     S
C259   H281    1.110   .     S
C259   C261    1.525   .     S
C259   H282    1.111   .     S
C260   H289    1.077   .     S
C260   C960    1.388   1_554 S
C260   C973    1.413   1_554 S
C261   H285    1.111   .     S
C261   H284    1.111   .     S
C261   H994    1.110   1_554 S
C262   C263    1.421   .     A
C262   C971    1.413   .     S
C262   C975    1.428   .     S
C263   C267    1.408   .     A
C264   C973    1.428   1_554 S
C264   C976    1.427   1_554 S
C265   C266    1.396   .     A
C265   C963    1.410   .     S
C265   C975    1.427   .     S
C266   C267    1.382   .     A
C266   H288    1.083   .     S
C267   H291    1.080   .     S
H271   C413    1.111   1_455 S
H273   C1125   1.111   1_454 S
H274   C967    1.111   1_554 S
H277   C415    1.111   1_455 S
H279   C323    1.086   .     S
H283   C972    1.110   .     S
H286   N297    1.045   .     S
H287   N297    1.046   .     S
H290   C960    1.083   1_554 S
H292   C401    1.088   1_455 S
H293   N295    1.045   .     S
H294   N532    1.045   .     S
N296   H507    1.046   .     S
N296   H506    1.046   .     S
N296   C483    1.437   .     S
O298   Zn314   1.954   .     S
O298   Zn313   1.960   .     S
O298   Zn315   1.926   .     S
O298   Zn316   1.931   .     S
O299   Zn314   1.924   .     S
O300   Zn316   1.939   .     S
O301   Zn315   1.938   .     S
O302   Zn313   1.924   .     S
O303   C963    1.384   .     S
O305   Zn313   1.939   .     S
O306   Zn316   1.937   .     S
O307   Zn314   1.921   .     S
O308   Zn315   1.935   .     S
O309   Zn316   1.932   .     S
O310   Zn313   1.918   .     S
O311   Zn314   1.942   .     S
O312   Zn315   1.939   .     S
C317   O388    1.273   .     A
C317   C323    1.437   .     S
C317   O386    1.274   .     A
C318   C343    1.422   .     A
C318   C332    1.400   .     A
C318   O383    1.384   .     S
C319   H347    1.084   .     S
C319   C331    1.389   .     A
C319   C332    1.396   .     A
C320   C322    1.455   .     S
C320   O389    1.276   .     A
C320   O387    1.280   .     A
C321   C333    1.415   .     A
C321   C330    1.483   .     S
C321   C342    1.421   .     A
C322   C402    1.335   .     S
C322   H450    1.088   .     S
C324   C327    1.461   .     S
C324   C562    1.349   .     S
C324   N611    1.439   .     S
C325   C326    1.434   .     S
C326   O384    1.276   .     A
C326   O390    1.276   .     A
C327   O385    1.264   .     A
C327   O391    1.271   .     A
C328   C333    1.394   .     A
C328   C1050   1.388   .     S
C328   H1080   1.083   .     S
C329   O378    1.283   .     A
C329   O380    1.270   .     A
C329   C332    1.459   .     S
C330   O379    1.283   .     A
C330   O381    1.287   .     A
C331   C1055   1.410   1_554 S
C331   O1093   1.384   1_554 S
C333   N376    1.433   .     S
C334   C335    1.533   .     S
C334   H351    1.117   .     S
C334   O382    1.416   .     S
C334   H429    1.111   .     S
C335   C336    1.526   .     S
C335   H1142   1.111   .     S
C335   H1064   1.111   .     S
C336   H354    1.111   .     S
C336   H355    1.110   .     S
C336   H435    1.111   .     S
C337   H359    1.116   .     S
C337   C338    1.535   .     S
C337   O383    1.417   .     S
C337   H357    1.111   .     S
C338   H360    1.110   .     S
C338   C340    1.525   .     S
C338   H361    1.111   .     S
C339   H368    1.077   .     S
C339   C1039   1.388   1_554 S
C339   C1052   1.413   1_554 S
C340   H364    1.111   .     S
C340   H363    1.111   .     S
C340   H1073   1.110   1_554 S
C341   C342    1.421   .     A
C341   C1050   1.413   .     S
C341   C1054   1.428   .     S
C342   C346    1.408   .     A
C343   C1052   1.428   1_554 S
C343   C1055   1.427   1_554 S
C344   C345    1.396   .     A
C344   C1042   1.410   .     S
C344   C1054   1.427   .     S
C345   C346    1.382   .     A
C345   H367    1.083   .     S
C346   H370    1.080   .     S
H352   C967    1.111   1_554 S
H353   C1046   1.111   1_554 S
H358   C402    1.086   .     S
H362   C1051   1.110   .     S
H365   N376    1.045   .     S
H366   N376    1.046   .     S
H369   C1039   1.083   1_554 S
H372   N374    1.045   .     S
H373   N611    1.045   .     S
N375   H586    1.046   .     S
N375   H585    1.046   .     S
N375   C562    1.437   .     S
O377   Zn393   1.954   .     S
O377   Zn392   1.960   .     S
O377   Zn394   1.926   .     S
O377   Zn395   1.931   .     S
O378   Zn393   1.924   .     S
O379   Zn395   1.939   .     S
O380   Zn394   1.938   .     S
O381   Zn392   1.924   .     S
O382   C1042   1.384   .     S
O384   Zn392   1.939   .     S
O385   Zn395   1.937   .     S
O386   Zn393   1.921   .     S
O387   Zn394   1.935   .     S
O388   Zn395   1.932   .     S
O389   Zn392   1.918   .     S
O390   Zn393   1.942   .     S
O391   Zn394   1.939   .     S
C396   O467    1.273   .     A
C396   C402    1.437   .     S
C396   O465    1.274   .     A
C397   C422    1.422   .     A
C397   C411    1.400   .     A
C397   O462    1.384   .     S
C398   H426    1.084   .     S
C398   C410    1.389   .     A
C398   C411    1.396   .     A
C399   C401    1.455   .     S
C399   O468    1.276   .     A
C399   O466    1.280   .     A
C400   C412    1.415   .     A
C400   C409    1.483   .     S
C400   C421    1.421   .     A
C401   C244    1.335   1_655 S
C401   H292    1.088   1_655 S
C403   C406    1.461   .     S
C403   C641    1.349   .     S
C403   N690    1.439   .     S
C404   C405    1.434   .     S
C405   O463    1.276   .     A
C405   O469    1.276   .     A
C406   O464    1.264   .     A
C406   O470    1.271   .     A
C407   C412    1.394   .     A
C407   C1129   1.388   .     S
C407   H1159   1.083   .     S
C408   O457    1.283   .     A
C408   O459    1.270   .     A
C408   C411    1.459   .     S
C409   O458    1.283   .     A
C409   O460    1.287   .     A
C410   C1134   1.410   1_554 S
C410   O1172   1.384   1_554 S
C412   N455    1.433   .     S
C413   C414    1.533   .     S
C413   H430    1.117   .     S
C413   O461    1.416   .     S
C413   H271    1.111   1_655 S
C414   C415    1.526   .     S
C414   H984    1.111   1_655 S
C414   H1143   1.111   .     S
C415   H433    1.111   .     S
C415   H434    1.110   .     S
C415   H277    1.111   1_655 S
C416   H438    1.116   .     S
C416   C417    1.535   .     S
C416   O462    1.417   .     S
C416   H436    1.111   .     S
C417   H439    1.110   .     S
C417   C419    1.525   .     S
C417   H440    1.111   .     S
C418   H447    1.077   .     S
C418   C1118   1.388   1_554 S
C418   C1131   1.413   1_554 S
C419   H443    1.111   .     S
C419   H442    1.111   .     S
C419   H1152   1.110   1_554 S
C420   C421    1.421   .     A
C420   C1129   1.413   .     S
C420   C1133   1.428   .     S
C421   C425    1.408   .     A
C422   C1131   1.428   1_554 S
C422   C1134   1.427   1_554 S
C423   C424    1.396   .     A
C423   C1121   1.410   .     S
C423   C1133   1.427   .     S
C424   C425    1.382   .     A
C424   H446    1.083   .     S
C425   H449    1.080   .     S
H431   C1046   1.111   1_554 S
H432   C1125   1.111   1_554 S
H437   C244    1.086   1_655 S
H441   C1130   1.110   .     S
H444   N455    1.045   .     S
H445   N455    1.046   .     S
H448   C1118   1.083   1_554 S
H451   N453    1.045   .     S
H452   N690    1.045   .     S
N454   H665    1.046   .     S
N454   H664    1.046   .     S
N454   C641    1.437   .     S
O456   Zn472   1.954   .     S
O456   Zn471   1.960   .     S
O456   Zn473   1.926   .     S
O456   Zn474   1.931   .     S
O457   Zn472   1.924   .     S
O458   Zn474   1.939   .     S
O459   Zn473   1.938   .     S
O460   Zn471   1.924   .     S
O461   C1121   1.384   .     S
O463   Zn471   1.939   .     S
O464   Zn474   1.937   .     S
O465   Zn472   1.921   .     S
O466   Zn473   1.935   .     S
O467   Zn474   1.932   .     S
O468   Zn471   1.918   .     S
O469   Zn472   1.942   .     S
O470   Zn473   1.939   .     S
C475   O546    1.273   .     A
C475   C481    1.437   .     S
C475   O544    1.274   .     A
C476   C501    1.422   .     A
C476   C490    1.400   .     A
C476   O541    1.384   .     S
C477   H505    1.084   .     S
C477   C489    1.389   .     A
C477   C490    1.396   .     A
C478   C480    1.455   .     S
C478   O547    1.276   .     A
C478   O545    1.280   .     A
C479   C491    1.415   .     A
C479   C488    1.483   .     S
C479   C500    1.421   .     A
C480   C560    1.335   .     S
C480   H608    1.088   .     S
C481   C638    1.335   1_455 S
C481   H674    1.086   1_455 S
C482   C485    1.461   .     S
C482   C9      1.349   1_565 S
C482   N58     1.439   1_565 S
C483   C484    1.434   .     S
C484   O542    1.276   .     A
C484   O548    1.276   .     A
C485   O543    1.264   .     A
C485   O549    1.271   .     A
C486   C491    1.394   .     A
C486   C1208   1.388   .     S
C486   H1238   1.083   .     S
C487   O536    1.283   .     A
C487   O538    1.270   .     A
C487   C490    1.459   .     S
C488   O537    1.283   .     A
C488   O539    1.287   .     A
C489   C1213   1.410   1_554 S
C489   O1251   1.384   1_554 S
C491   N534    1.433   .     S
C492   C493    1.533   .     S
C492   H509    1.117   .     S
C492   O540    1.416   .     S
C492   H587    1.111   .     S
C493   C494    1.526   .     S
C493   H1300   1.111   .     S
C493   H1222   1.111   .     S
C494   H512    1.111   .     S
C494   H513    1.110   .     S
C494   H593    1.111   .     S
C495   H517    1.116   .     S
C495   C496    1.535   .     S
C495   O541    1.417   .     S
C495   H515    1.111   .     S
C496   H518    1.110   .     S
C496   C498    1.525   .     S
C496   H519    1.111   .     S
C497   H526    1.077   .     S
C497   C1197   1.388   1_554 S
C497   C1210   1.413   1_554 S
C498   H522    1.111   .     S
C498   H521    1.111   .     S
C498   H1231   1.110   1_554 S
C499   C500    1.421   .     A
C499   C1208   1.413   .     S
C499   C1212   1.428   .     S
C500   C504    1.408   .     A
C501   C1210   1.428   1_554 S
C501   C1213   1.427   1_554 S
C502   C503    1.396   .     A
C502   C1200   1.410   .     S
C502   C1212   1.427   .     S
C503   C504    1.382   .     A
C503   H525    1.083   .     S
C504   H528    1.080   .     S
H508   C650    1.111   1_455 S
H510   C1362   1.111   1_454 S
H511   C1204   1.111   1_554 S
H514   C652    1.111   1_455 S
H516   C560    1.086   .     S
H520   C1209   1.110   .     S
H523   N534    1.045   .     S
H524   N534    1.046   .     S
H527   C1197   1.083   1_554 S
H529   C638    1.088   1_455 S
H530   N532    1.045   .     S
H531   N58     1.045   1_565 S
N533   H33     1.046   1_565 S
N533   H32     1.046   1_565 S
N533   C9      1.437   1_565 S
O535   Zn551   1.954   .     S
O535   Zn550   1.960   .     S
O535   Zn552   1.926   .     S
O535   Zn553   1.931   .     S
O536   Zn551   1.924   .     S
O537   Zn553   1.939   .     S
O538   Zn552   1.938   .     S
O539   Zn550   1.924   .     S
O540   C1200   1.384   .     S
O542   Zn550   1.939   .     S
O543   Zn553   1.937   .     S
O544   Zn551   1.921   .     S
O545   Zn552   1.935   .     S
O546   Zn553   1.932   .     S
O547   Zn550   1.918   .     S
O548   Zn551   1.942   .     S
O549   Zn552   1.939   .     S
C554   O625    1.273   .     A
C554   C560    1.437   .     S
C554   O623    1.274   .     A
C555   C580    1.422   .     A
C555   C569    1.400   .     A
C555   O620    1.384   .     S
C556   H584    1.084   .     S
C556   C568    1.389   .     A
C556   C569    1.396   .     A
C557   C559    1.455   .     S
C557   O626    1.276   .     A
C557   O624    1.280   .     A
C558   C570    1.415   .     A
C558   C567    1.483   .     S
C558   C579    1.421   .     A
C559   C639    1.335   .     S
C559   H687    1.088   .     S
C561   C564    1.461   .     S
C561   C88     1.349   1_565 S
C561   N137    1.439   1_565 S
C562   C563    1.434   .     S
C563   O621    1.276   .     A
C563   O627    1.276   .     A
C564   O622    1.264   .     A
C564   O628    1.271   .     A
C565   C570    1.394   .     A
C565   C1287   1.388   .     S
C565   H1317   1.083   .     S
C566   O615    1.283   .     A
C566   O617    1.270   .     A
C566   C569    1.459   .     S
C567   O616    1.283   .     A
C567   O618    1.287   .     A
C568   C1292   1.410   1_554 S
C568   O1330   1.384   1_554 S
C570   N613    1.433   .     S
C571   C572    1.533   .     S
C571   H588    1.117   .     S
C571   O619    1.416   .     S
C571   H666    1.111   .     S
C572   C573    1.526   .     S
C572   H1379   1.111   .     S
C572   H1301   1.111   .     S
C573   H591    1.111   .     S
C573   H592    1.110   .     S
C573   H672    1.111   .     S
C574   H596    1.116   .     S
C574   C575    1.535   .     S
C574   O620    1.417   .     S
C574   H594    1.111   .     S
C575   H597    1.110   .     S
C575   C577    1.525   .     S
C575   H598    1.111   .     S
C576   H605    1.077   .     S
C576   C1276   1.388   1_554 S
C576   C1289   1.413   1_554 S
C577   H601    1.111   .     S
C577   H600    1.111   .     S
C577   H1310   1.110   1_554 S
C578   C579    1.421   .     A
C578   C1287   1.413   .     S
C578   C1291   1.428   .     S
C579   C583    1.408   .     A
C580   C1289   1.428   1_554 S
C580   C1292   1.427   1_554 S
C581   C582    1.396   .     A
C581   C1279   1.410   .     S
C581   C1291   1.427   .     S
C582   C583    1.382   .     A
C582   H604    1.083   .     S
C583   H607    1.080   .     S
H589   C1204   1.111   1_554 S
H590   C1283   1.111   1_554 S
H595   C639    1.086   .     S
H599   C1288   1.110   .     S
H602   N613    1.045   .     S
H603   N613    1.046   .     S
H606   C1276   1.083   1_554 S
H609   N611    1.045   .     S
H610   N137    1.045   1_565 S
N612   H112    1.046   1_565 S
N612   H111    1.046   1_565 S
N612   C88     1.437   1_565 S
O614   Zn630   1.954   .     S
O614   Zn629   1.960   .     S
O614   Zn631   1.926   .     S
O614   Zn632   1.931   .     S
O615   Zn630   1.924   .     S
O616   Zn632   1.939   .     S
O617   Zn631   1.938   .     S
O618   Zn629   1.924   .     S
O619   C1279   1.384   .     S
O621   Zn629   1.939   .     S
O622   Zn632   1.937   .     S
O623   Zn630   1.921   .     S
O624   Zn631   1.935   .     S
O625   Zn632   1.932   .     S
O626   Zn629   1.918   .     S
O627   Zn630   1.942   .     S
O628   Zn631   1.939   .     S
C633   O704    1.273   .     A
C633   C639    1.437   .     S
C633   O702    1.274   .     A
C634   C659    1.422   .     A
C634   C648    1.400   .     A
C634   O699    1.384   .     S
C635   H663    1.084   .     S
C635   C647    1.389   .     A
C635   C648    1.396   .     A
C636   C638    1.455   .     S
C636   O705    1.276   .     A
C636   O703    1.280   .     A
C637   C649    1.415   .     A
C637   C646    1.483   .     S
C637   C658    1.421   .     A
C638   C481    1.335   1_655 S
C638   H529    1.088   1_655 S
C640   C643    1.461   .     S
C640   C167    1.349   1_565 S
C640   N216    1.439   1_565 S
C641   C642    1.434   .     S
C642   O700    1.276   .     A
C642   O706    1.276   .     A
C643   O701    1.264   .     A
C643   O707    1.271   .     A
C644   C649    1.394   .     A
C644   C1366   1.388   .     S
C644   H1396   1.083   .     S
C645   O694    1.283   .     A
C645   O696    1.270   .     A
C645   C648    1.459   .     S
C646   O695    1.283   .     A
C646   O697    1.287   .     A
C647   C1371   1.410   1_554 S
C647   O1409   1.384   1_554 S
C649   N692    1.433   .     S
C650   C651    1.533   .     S
C650   H667    1.117   .     S
C650   O698    1.416   .     S
C650   H508    1.111   1_655 S
C651   C652    1.526   .     S
C651   H1221   1.111   1_655 S
C651   H1380   1.111   .     S
C652   H670    1.111   .     S
C652   H671    1.110   .     S
C652   H514    1.111   1_655 S
C653   H675    1.116   .     S
C653   C654    1.535   .     S
C653   O699    1.417   .     S
C653   H673    1.111   .     S
C654   H676    1.110   .     S
C654   C656    1.525   .     S
C654   H677    1.111   .     S
C655   H684    1.077   .     S
C655   C1355   1.388   1_554 S
C655   C1368   1.413   1_554 S
C656   H680    1.111   .     S
C656   H679    1.111   .     S
C656   H1389   1.110   1_554 S
C657   C658    1.421   .     A
C657   C1366   1.413   .     S
C657   C1370   1.428   .     S
C658   C662    1.408   .     A
C659   C1368   1.428   1_554 S
C659   C1371   1.427   1_554 S
C660   C661    1.396   .     A
C660   C1358   1.410   .     S
C660   C1370   1.427   .     S
C661   C662    1.382   .     A
C661   H683    1.083   .     S
C662   H686    1.080   .     S
H668   C1283   1.111   1_554 S
H669   C1362   1.111   1_554 S
H674   C481    1.086   1_655 S
H678   C1367   1.110   .     S
H681   N692    1.045   .     S
H682   N692    1.046   .     S
H685   C1355   1.083   1_554 S
H688   N690    1.045   .     S
H689   N216    1.045   1_565 S
N691   H191    1.046   1_565 S
N691   H190    1.046   1_565 S
N691   C167    1.437   1_565 S
O693   Zn709   1.954   .     S
O693   Zn708   1.960   .     S
O693   Zn710   1.926   .     S
O693   Zn711   1.931   .     S
O694   Zn709   1.924   .     S
O695   Zn711   1.939   .     S
O696   Zn710   1.938   .     S
O697   Zn708   1.924   .     S
O698   C1358   1.384   .     S
O700   Zn708   1.939   .     S
O701   Zn711   1.937   .     S
O702   Zn709   1.921   .     S
O703   Zn710   1.935   .     S
O704   Zn711   1.932   .     S
O705   Zn708   1.918   .     S
O706   Zn709   1.942   .     S
O707   Zn710   1.939   .     S
C712   O783    1.273   .     A
C712   C718    1.437   .     S
C712   O781    1.274   .     A
C713   C738    1.422   .     A
C713   C727    1.400   .     A
C713   O778    1.384   .     S
C714   H742    1.084   .     S
C714   C726    1.389   .     A
C714   C727    1.396   .     A
C715   C717    1.455   .     S
C715   O784    1.276   .     A
C715   O782    1.280   .     A
C716   C728    1.415   .     A
C716   C725    1.483   .     S
C716   C737    1.421   .     A
C717   C797    1.335   .     S
C717   H845    1.088   .     S
C718   C875    1.335   1_455 S
C718   H911    1.086   1_455 S
C719   C722    1.461   .     S
C719   C957    1.349   .     S
C719   N1006   1.439   .     S
C720   C721    1.434   .     S
C720   C1193   1.349   1_545 S
C720   N1244   1.437   1_545 S
C721   O779    1.276   .     A
C721   O785    1.276   .     A
C722   O780    1.264   .     A
C722   O786    1.271   .     A
C723   C728    1.394   .     A
C723   C23     1.388   1_556 S
C723   H53     1.083   1_556 S
C724   O773    1.283   .     A
C724   O775    1.270   .     A
C724   C727    1.459   .     S
C725   O774    1.283   .     A
C725   O776    1.287   .     A
C728   N771    1.433   .     S
C729   C730    1.533   .     S
C729   H746    1.117   .     S
C729   O777    1.416   .     S
C729   H824    1.111   .     S
C730   C731    1.526   .     S
C730   H115    1.111   1_556 S
C730   H37     1.111   1_556 S
C731   H749    1.111   .     S
C731   H750    1.110   .     S
C731   H830    1.111   .     S
C732   H754    1.116   .     S
C732   C733    1.535   .     S
C732   O778    1.417   .     S
C732   H752    1.111   .     S
C733   H755    1.110   .     S
C733   C735    1.525   .     S
C733   H756    1.111   .     S
C734   H763    1.077   .     S
C735   H759    1.111   .     S
C735   H758    1.111   .     S
C736   C737    1.421   .     A
C736   C23     1.413   1_556 S
C736   C27     1.428   1_556 S
C737   C741    1.408   .     A
C739   C740    1.396   .     A
C739   C15     1.410   1_556 S
C739   C27     1.427   1_556 S
C740   C741    1.382   .     A
C740   H762    1.083   .     S
C741   H765    1.080   .     S
H743   N1244   1.046   1_545 S
H744   N1244   1.046   1_545 S
H745   C887    1.111   1_455 S
H747   C177    1.111   1_455 S
H751   C889    1.111   1_455 S
H753   C797    1.086   .     S
H757   C24     1.110   1_556 S
H760   N771    1.045   .     S
H761   N771    1.046   .     S
H766   C875    1.088   1_455 S
H767   N769    1.045   .     S
H768   N1006   1.045   .     S
N769   H1242   1.045   1_545 S
N769   C1193   1.439   1_545 S
N770   H981    1.046   .     S
N770   H980    1.046   .     S
N770   C957    1.437   .     S
O772   Zn788   1.954   .     S
O772   Zn787   1.960   .     S
O772   Zn789   1.926   .     S
O772   Zn790   1.931   .     S
O773   Zn788   1.924   .     S
O774   Zn790   1.939   .     S
O775   Zn789   1.938   .     S
O776   Zn787   1.924   .     S
O777   C15     1.384   1_556 S
O779   Zn787   1.939   .     S
O780   Zn790   1.937   .     S
O781   Zn788   1.921   .     S
O782   Zn789   1.935   .     S
O783   Zn790   1.932   .     S
O784   Zn787   1.918   .     S
O785   Zn788   1.942   .     S
O786   Zn789   1.939   .     S
C791   O862    1.273   .     A
C791   C797    1.437   .     S
C791   O860    1.274   .     A
C792   C817    1.422   .     A
C792   C806    1.400   .     A
C792   O857    1.384   .     S
C793   H821    1.084   .     S
C793   C805    1.389   .     A
C793   C806    1.396   .     A
C794   C796    1.455   .     S
C794   O863    1.276   .     A
C794   O861    1.280   .     A
C795   C807    1.415   .     A
C795   C804    1.483   .     S
C795   C816    1.421   .     A
C796   C876    1.335   .     S
C796   H924    1.088   .     S
C798   C801    1.461   .     S
C798   C1036   1.349   .     S
C798   N1085   1.439   .     S
C799   C800    1.434   .     S
C799   C1272   1.349   1_545 S
C799   N1323   1.437   1_545 S
C800   O858    1.276   .     A
C800   O864    1.276   .     A
C801   O859    1.264   .     A
C801   O865    1.271   .     A
C802   C807    1.394   .     A
C802   C102    1.388   1_556 S
C802   H132    1.083   1_556 S
C803   O852    1.283   .     A
C803   O854    1.270   .     A
C803   C806    1.459   .     S
C804   O853    1.283   .     A
C804   O855    1.287   .     A
C807   N850    1.433   .     S
C808   C809    1.533   .     S
C808   H825    1.117   .     S
C808   O856    1.416   .     S
C808   H903    1.111   .     S
C809   C810    1.526   .     S
C809   H194    1.111   1_556 S
C809   H116    1.111   1_556 S
C810   H828    1.111   .     S
C810   H829    1.110   .     S
C810   H909    1.111   .     S
C811   H833    1.116   .     S
C811   C812    1.535   .     S
C811   O857    1.417   .     S
C811   H831    1.111   .     S
C812   H834    1.110   .     S
C812   C814    1.525   .     S
C812   H835    1.111   .     S
C813   H842    1.077   .     S
C814   H838    1.111   .     S
C814   H837    1.111   .     S
C815   C816    1.421   .     A
C815   C102    1.413   1_556 S
C815   C106    1.428   1_556 S
C816   C820    1.408   .     A
C818   C819    1.396   .     A
C818   C94     1.410   1_556 S
C818   C106    1.427   1_556 S
C819   C820    1.382   .     A
C819   H841    1.083   .     S
C820   H844    1.080   .     S
H822   N1323   1.046   1_545 S
H823   N1323   1.046   1_545 S
H832   C876    1.086   .     S
H836   C103    1.110   1_556 S
H839   N850    1.045   .     S
H840   N850    1.046   .     S
H846   N848    1.045   .     S
H847   N1085   1.045   .     S
N848   H1321   1.045   1_545 S
N848   C1272   1.439   1_545 S
N849   H1060   1.046   .     S
N849   H1059   1.046   .     S
N849   C1036   1.437   .     S
O851   Zn867   1.954   .     S
O851   Zn866   1.960   .     S
O851   Zn868   1.926   .     S
O851   Zn869   1.931   .     S
O852   Zn867   1.924   .     S
O853   Zn869   1.939   .     S
O854   Zn868   1.938   .     S
O855   Zn866   1.924   .     S
O856   C94     1.384   1_556 S
O858   Zn866   1.939   .     S
O859   Zn869   1.937   .     S
O860   Zn867   1.921   .     S
O861   Zn868   1.935   .     S
O862   Zn869   1.932   .     S
O863   Zn866   1.918   .     S
O864   Zn867   1.942   .     S
O865   Zn868   1.939   .     S
C870   O941    1.273   .     A
C870   C876    1.437   .     S
C870   O939    1.274   .     A
C871   C896    1.422   .     A
C871   C885    1.400   .     A
C871   O936    1.384   .     S
C872   H900    1.084   .     S
C872   C884    1.389   .     A
C872   C885    1.396   .     A
C873   C875    1.455   .     S
C873   O942    1.276   .     A
C873   O940    1.280   .     A
C874   C886    1.415   .     A
C874   C883    1.483   .     S
C874   C895    1.421   .     A
C875   C718    1.335   1_655 S
C875   H766    1.088   1_655 S
C877   C880    1.461   .     S
C877   C1115   1.349   .     S
C877   N1164   1.439   .     S
C878   C879    1.434   .     S
C878   C1351   1.349   1_545 S
C878   N1402   1.437   1_545 S
C879   O937    1.276   .     A
C879   O943    1.276   .     A
C880   O938    1.264   .     A
C880   O944    1.271   .     A
C881   C886    1.394   .     A
C881   C181    1.388   1_556 S
C881   H211    1.083   1_556 S
C882   O931    1.283   .     A
C882   O933    1.270   .     A
C882   C885    1.459   .     S
C883   O932    1.283   .     A
C883   O934    1.287   .     A
C886   N929    1.433   .     S
C887   C888    1.533   .     S
C887   H904    1.117   .     S
C887   O935    1.416   .     S
C887   H745    1.111   1_655 S
C888   C889    1.526   .     S
C888   H36     1.111   1_656 S
C888   H195    1.111   1_556 S
C889   H907    1.111   .     S
C889   H908    1.110   .     S
C889   H751    1.111   1_655 S
C890   H912    1.116   .     S
C890   C891    1.535   .     S
C890   O936    1.417   .     S
C890   H910    1.111   .     S
C891   H913    1.110   .     S
C891   C893    1.525   .     S
C891   H914    1.111   .     S
C892   H921    1.077   .     S
C893   H917    1.111   .     S
C893   H916    1.111   .     S
C894   C895    1.421   .     A
C894   C181    1.413   1_556 S
C894   C185    1.428   1_556 S
C895   C899    1.408   .     A
C897   C898    1.396   .     A
C897   C173    1.410   1_556 S
C897   C185    1.427   1_556 S
C898   C899    1.382   .     A
C898   H920    1.083   .     S
C899   H923    1.080   .     S
H901   N1402   1.046   1_545 S
H902   N1402   1.046   1_545 S
H911   C718    1.086   1_655 S
H915   C182    1.110   1_556 S
H918   N929    1.045   .     S
H919   N929    1.046   .     S
H925   N927    1.045   .     S
H926   N1164   1.045   .     S
N927   H1400   1.045   1_545 S
N927   C1351   1.439   1_545 S
N928   H1139   1.046   .     S
N928   H1138   1.046   .     S
N928   C1115   1.437   .     S
O930   Zn946   1.954   .     S
O930   Zn945   1.960   .     S
O930   Zn947   1.926   .     S
O930   Zn948   1.931   .     S
O931   Zn946   1.924   .     S
O932   Zn948   1.939   .     S
O933   Zn947   1.938   .     S
O934   Zn945   1.924   .     S
O935   C173    1.384   1_556 S
O937   Zn945   1.939   .     S
O938   Zn948   1.937   .     S
O939   Zn946   1.921   .     S
O940   Zn947   1.935   .     S
O941   Zn948   1.932   .     S
O942   Zn945   1.918   .     S
O943   Zn946   1.942   .     S
O944   Zn947   1.939   .     S
C949   O1020   1.273   .     A
C949   C955    1.437   .     S
C949   O1018   1.274   .     A
C950   C975    1.422   .     A
C950   C964    1.400   .     A
C950   O1015   1.384   .     S
C951   H979    1.084   .     S
C951   C963    1.389   .     A
C951   C964    1.396   .     A
C952   C954    1.455   .     S
C952   O1021   1.276   .     A
C952   O1019   1.280   .     A
C953   C965    1.415   .     A
C953   C962    1.483   .     S
C953   C974    1.421   .     A
C954   C1034   1.335   .     S
C954   H1082   1.088   .     S
C955   C1112   1.335   1_455 S
C955   H1148   1.086   1_455 S
C956   C959    1.461   .     S
C956   C1194   1.349   .     S
C956   N1243   1.439   .     S
C957   C958    1.434   .     S
C958   O1016   1.276   .     A
C958   O1022   1.276   .     A
C959   O1017   1.264   .     A
C959   O1023   1.271   .     A
C960   C965    1.394   .     A
C960   C260    1.388   1_556 S
C960   H290    1.083   1_556 S
C961   O1010   1.283   .     A
C961   O1012   1.270   .     A
C961   C964    1.459   .     S
C962   O1011   1.283   .     A
C962   O1013   1.287   .     A
C965   N1008   1.433   .     S
C966   C967    1.533   .     S
C966   H983    1.117   .     S
C966   O1014   1.416   .     S
C966   H1061   1.111   .     S
C967   C968    1.526   .     S
C967   H352    1.111   1_556 S
C967   H274    1.111   1_556 S
C968   H986    1.111   .     S
C968   H987    1.110   .     S
C968   H1067   1.111   .     S
C969   H991    1.116   .     S
C969   C970    1.535   .     S
C969   O1015   1.417   .     S
C969   H989    1.111   .     S
C970   H992    1.110   .     S
C970   C972    1.525   .     S
C970   H993    1.111   .     S
C971   H1000   1.077   .     S
C972   H996    1.111   .     S
C972   H995    1.111   .     S
C973   C974    1.421   .     A
C973   C260    1.413   1_556 S
C973   C264    1.428   1_556 S
C974   C978    1.408   .     A
C976   C977    1.396   .     A
C976   C252    1.410   1_556 S
C976   C264    1.427   1_556 S
C977   C978    1.382   .     A
C977   H999    1.083   .     S
C978   H1002   1.080   .     S
H982   C1124   1.111   1_455 S
H984   C414    1.111   1_455 S
H988   C1126   1.111   1_455 S
H990   C1034   1.086   .     S
H994   C261    1.110   1_556 S
H997   N1008   1.045   .     S
H998   N1008   1.046   .     S
H1003  C1112   1.088   1_455 S
H1004  N1006   1.045   .     S
H1005  N1243   1.045   .     S
N1007  H1218   1.046   .     S
N1007  H1217   1.046   .     S
N1007  C1194   1.437   .     S
O1009  Zn1025  1.954   .     S
O1009  Zn1024  1.960   .     S
O1009  Zn1026  1.926   .     S
O1009  Zn1027  1.931   .     S
O1010  Zn1025  1.924   .     S
O1011  Zn1027  1.939   .     S
O1012  Zn1026  1.938   .     S
O1013  Zn1024  1.924   .     S
O1014  C252    1.384   1_556 S
O1016  Zn1024  1.939   .     S
O1017  Zn1027  1.937   .     S
O1018  Zn1025  1.921   .     S
O1019  Zn1026  1.935   .     S
O1020  Zn1027  1.932   .     S
O1021  Zn1024  1.918   .     S
O1022  Zn1025  1.942   .     S
O1023  Zn1026  1.939   .     S
C1028  O1099   1.273   .     A
C1028  C1034   1.437   .     S
C1028  O1097   1.274   .     A
C1029  C1054   1.422   .     A
C1029  C1043   1.400   .     A
C1029  O1094   1.384   .     S
C1030  H1058   1.084   .     S
C1030  C1042   1.389   .     A
C1030  C1043   1.396   .     A
C1031  C1033   1.455   .     S
C1031  O1100   1.276   .     A
C1031  O1098   1.280   .     A
C1032  C1044   1.415   .     A
C1032  C1041   1.483   .     S
C1032  C1053   1.421   .     A
C1033  C1113   1.335   .     S
C1033  H1161   1.088   .     S
C1035  C1038   1.461   .     S
C1035  C1273   1.349   .     S
C1035  N1322   1.439   .     S
C1036  C1037   1.434   .     S
C1037  O1095   1.276   .     A
C1037  O1101   1.276   .     A
C1038  O1096   1.264   .     A
C1038  O1102   1.271   .     A
C1039  C1044   1.394   .     A
C1039  C339    1.388   1_556 S
C1039  H369    1.083   1_556 S
C1040  O1089   1.283   .     A
C1040  O1091   1.270   .     A
C1040  C1043   1.459   .     S
C1041  O1090   1.283   .     A
C1041  O1092   1.287   .     A
C1044  N1087   1.433   .     S
C1045  C1046   1.533   .     S
C1045  H1062   1.117   .     S
C1045  O1093   1.416   .     S
C1045  H1140   1.111   .     S
C1046  C1047   1.526   .     S
C1046  H431    1.111   1_556 S
C1046  H353    1.111   1_556 S
C1047  H1065   1.111   .     S
C1047  H1066   1.110   .     S
C1047  H1146   1.111   .     S
C1048  H1070   1.116   .     S
C1048  C1049   1.535   .     S
C1048  O1094   1.417   .     S
C1048  H1068   1.111   .     S
C1049  H1071   1.110   .     S
C1049  C1051   1.525   .     S
C1049  H1072   1.111   .     S
C1050  H1079   1.077   .     S
C1051  H1075   1.111   .     S
C1051  H1074   1.111   .     S
C1052  C1053   1.421   .     A
C1052  C339    1.413   1_556 S
C1052  C343    1.428   1_556 S
C1053  C1057   1.408   .     A
C1055  C1056   1.396   .     A
C1055  C331    1.410   1_556 S
C1055  C343    1.427   1_556 S
C1056  C1057   1.382   .     A
C1056  H1078   1.083   .     S
C1057  H1081   1.080   .     S
H1069  C1113   1.086   .     S
H1073  C340    1.110   1_556 S
H1076  N1087   1.045   .     S
H1077  N1087   1.046   .     S
H1083  N1085   1.045   .     S
H1084  N1322   1.045   .     S
N1086  H1297   1.046   .     S
N1086  H1296   1.046   .     S
N1086  C1273   1.437   .     S
O1088  Zn1104  1.954   .     S
O1088  Zn1103  1.960   .     S
O1088  Zn1105  1.926   .     S
O1088  Zn1106  1.931   .     S
O1089  Zn1104  1.924   .     S
O1090  Zn1106  1.939   .     S
O1091  Zn1105  1.938   .     S
O1092  Zn1103  1.924   .     S
O1093  C331    1.384   1_556 S
O1095  Zn1103  1.939   .     S
O1096  Zn1106  1.937   .     S
O1097  Zn1104  1.921   .     S
O1098  Zn1105  1.935   .     S
O1099  Zn1106  1.932   .     S
O1100  Zn1103  1.918   .     S
O1101  Zn1104  1.942   .     S
O1102  Zn1105  1.939   .     S
C1107  O1178   1.273   .     A
C1107  C1113   1.437   .     S
C1107  O1176   1.274   .     A
C1108  C1133   1.422   .     A
C1108  C1122   1.400   .     A
C1108  O1173   1.384   .     S
C1109  H1137   1.084   .     S
C1109  C1121   1.389   .     A
C1109  C1122   1.396   .     A
C1110  C1112   1.455   .     S
C1110  O1179   1.276   .     A
C1110  O1177   1.280   .     A
C1111  C1123   1.415   .     A
C1111  C1120   1.483   .     S
C1111  C1132   1.421   .     A
C1112  C955    1.335   1_655 S
C1112  H1003   1.088   1_655 S
C1114  C1117   1.461   .     S
C1114  C1352   1.349   .     S
C1114  N1401   1.439   .     S
C1115  C1116   1.434   .     S
C1116  O1174   1.276   .     A
C1116  O1180   1.276   .     A
C1117  O1175   1.264   .     A
C1117  O1181   1.271   .     A
C1118  C1123   1.394   .     A
C1118  C418    1.388   1_556 S
C1118  H448    1.083   1_556 S
C1119  O1168   1.283   .     A
C1119  O1170   1.270   .     A
C1119  C1122   1.459   .     S
C1120  O1169   1.283   .     A
C1120  O1171   1.287   .     A
C1123  N1166   1.433   .     S
C1124  C1125   1.533   .     S
C1124  H1141   1.117   .     S
C1124  O1172   1.416   .     S
C1124  H982    1.111   1_655 S
C1125  C1126   1.526   .     S
C1125  H273    1.111   1_656 S
C1125  H432    1.111   1_556 S
C1126  H1144   1.111   .     S
C1126  H1145   1.110   .     S
C1126  H988    1.111   1_655 S
C1127  H1149   1.116   .     S
C1127  C1128   1.535   .     S
C1127  O1173   1.417   .     S
C1127  H1147   1.111   .     S
C1128  H1150   1.110   .     S
C1128  C1130   1.525   .     S
C1128  H1151   1.111   .     S
C1129  H1158   1.077   .     S
C1130  H1154   1.111   .     S
C1130  H1153   1.111   .     S
C1131  C1132   1.421   .     A
C1131  C418    1.413   1_556 S
C1131  C422    1.428   1_556 S
C1132  C1136   1.408   .     A
C1134  C1135   1.396   .     A
C1134  C410    1.410   1_556 S
C1134  C422    1.427   1_556 S
C1135  C1136   1.382   .     A
C1135  H1157   1.083   .     S
C1136  H1160   1.080   .     S
H1148  C955    1.086   1_655 S
H1152  C419    1.110   1_556 S
H1155  N1166   1.045   .     S
H1156  N1166   1.046   .     S
H1162  N1164   1.045   .     S
H1163  N1401   1.045   .     S
N1165  H1376   1.046   .     S
N1165  H1375   1.046   .     S
N1165  C1352   1.437   .     S
O1167  Zn1183  1.954   .     S
O1167  Zn1182  1.960   .     S
O1167  Zn1184  1.926   .     S
O1167  Zn1185  1.931   .     S
O1168  Zn1183  1.924   .     S
O1169  Zn1185  1.939   .     S
O1170  Zn1184  1.938   .     S
O1171  Zn1182  1.924   .     S
O1172  C410    1.384   1_556 S
O1174  Zn1182  1.939   .     S
O1175  Zn1185  1.937   .     S
O1176  Zn1183  1.921   .     S
O1177  Zn1184  1.935   .     S
O1178  Zn1185  1.932   .     S
O1179  Zn1182  1.918   .     S
O1180  Zn1183  1.942   .     S
O1181  Zn1184  1.939   .     S
C1186  O1257   1.273   .     A
C1186  C1192   1.437   .     S
C1186  O1255   1.274   .     A
C1187  C1212   1.422   .     A
C1187  C1201   1.400   .     A
C1187  O1252   1.384   .     S
C1188  H1216   1.084   .     S
C1188  C1200   1.389   .     A
C1188  C1201   1.396   .     A
C1189  C1191   1.455   .     S
C1189  O1258   1.276   .     A
C1189  O1256   1.280   .     A
C1190  C1202   1.415   .     A
C1190  C1199   1.483   .     S
C1190  C1211   1.421   .     A
C1191  C1271   1.335   .     S
C1191  H1319   1.088   .     S
C1192  C1349   1.335   1_455 S
C1192  H1385   1.086   1_455 S
C1193  C1196   1.461   .     S
C1193  C720    1.349   1_565 S
C1193  N769    1.439   1_565 S
C1194  C1195   1.434   .     S
C1195  O1253   1.276   .     A
C1195  O1259   1.276   .     A
C1196  O1254   1.264   .     A
C1196  O1260   1.271   .     A
C1197  C1202   1.394   .     A
C1197  C497    1.388   1_556 S
C1197  H527    1.083   1_556 S
C1198  O1247   1.283   .     A
C1198  O1249   1.270   .     A
C1198  C1201   1.459   .     S
C1199  O1248   1.283   .     A
C1199  O1250   1.287   .     A
C1202  N1245   1.433   .     S
C1203  C1204   1.533   .     S
C1203  H1220   1.117   .     S
C1203  O1251   1.416   .     S
C1203  H1298   1.111   .     S
C1204  C1205   1.526   .     S
C1204  H589    1.111   1_556 S
C1204  H511    1.111   1_556 S
C1205  H1223   1.111   .     S
C1205  H1224   1.110   .     S
C1205  H1304   1.111   .     S
C1206  H1228   1.116   .     S
C1206  C1207   1.535   .     S
C1206  O1252   1.417   .     S
C1206  H1226   1.111   .     S
C1207  H1229   1.110   .     S
C1207  C1209   1.525   .     S
C1207  H1230   1.111   .     S
C1208  H1237   1.077   .     S
C1209  H1233   1.111   .     S
C1209  H1232   1.111   .     S
C1210  C1211   1.421   .     A
C1210  C497    1.413   1_556 S
C1210  C501    1.428   1_556 S
C1211  C1215   1.408   .     A
C1213  C1214   1.396   .     A
C1213  C489    1.410   1_556 S
C1213  C501    1.427   1_556 S
C1214  C1215   1.382   .     A
C1214  H1236   1.083   .     S
C1215  H1239   1.080   .     S
H1219  C1361   1.111   1_455 S
H1221  C651    1.111   1_455 S
H1225  C1363   1.111   1_455 S
H1227  C1271   1.086   .     S
H1231  C498    1.110   1_556 S
H1234  N1245   1.045   .     S
H1235  N1245   1.046   .     S
H1240  C1349   1.088   1_455 S
H1241  N1243   1.045   .     S
H1242  N769    1.045   1_565 S
N1244  H744    1.046   1_565 S
N1244  H743    1.046   1_565 S
N1244  C720    1.437   1_565 S
O1246  Zn1262  1.954   .     S
O1246  Zn1261  1.960   .     S
O1246  Zn1263  1.926   .     S
O1246  Zn1264  1.931   .     S
O1247  Zn1262  1.924   .     S
O1248  Zn1264  1.939   .     S
O1249  Zn1263  1.938   .     S
O1250  Zn1261  1.924   .     S
O1251  C489    1.384   1_556 S
O1253  Zn1261  1.939   .     S
O1254  Zn1264  1.937   .     S
O1255  Zn1262  1.921   .     S
O1256  Zn1263  1.935   .     S
O1257  Zn1264  1.932   .     S
O1258  Zn1261  1.918   .     S
O1259  Zn1262  1.942   .     S
O1260  Zn1263  1.939   .     S
C1265  O1336   1.273   .     A
C1265  C1271   1.437   .     S
C1265  O1334   1.274   .     A
C1266  C1291   1.422   .     A
C1266  C1280   1.400   .     A
C1266  O1331   1.384   .     S
C1267  H1295   1.084   .     S
C1267  C1279   1.389   .     A
C1267  C1280   1.396   .     A
C1268  C1270   1.455   .     S
C1268  O1337   1.276   .     A
C1268  O1335   1.280   .     A
C1269  C1281   1.415   .     A
C1269  C1278   1.483   .     S
C1269  C1290   1.421   .     A
C1270  C1350   1.335   .     S
C1270  H1398   1.088   .     S
C1272  C1275   1.461   .     S
C1272  C799    1.349   1_565 S
C1272  N848    1.439   1_565 S
C1273  C1274   1.434   .     S
C1274  O1332   1.276   .     A
C1274  O1338   1.276   .     A
C1275  O1333   1.264   .     A
C1275  O1339   1.271   .     A
C1276  C1281   1.394   .     A
C1276  C576    1.388   1_556 S
C1276  H606    1.083   1_556 S
C1277  O1326   1.283   .     A
C1277  O1328   1.270   .     A
C1277  C1280   1.459   .     S
C1278  O1327   1.283   .     A
C1278  O1329   1.287   .     A
C1281  N1324   1.433   .     S
C1282  C1283   1.533   .     S
C1282  H1299   1.117   .     S
C1282  O1330   1.416   .     S
C1282  H1377   1.111   .     S
C1283  C1284   1.526   .     S
C1283  H668    1.111   1_556 S
C1283  H590    1.111   1_556 S
C1284  H1302   1.111   .     S
C1284  H1303   1.110   .     S
C1284  H1383   1.111   .     S
C1285  H1307   1.116   .     S
C1285  C1286   1.535   .     S
C1285  O1331   1.417   .     S
C1285  H1305   1.111   .     S
C1286  H1308   1.110   .     S
C1286  C1288   1.525   .     S
C1286  H1309   1.111   .     S
C1287  H1316   1.077   .     S
C1288  H1312   1.111   .     S
C1288  H1311   1.111   .     S
C1289  C1290   1.421   .     A
C1289  C576    1.413   1_556 S
C1289  C580    1.428   1_556 S
C1290  C1294   1.408   .     A
C1292  C1293   1.396   .     A
C1292  C568    1.410   1_556 S
C1292  C580    1.427   1_556 S
C1293  C1294   1.382   .     A
C1293  H1315   1.083   .     S
C1294  H1318   1.080   .     S
H1306  C1350   1.086   .     S
H1310  C577    1.110   1_556 S
H1313  N1324   1.045   .     S
H1314  N1324   1.046   .     S
H1320  N1322   1.045   .     S
H1321  N848    1.045   1_565 S
N1323  H823    1.046   1_565 S
N1323  H822    1.046   1_565 S
N1323  C799    1.437   1_565 S
O1325  Zn1341  1.954   .     S
O1325  Zn1340  1.960   .     S
O1325  Zn1342  1.926   .     S
O1325  Zn1343  1.931   .     S
O1326  Zn1341  1.924   .     S
O1327  Zn1343  1.939   .     S
O1328  Zn1342  1.938   .     S
O1329  Zn1340  1.924   .     S
O1330  C568    1.384   1_556 S
O1332  Zn1340  1.939   .     S
O1333  Zn1343  1.937   .     S
O1334  Zn1341  1.921   .     S
O1335  Zn1342  1.935   .     S
O1336  Zn1343  1.932   .     S
O1337  Zn1340  1.918   .     S
O1338  Zn1341  1.942   .     S
O1339  Zn1342  1.939   .     S
C1344  O1415   1.273   .     A
C1344  C1350   1.437   .     S
C1344  O1413   1.274   .     A
C1345  C1370   1.422   .     A
C1345  C1359   1.400   .     A
C1345  O1410   1.384   .     S
C1346  H1374   1.084   .     S
C1346  C1358   1.389   .     A
C1346  C1359   1.396   .     A
C1347  C1349   1.455   .     S
C1347  O1416   1.276   .     A
C1347  O1414   1.280   .     A
C1348  C1360   1.415   .     A
C1348  C1357   1.483   .     S
C1348  C1369   1.421   .     A
C1349  C1192   1.335   1_655 S
C1349  H1240   1.088   1_655 S
C1351  C1354   1.461   .     S
C1351  C878    1.349   1_565 S
C1351  N927    1.439   1_565 S
C1352  C1353   1.434   .     S
C1353  O1411   1.276   .     A
C1353  O1417   1.276   .     A
C1354  O1412   1.264   .     A
C1354  O1418   1.271   .     A
C1355  C1360   1.394   .     A
C1355  C655    1.388   1_556 S
C1355  H685    1.083   1_556 S
C1356  O1405   1.283   .     A
C1356  O1407   1.270   .     A
C1356  C1359   1.459   .     S
C1357  O1406   1.283   .     A
C1357  O1408   1.287   .     A
C1360  N1403   1.433   .     S
C1361  C1362   1.533   .     S
C1361  H1378   1.117   .     S
C1361  O1409   1.416   .     S
C1361  H1219   1.111   1_655 S
C1362  C1363   1.526   .     S
C1362  H510    1.111   1_656 S
C1362  H669    1.111   1_556 S
C1363  H1381   1.111   .     S
C1363  H1382   1.110   .     S
C1363  H1225   1.111   1_655 S
C1364  H1386   1.116   .     S
C1364  C1365   1.535   .     S
C1364  O1410   1.417   .     S
C1364  H1384   1.111   .     S
C1365  H1387   1.110   .     S
C1365  C1367   1.525   .     S
C1365  H1388   1.111   .     S
C1366  H1395   1.077   .     S
C1367  H1391   1.111   .     S
C1367  H1390   1.111   .     S
C1368  C1369   1.421   .     A
C1368  C655    1.413   1_556 S
C1368  C659    1.428   1_556 S
C1369  C1373   1.408   .     A
C1371  C1372   1.396   .     A
C1371  C647    1.410   1_556 S
C1371  C659    1.427   1_556 S
C1372  C1373   1.382   .     A
C1372  H1394   1.083   .     S
C1373  H1397   1.080   .     S
H1385  C1192   1.086   1_655 S
H1389  C656    1.110   1_556 S
H1392  N1403   1.045   .     S
H1393  N1403   1.046   .     S
H1399  N1401   1.045   .     S
H1400  N927    1.045   1_565 S
N1402  H902    1.046   1_565 S
N1402  H901    1.046   1_565 S
N1402  C878    1.437   1_565 S
O1404  Zn1420  1.954   .     S
O1404  Zn1419  1.960   .     S
O1404  Zn1421  1.926   .     S
O1404  Zn1422  1.931   .     S
O1405  Zn1420  1.924   .     S
O1406  Zn1422  1.939   .     S
O1407  Zn1421  1.938   .     S
O1408  Zn1419  1.924   .     S
O1409  C647    1.384   1_556 S
O1411  Zn1419  1.939   .     S
O1412  Zn1422  1.937   .     S
O1413  Zn1420  1.921   .     S
O1414  Zn1421  1.935   .     S
O1415  Zn1422  1.932   .     S
O1416  Zn1419  1.918   .     S
O1417  Zn1420  1.942   .     S
O1418  Zn1421  1.939   .     S
