data_str_m1_o10_o16_pcu_sym.94
_audit_creation_date              2020-01-03
_audit_creation_method            'Materials Studio'
_symmetry_space_group_name_H-M    'P1'
_symmetry_Int_Tables_number       1
_symmetry_cell_setting            triclinic
loop_
_symmetry_equiv_pos_as_xyz
  x,y,z
_cell_length_a                    32.6070
_cell_length_b                    32.5095
_cell_length_c                    31.0384
_cell_angle_alpha                 96.2597
_cell_angle_beta                  74.4893
_cell_angle_gamma                 98.3733
loop_
_atom_site_label
_atom_site_type_symbol
_atom_site_fract_x
_atom_site_fract_y
_atom_site_fract_z
_atom_site_U_iso_or_equiv
_atom_site_adp_type
_atom_site_occupancy
C1     C     0.05276   0.15979   0.26000   0.00000  Uiso   1.00
C2     C     0.16579   0.15408   0.05980   0.00000  Uiso   1.00
C3     C     0.23387   0.13074   0.05606   0.00000  Uiso   1.00
C4     C     0.28082   0.17386   0.23999   0.00000  Uiso   1.00
C5     C     0.13627   0.18774   0.42068   0.00000  Uiso   1.00
C6     C     0.32669   0.17653   0.23579   0.00000  Uiso   1.00
C7     C     0.00746   0.15754   0.26413   0.00000  Uiso   1.00
C8     C     0.18055   0.32253   0.23641   0.00000  Uiso   1.00
C9     C     0.15207   0.01180   0.26403   0.00000  Uiso   1.00
C10    C     0.15623   0.05591   0.26020   0.00000  Uiso   1.00
C11    C     0.17663   0.27795   0.24015   0.00000  Uiso   1.00
C12    C     0.07725   0.18337   0.48809   0.00000  Uiso   1.00
C13    C     0.18555   0.14829   0.12938   0.00000  Uiso   1.00
C14    C     0.14866   0.18485   0.37102   0.00000  Uiso   1.00
C15    C     0.24598   0.13350   0.00995   0.00000  Uiso   1.00
C16    C     0.19425   0.14205   0.08098   0.00000  Uiso   1.00
C17    C     0.09311   0.19206   0.44313   0.00000  Uiso   1.00
C18    C     0.27378   0.11697   0.39006   0.00000  Uiso   1.00
C19    C     0.04231   0.16817   0.40557   0.00000  Uiso   1.00
C20    C     0.07159   0.10523   0.03899   0.00000  Uiso   1.00
C21    C     0.03033   0.22330   0.03487   0.00000  Uiso   1.00
C22    C     0.23798   0.24230   0.39991   0.00000  Uiso   1.00
C23    C     0.10277   0.16645   0.00969   0.00000  Uiso   1.00
C24    C     0.14769   0.16690   0.49000   0.00000  Uiso   1.00
C25    C     0.16450   0.17835   0.44506   0.00000  Uiso   1.00
C26    C     0.17638   0.15540   0.01289   0.00000  Uiso   1.00
C27    C     0.21848   0.14779   0.48840   0.00000  Uiso   1.00
C28    C     0.23381   0.15786   0.44380   0.00000  Uiso   1.00
C29    C     0.20920   0.17893   0.42518   0.00000  Uiso   1.00
H30    H     0.01576   0.19395   0.20948   0.00000  Uiso   1.00
H31    H     0.13769   0.16640   0.08113   0.00000  Uiso   1.00
H32    H     0.01895   0.15282   0.43400   0.00000  Uiso   1.00
H33    H     0.06350   0.14537   0.38522   0.00000  Uiso   1.00
H34    H     0.02422   0.17782   0.38355   0.00000  Uiso   1.00
H35    H     0.10070   0.08957   0.02302   0.00000  Uiso   1.00
H36    H     0.04895   0.10000   0.01714   0.00000  Uiso   1.00
H37    H     0.05529   0.09046   0.07069   0.00000  Uiso   1.00
H38    H     0.04227   0.25023   0.01366   0.00000  Uiso   1.00
H39    H     0.04729   0.22557   0.06193   0.00000  Uiso   1.00
H40    H     0.32919   0.22505   0.05115   0.00000  Uiso   1.00
H41    H     0.25633   0.12204   0.07262   0.00000  Uiso   1.00
H42    H     0.25886   0.24741   0.42361   0.00000  Uiso   1.00
H43    H     0.20769   0.25634   0.41485   0.00000  Uiso   1.00
H44    H     0.25528   0.25875   0.36954   0.00000  Uiso   1.00
H45    H     0.31904   0.14025   0.29086   0.00000  Uiso   1.00
H46    H     0.20684   0.00375   0.21098   0.00000  Uiso   1.00
H47    H     0.12545   0.33137   0.28962   0.00000  Uiso   1.00
H48    H     0.25680   0.12145   0.36453   0.00000  Uiso   1.00
H49    H     0.25850   0.08861   0.40806   0.00000  Uiso   1.00
H50    H     0.30703   0.11160   0.37195   0.00000  Uiso   1.00
H51    H     0.27785   0.12673   0.49173   0.00000  Uiso   1.00
O52    O     0.16667   0.16667   0.25000   0.00000  Uiso   1.00
O53    O     0.15451   0.12637   0.15459   0.00000  Uiso   1.00
O54    O     0.12940   0.20391   0.34968   0.00000  Uiso   1.00
O55    O     0.20824   0.17759   0.14606   0.00000  Uiso   1.00
O56    O     0.17451   0.15880   0.34968   0.00000  Uiso   1.00
O57    O     0.27531   0.15255   0.42024   0.00000  Uiso   1.00
O58    O     0.06578   0.20413   0.42089   0.00000  Uiso   1.00
O59    O     0.08235   0.14812   0.04921   0.00000  Uiso   1.00
O60    O     0.03432   0.18512   0.00879   0.00000  Uiso   1.00
O61    O     0.22972   0.19959   0.38710   0.00000  Uiso   1.00
O62    O     0.17930   0.08019   0.28213   0.00000  Uiso   1.00
O63    O     0.14632   0.26085   0.27014   0.00000  Uiso   1.00
O64    O     0.07412   0.13291   0.23413   0.00000  Uiso   1.00
O65    O     0.26693   0.19272   0.21361   0.00000  Uiso   1.00
O66    O     0.07071   0.18878   0.28213   0.00000  Uiso   1.00
O67    O     0.25491   0.15226   0.27013   0.00000  Uiso   1.00
O68    O     0.13760   0.06944   0.23413   0.00000  Uiso   1.00
O69    O     0.20345   0.25620   0.21361   0.00000  Uiso   1.00
Zn70   Zn    0.19338   0.13994   0.28734   0.00000  Uiso   1.00
Zn71   Zn    0.13379   0.12458   0.21876   0.00000  Uiso   1.00
Zn72   Zn    0.21056   0.19775   0.20657   0.00000  Uiso   1.00
Zn73   Zn    0.12893   0.20439   0.28734   0.00000  Uiso   1.00
C74    C     0.38609   0.15979   0.26000   0.00000  Uiso   1.00
C75    C     0.49912   0.15408   0.05980   0.00000  Uiso   1.00
C76    C     0.56720   0.13074   0.05606   0.00000  Uiso   1.00
C77    C     0.61415   0.17386   0.23999   0.00000  Uiso   1.00
C78    C     0.46960   0.18774   0.42068   0.00000  Uiso   1.00
C79    C     0.66002   0.17653   0.23579   0.00000  Uiso   1.00
C80    C     0.34080   0.15754   0.26413   0.00000  Uiso   1.00
C81    C     0.51388   0.32253   0.23641   0.00000  Uiso   1.00
C82    C     0.48540   0.01180   0.26403   0.00000  Uiso   1.00
C83    C     0.48957   0.05591   0.26020   0.00000  Uiso   1.00
C84    C     0.50996   0.27795   0.24015   0.00000  Uiso   1.00
C85    C     0.41058   0.18337   0.48809   0.00000  Uiso   1.00
C86    C     0.51888   0.14829   0.12938   0.00000  Uiso   1.00
C87    C     0.48199   0.18485   0.37102   0.00000  Uiso   1.00
C88    C     0.57932   0.13350   0.00995   0.00000  Uiso   1.00
C89    C     0.52758   0.14205   0.08098   0.00000  Uiso   1.00
C90    C     0.42645   0.19206   0.44313   0.00000  Uiso   1.00
C91    C     0.60712   0.11697   0.39006   0.00000  Uiso   1.00
C92    C     0.37564   0.16817   0.40557   0.00000  Uiso   1.00
C93    C     0.40493   0.10523   0.03899   0.00000  Uiso   1.00
C94    C     0.36366   0.22330   0.03487   0.00000  Uiso   1.00
C95    C     0.57131   0.24230   0.39991   0.00000  Uiso   1.00
C96    C     0.43610   0.16645   0.00969   0.00000  Uiso   1.00
C97    C     0.48102   0.16690   0.49000   0.00000  Uiso   1.00
C98    C     0.49783   0.17835   0.44506   0.00000  Uiso   1.00
C99    C     0.50971   0.15540   0.01289   0.00000  Uiso   1.00
C100   C     0.55181   0.14779   0.48840   0.00000  Uiso   1.00
C101   C     0.56714   0.15786   0.44380   0.00000  Uiso   1.00
C102   C     0.54253   0.17893   0.42518   0.00000  Uiso   1.00
H103   H     0.34909   0.19395   0.20948   0.00000  Uiso   1.00
H104   H     0.47102   0.16640   0.08113   0.00000  Uiso   1.00
H105   H     0.35229   0.15282   0.43400   0.00000  Uiso   1.00
H106   H     0.39683   0.14537   0.38522   0.00000  Uiso   1.00
H107   H     0.35755   0.17782   0.38355   0.00000  Uiso   1.00
H108   H     0.43403   0.08957   0.02302   0.00000  Uiso   1.00
H109   H     0.38229   0.10000   0.01714   0.00000  Uiso   1.00
H110   H     0.38862   0.09046   0.07069   0.00000  Uiso   1.00
H111   H     0.37560   0.25023   0.01366   0.00000  Uiso   1.00
H112   H     0.38063   0.22557   0.06193   0.00000  Uiso   1.00
H113   H     0.66252   0.22505   0.05115   0.00000  Uiso   1.00
H114   H     0.58967   0.12204   0.07262   0.00000  Uiso   1.00
H115   H     0.59220   0.24741   0.42361   0.00000  Uiso   1.00
H116   H     0.54102   0.25634   0.41485   0.00000  Uiso   1.00
H117   H     0.58861   0.25875   0.36954   0.00000  Uiso   1.00
H118   H     0.65237   0.14025   0.29086   0.00000  Uiso   1.00
H119   H     0.54018   0.00375   0.21098   0.00000  Uiso   1.00
H120   H     0.45878   0.33137   0.28962   0.00000  Uiso   1.00
H121   H     0.59013   0.12145   0.36453   0.00000  Uiso   1.00
H122   H     0.59183   0.08861   0.40806   0.00000  Uiso   1.00
H123   H     0.64037   0.11160   0.37195   0.00000  Uiso   1.00
H124   H     0.61119   0.12673   0.49173   0.00000  Uiso   1.00
O125   O     0.50000   0.16667   0.25000   0.00000  Uiso   1.00
O126   O     0.48784   0.12637   0.15459   0.00000  Uiso   1.00
O127   O     0.46274   0.20391   0.34968   0.00000  Uiso   1.00
O128   O     0.54157   0.17759   0.14606   0.00000  Uiso   1.00
O129   O     0.50785   0.15880   0.34968   0.00000  Uiso   1.00
O130   O     0.60865   0.15255   0.42024   0.00000  Uiso   1.00
O131   O     0.39912   0.20413   0.42089   0.00000  Uiso   1.00
O132   O     0.41568   0.14812   0.04921   0.00000  Uiso   1.00
O133   O     0.36765   0.18512   0.00879   0.00000  Uiso   1.00
O134   O     0.56305   0.19959   0.38710   0.00000  Uiso   1.00
O135   O     0.51264   0.08019   0.28213   0.00000  Uiso   1.00
O136   O     0.47965   0.26085   0.27014   0.00000  Uiso   1.00
O137   O     0.40745   0.13291   0.23413   0.00000  Uiso   1.00
O138   O     0.60026   0.19272   0.21361   0.00000  Uiso   1.00
O139   O     0.40405   0.18878   0.28213   0.00000  Uiso   1.00
O140   O     0.58824   0.15226   0.27013   0.00000  Uiso   1.00
O141   O     0.47093   0.06944   0.23413   0.00000  Uiso   1.00
O142   O     0.53678   0.25620   0.21361   0.00000  Uiso   1.00
Zn143  Zn    0.52672   0.13994   0.28734   0.00000  Uiso   1.00
Zn144  Zn    0.46713   0.12458   0.21876   0.00000  Uiso   1.00
Zn145  Zn    0.54389   0.19775   0.20657   0.00000  Uiso   1.00
Zn146  Zn    0.46226   0.20439   0.28734   0.00000  Uiso   1.00
C147   C     0.71943   0.15979   0.26000   0.00000  Uiso   1.00
C148   C     0.83245   0.15408   0.05980   0.00000  Uiso   1.00
C149   C     0.90053   0.13074   0.05606   0.00000  Uiso   1.00
C150   C     0.94749   0.17386   0.23999   0.00000  Uiso   1.00
C151   C     0.80293   0.18774   0.42068   0.00000  Uiso   1.00
C152   C     0.99336   0.17653   0.23579   0.00000  Uiso   1.00
C153   C     0.67413   0.15754   0.26413   0.00000  Uiso   1.00
C154   C     0.84722   0.32253   0.23641   0.00000  Uiso   1.00
C155   C     0.81874   0.01180   0.26403   0.00000  Uiso   1.00
C156   C     0.82290   0.05591   0.26020   0.00000  Uiso   1.00
C157   C     0.84329   0.27795   0.24015   0.00000  Uiso   1.00
C158   C     0.74392   0.18337   0.48809   0.00000  Uiso   1.00
C159   C     0.85221   0.14829   0.12938   0.00000  Uiso   1.00
C160   C     0.81533   0.18485   0.37102   0.00000  Uiso   1.00
C161   C     0.91265   0.13350   0.00995   0.00000  Uiso   1.00
C162   C     0.86091   0.14205   0.08098   0.00000  Uiso   1.00
C163   C     0.75978   0.19206   0.44313   0.00000  Uiso   1.00
C164   C     0.94045   0.11697   0.39006   0.00000  Uiso   1.00
C165   C     0.70898   0.16817   0.40557   0.00000  Uiso   1.00
C166   C     0.73826   0.10523   0.03899   0.00000  Uiso   1.00
C167   C     0.69700   0.22330   0.03487   0.00000  Uiso   1.00
C168   C     0.90464   0.24230   0.39991   0.00000  Uiso   1.00
C169   C     0.76943   0.16645   0.00969   0.00000  Uiso   1.00
C170   C     0.81436   0.16690   0.49000   0.00000  Uiso   1.00
C171   C     0.83117   0.17835   0.44506   0.00000  Uiso   1.00
C172   C     0.84304   0.15540   0.01289   0.00000  Uiso   1.00
C173   C     0.88515   0.14779   0.48840   0.00000  Uiso   1.00
C174   C     0.90048   0.15786   0.44380   0.00000  Uiso   1.00
C175   C     0.87586   0.17893   0.42518   0.00000  Uiso   1.00
H176   H     0.68242   0.19395   0.20948   0.00000  Uiso   1.00
H177   H     0.80436   0.16640   0.08113   0.00000  Uiso   1.00
H178   H     0.68562   0.15282   0.43400   0.00000  Uiso   1.00
H179   H     0.73016   0.14537   0.38522   0.00000  Uiso   1.00
H180   H     0.69089   0.17782   0.38355   0.00000  Uiso   1.00
H181   H     0.76736   0.08957   0.02302   0.00000  Uiso   1.00
H182   H     0.71562   0.10000   0.01714   0.00000  Uiso   1.00
H183   H     0.72196   0.09046   0.07069   0.00000  Uiso   1.00
H184   H     0.70894   0.25023   0.01366   0.00000  Uiso   1.00
H185   H     0.71396   0.22557   0.06193   0.00000  Uiso   1.00
H186   H     0.99585   0.22505   0.05115   0.00000  Uiso   1.00
H187   H     0.92300   0.12204   0.07262   0.00000  Uiso   1.00
H188   H     0.92553   0.24741   0.42361   0.00000  Uiso   1.00
H189   H     0.87436   0.25634   0.41485   0.00000  Uiso   1.00
H190   H     0.92195   0.25875   0.36954   0.00000  Uiso   1.00
H191   H     0.98570   0.14025   0.29086   0.00000  Uiso   1.00
H192   H     0.87351   0.00375   0.21098   0.00000  Uiso   1.00
H193   H     0.79212   0.33137   0.28962   0.00000  Uiso   1.00
H194   H     0.92347   0.12145   0.36453   0.00000  Uiso   1.00
H195   H     0.92516   0.08861   0.40806   0.00000  Uiso   1.00
H196   H     0.97370   0.11160   0.37195   0.00000  Uiso   1.00
H197   H     0.94452   0.12673   0.49173   0.00000  Uiso   1.00
O198   O     0.83333   0.16667   0.25000   0.00000  Uiso   1.00
O199   O     0.82118   0.12637   0.15459   0.00000  Uiso   1.00
O200   O     0.79607   0.20391   0.34968   0.00000  Uiso   1.00
O201   O     0.87491   0.17759   0.14606   0.00000  Uiso   1.00
O202   O     0.84118   0.15880   0.34968   0.00000  Uiso   1.00
O203   O     0.94198   0.15255   0.42024   0.00000  Uiso   1.00
O204   O     0.73245   0.20413   0.42089   0.00000  Uiso   1.00
O205   O     0.74901   0.14812   0.04921   0.00000  Uiso   1.00
O206   O     0.70098   0.18512   0.00879   0.00000  Uiso   1.00
O207   O     0.89639   0.19959   0.38710   0.00000  Uiso   1.00
O208   O     0.84597   0.08019   0.28213   0.00000  Uiso   1.00
O209   O     0.81298   0.26085   0.27014   0.00000  Uiso   1.00
O210   O     0.74078   0.13291   0.23413   0.00000  Uiso   1.00
O211   O     0.93360   0.19272   0.21361   0.00000  Uiso   1.00
O212   O     0.73738   0.18878   0.28213   0.00000  Uiso   1.00
O213   O     0.92158   0.15226   0.27013   0.00000  Uiso   1.00
O214   O     0.80426   0.06944   0.23413   0.00000  Uiso   1.00
O215   O     0.87012   0.25620   0.21361   0.00000  Uiso   1.00
Zn216  Zn    0.86005   0.13994   0.28734   0.00000  Uiso   1.00
Zn217  Zn    0.80046   0.12458   0.21876   0.00000  Uiso   1.00
Zn218  Zn    0.87723   0.19775   0.20657   0.00000  Uiso   1.00
Zn219  Zn    0.79560   0.20439   0.28734   0.00000  Uiso   1.00
C220   C     0.05276   0.49312   0.26000   0.00000  Uiso   1.00
C221   C     0.16579   0.48742   0.05980   0.00000  Uiso   1.00
C222   C     0.23387   0.46408   0.05606   0.00000  Uiso   1.00
C223   C     0.28082   0.50719   0.23999   0.00000  Uiso   1.00
C224   C     0.13627   0.52108   0.42068   0.00000  Uiso   1.00
C225   C     0.32669   0.50986   0.23579   0.00000  Uiso   1.00
C226   C     0.00746   0.49088   0.26413   0.00000  Uiso   1.00
C227   C     0.18055   0.65587   0.23641   0.00000  Uiso   1.00
C228   C     0.15207   0.34514   0.26403   0.00000  Uiso   1.00
C229   C     0.15623   0.38924   0.26020   0.00000  Uiso   1.00
C230   C     0.17663   0.61128   0.24015   0.00000  Uiso   1.00
C231   C     0.07725   0.51671   0.48809   0.00000  Uiso   1.00
C232   C     0.18555   0.48162   0.12938   0.00000  Uiso   1.00
C233   C     0.14866   0.51818   0.37102   0.00000  Uiso   1.00
C234   C     0.24598   0.46684   0.00995   0.00000  Uiso   1.00
C235   C     0.19425   0.47539   0.08098   0.00000  Uiso   1.00
C236   C     0.09311   0.52539   0.44313   0.00000  Uiso   1.00
C237   C     0.27378   0.45031   0.39006   0.00000  Uiso   1.00
C238   C     0.04231   0.50151   0.40557   0.00000  Uiso   1.00
C239   C     0.07159   0.43856   0.03899   0.00000  Uiso   1.00
C240   C     0.03033   0.55663   0.03487   0.00000  Uiso   1.00
C241   C     0.23798   0.57563   0.39991   0.00000  Uiso   1.00
C242   C     0.10277   0.49978   0.00969   0.00000  Uiso   1.00
C243   C     0.14769   0.50024   0.49000   0.00000  Uiso   1.00
C244   C     0.16450   0.51168   0.44506   0.00000  Uiso   1.00
C245   C     0.17638   0.48873   0.01289   0.00000  Uiso   1.00
C246   C     0.21848   0.48112   0.48840   0.00000  Uiso   1.00
C247   C     0.23381   0.49119   0.44380   0.00000  Uiso   1.00
C248   C     0.20920   0.51227   0.42518   0.00000  Uiso   1.00
H249   H     0.01576   0.52729   0.20948   0.00000  Uiso   1.00
H250   H     0.13769   0.49974   0.08113   0.00000  Uiso   1.00
H251   H     0.01895   0.48615   0.43400   0.00000  Uiso   1.00
H252   H     0.06350   0.47870   0.38522   0.00000  Uiso   1.00
H253   H     0.02422   0.51115   0.38355   0.00000  Uiso   1.00
H254   H     0.10070   0.42291   0.02302   0.00000  Uiso   1.00
H255   H     0.04895   0.43333   0.01714   0.00000  Uiso   1.00
H256   H     0.05529   0.42380   0.07069   0.00000  Uiso   1.00
H257   H     0.04227   0.58357   0.01366   0.00000  Uiso   1.00
H258   H     0.04729   0.55890   0.06193   0.00000  Uiso   1.00
H259   H     0.32919   0.55839   0.05115   0.00000  Uiso   1.00
H260   H     0.25633   0.45538   0.07262   0.00000  Uiso   1.00
H261   H     0.25886   0.58074   0.42361   0.00000  Uiso   1.00
H262   H     0.20769   0.58967   0.41485   0.00000  Uiso   1.00
H263   H     0.25528   0.59208   0.36954   0.00000  Uiso   1.00
H264   H     0.31904   0.47358   0.29086   0.00000  Uiso   1.00
H265   H     0.20684   0.33708   0.21098   0.00000  Uiso   1.00
H266   H     0.12545   0.66470   0.28962   0.00000  Uiso   1.00
H267   H     0.25680   0.45479   0.36453   0.00000  Uiso   1.00
H268   H     0.25850   0.42195   0.40806   0.00000  Uiso   1.00
H269   H     0.30703   0.44493   0.37195   0.00000  Uiso   1.00
H270   H     0.27785   0.46006   0.49173   0.00000  Uiso   1.00
O271   O     0.16667   0.50000   0.25000   0.00000  Uiso   1.00
O272   O     0.15451   0.45970   0.15459   0.00000  Uiso   1.00
O273   O     0.12940   0.53724   0.34968   0.00000  Uiso   1.00
O274   O     0.20824   0.51092   0.14606   0.00000  Uiso   1.00
O275   O     0.17451   0.49213   0.34968   0.00000  Uiso   1.00
O276   O     0.27531   0.48588   0.42024   0.00000  Uiso   1.00
O277   O     0.06578   0.53746   0.42089   0.00000  Uiso   1.00
O278   O     0.08235   0.48146   0.04921   0.00000  Uiso   1.00
O279   O     0.03432   0.51845   0.00879   0.00000  Uiso   1.00
O280   O     0.22972   0.53292   0.38710   0.00000  Uiso   1.00
O281   O     0.17930   0.41352   0.28213   0.00000  Uiso   1.00
O282   O     0.14632   0.59418   0.27014   0.00000  Uiso   1.00
O283   O     0.07412   0.46625   0.23413   0.00000  Uiso   1.00
O284   O     0.26693   0.52605   0.21361   0.00000  Uiso   1.00
O285   O     0.07071   0.52211   0.28213   0.00000  Uiso   1.00
O286   O     0.25491   0.48559   0.27013   0.00000  Uiso   1.00
O287   O     0.13760   0.40277   0.23413   0.00000  Uiso   1.00
O288   O     0.20345   0.58953   0.21361   0.00000  Uiso   1.00
Zn289  Zn    0.19338   0.47327   0.28734   0.00000  Uiso   1.00
Zn290  Zn    0.13379   0.45791   0.21876   0.00000  Uiso   1.00
Zn291  Zn    0.21056   0.53109   0.20657   0.00000  Uiso   1.00
Zn292  Zn    0.12893   0.53773   0.28734   0.00000  Uiso   1.00
C293   C     0.38609   0.49312   0.26000   0.00000  Uiso   1.00
C294   C     0.49912   0.48742   0.05980   0.00000  Uiso   1.00
C295   C     0.56720   0.46408   0.05606   0.00000  Uiso   1.00
C296   C     0.61415   0.50719   0.23999   0.00000  Uiso   1.00
C297   C     0.46960   0.52108   0.42068   0.00000  Uiso   1.00
C298   C     0.66002   0.50986   0.23579   0.00000  Uiso   1.00
C299   C     0.34080   0.49088   0.26413   0.00000  Uiso   1.00
C300   C     0.51388   0.65587   0.23641   0.00000  Uiso   1.00
C301   C     0.48540   0.34514   0.26403   0.00000  Uiso   1.00
C302   C     0.48957   0.38924   0.26020   0.00000  Uiso   1.00
C303   C     0.50996   0.61128   0.24015   0.00000  Uiso   1.00
C304   C     0.41058   0.51671   0.48809   0.00000  Uiso   1.00
C305   C     0.51888   0.48162   0.12938   0.00000  Uiso   1.00
C306   C     0.48199   0.51818   0.37102   0.00000  Uiso   1.00
C307   C     0.57932   0.46684   0.00995   0.00000  Uiso   1.00
C308   C     0.52758   0.47539   0.08098   0.00000  Uiso   1.00
C309   C     0.42645   0.52539   0.44313   0.00000  Uiso   1.00
C310   C     0.60712   0.45031   0.39006   0.00000  Uiso   1.00
C311   C     0.37564   0.50151   0.40557   0.00000  Uiso   1.00
C312   C     0.40493   0.43856   0.03899   0.00000  Uiso   1.00
C313   C     0.36366   0.55663   0.03487   0.00000  Uiso   1.00
C314   C     0.57131   0.57563   0.39991   0.00000  Uiso   1.00
C315   C     0.43610   0.49978   0.00969   0.00000  Uiso   1.00
C316   C     0.48102   0.50024   0.49000   0.00000  Uiso   1.00
C317   C     0.49783   0.51168   0.44506   0.00000  Uiso   1.00
C318   C     0.50971   0.48873   0.01289   0.00000  Uiso   1.00
C319   C     0.55181   0.48112   0.48840   0.00000  Uiso   1.00
C320   C     0.56714   0.49119   0.44380   0.00000  Uiso   1.00
C321   C     0.54253   0.51227   0.42518   0.00000  Uiso   1.00
H322   H     0.34909   0.52729   0.20948   0.00000  Uiso   1.00
H323   H     0.47102   0.49974   0.08113   0.00000  Uiso   1.00
H324   H     0.35229   0.48615   0.43400   0.00000  Uiso   1.00
H325   H     0.39683   0.47870   0.38522   0.00000  Uiso   1.00
H326   H     0.35755   0.51115   0.38355   0.00000  Uiso   1.00
H327   H     0.43403   0.42291   0.02302   0.00000  Uiso   1.00
H328   H     0.38229   0.43333   0.01714   0.00000  Uiso   1.00
H329   H     0.38862   0.42380   0.07069   0.00000  Uiso   1.00
H330   H     0.37560   0.58357   0.01366   0.00000  Uiso   1.00
H331   H     0.38063   0.55890   0.06193   0.00000  Uiso   1.00
H332   H     0.66252   0.55839   0.05115   0.00000  Uiso   1.00
H333   H     0.58967   0.45538   0.07262   0.00000  Uiso   1.00
H334   H     0.59220   0.58074   0.42361   0.00000  Uiso   1.00
H335   H     0.54102   0.58967   0.41485   0.00000  Uiso   1.00
H336   H     0.58861   0.59208   0.36954   0.00000  Uiso   1.00
H337   H     0.65237   0.47358   0.29086   0.00000  Uiso   1.00
H338   H     0.54018   0.33708   0.21098   0.00000  Uiso   1.00
H339   H     0.45878   0.66470   0.28962   0.00000  Uiso   1.00
H340   H     0.59013   0.45479   0.36453   0.00000  Uiso   1.00
H341   H     0.59183   0.42195   0.40806   0.00000  Uiso   1.00
H342   H     0.64037   0.44493   0.37195   0.00000  Uiso   1.00
H343   H     0.61119   0.46006   0.49173   0.00000  Uiso   1.00
O344   O     0.50000   0.50000   0.25000   0.00000  Uiso   1.00
O345   O     0.48784   0.45970   0.15459   0.00000  Uiso   1.00
O346   O     0.46274   0.53724   0.34968   0.00000  Uiso   1.00
O347   O     0.54157   0.51092   0.14606   0.00000  Uiso   1.00
O348   O     0.50785   0.49213   0.34968   0.00000  Uiso   1.00
O349   O     0.60865   0.48588   0.42024   0.00000  Uiso   1.00
O350   O     0.39912   0.53746   0.42089   0.00000  Uiso   1.00
O351   O     0.41568   0.48146   0.04921   0.00000  Uiso   1.00
O352   O     0.36765   0.51845   0.00879   0.00000  Uiso   1.00
O353   O     0.56305   0.53292   0.38710   0.00000  Uiso   1.00
O354   O     0.51264   0.41352   0.28213   0.00000  Uiso   1.00
O355   O     0.47965   0.59418   0.27014   0.00000  Uiso   1.00
O356   O     0.40745   0.46625   0.23413   0.00000  Uiso   1.00
O357   O     0.60026   0.52605   0.21361   0.00000  Uiso   1.00
O358   O     0.40405   0.52211   0.28213   0.00000  Uiso   1.00
O359   O     0.58824   0.48559   0.27013   0.00000  Uiso   1.00
O360   O     0.47093   0.40277   0.23413   0.00000  Uiso   1.00
O361   O     0.53678   0.58953   0.21361   0.00000  Uiso   1.00
Zn362  Zn    0.52672   0.47327   0.28734   0.00000  Uiso   1.00
Zn363  Zn    0.46713   0.45791   0.21876   0.00000  Uiso   1.00
Zn364  Zn    0.54389   0.53109   0.20657   0.00000  Uiso   1.00
Zn365  Zn    0.46226   0.53773   0.28734   0.00000  Uiso   1.00
C366   C     0.71943   0.49312   0.26000   0.00000  Uiso   1.00
C367   C     0.83245   0.48742   0.05980   0.00000  Uiso   1.00
C368   C     0.90053   0.46408   0.05606   0.00000  Uiso   1.00
C369   C     0.94749   0.50719   0.23999   0.00000  Uiso   1.00
C370   C     0.80293   0.52108   0.42068   0.00000  Uiso   1.00
C371   C     0.99336   0.50986   0.23579   0.00000  Uiso   1.00
C372   C     0.67413   0.49088   0.26413   0.00000  Uiso   1.00
C373   C     0.84722   0.65587   0.23641   0.00000  Uiso   1.00
C374   C     0.81874   0.34514   0.26403   0.00000  Uiso   1.00
C375   C     0.82290   0.38924   0.26020   0.00000  Uiso   1.00
C376   C     0.84329   0.61128   0.24015   0.00000  Uiso   1.00
C377   C     0.74392   0.51671   0.48809   0.00000  Uiso   1.00
C378   C     0.85221   0.48162   0.12938   0.00000  Uiso   1.00
C379   C     0.81533   0.51818   0.37102   0.00000  Uiso   1.00
C380   C     0.91265   0.46684   0.00995   0.00000  Uiso   1.00
C381   C     0.86091   0.47539   0.08098   0.00000  Uiso   1.00
C382   C     0.75978   0.52539   0.44313   0.00000  Uiso   1.00
C383   C     0.94045   0.45031   0.39006   0.00000  Uiso   1.00
C384   C     0.70898   0.50151   0.40557   0.00000  Uiso   1.00
C385   C     0.73826   0.43856   0.03899   0.00000  Uiso   1.00
C386   C     0.69700   0.55663   0.03487   0.00000  Uiso   1.00
C387   C     0.90464   0.57563   0.39991   0.00000  Uiso   1.00
C388   C     0.76943   0.49978   0.00969   0.00000  Uiso   1.00
C389   C     0.81436   0.50024   0.49000   0.00000  Uiso   1.00
C390   C     0.83117   0.51168   0.44506   0.00000  Uiso   1.00
C391   C     0.84304   0.48873   0.01289   0.00000  Uiso   1.00
C392   C     0.88515   0.48112   0.48840   0.00000  Uiso   1.00
C393   C     0.90048   0.49119   0.44380   0.00000  Uiso   1.00
C394   C     0.87586   0.51227   0.42518   0.00000  Uiso   1.00
H395   H     0.68242   0.52729   0.20948   0.00000  Uiso   1.00
H396   H     0.80436   0.49974   0.08113   0.00000  Uiso   1.00
H397   H     0.68562   0.48615   0.43400   0.00000  Uiso   1.00
H398   H     0.73016   0.47870   0.38522   0.00000  Uiso   1.00
H399   H     0.69089   0.51115   0.38355   0.00000  Uiso   1.00
H400   H     0.76736   0.42291   0.02302   0.00000  Uiso   1.00
H401   H     0.71562   0.43333   0.01714   0.00000  Uiso   1.00
H402   H     0.72196   0.42380   0.07069   0.00000  Uiso   1.00
H403   H     0.70894   0.58357   0.01366   0.00000  Uiso   1.00
H404   H     0.71396   0.55890   0.06193   0.00000  Uiso   1.00
H405   H     0.99585   0.55839   0.05115   0.00000  Uiso   1.00
H406   H     0.92300   0.45538   0.07262   0.00000  Uiso   1.00
H407   H     0.92553   0.58074   0.42361   0.00000  Uiso   1.00
H408   H     0.87436   0.58967   0.41485   0.00000  Uiso   1.00
H409   H     0.92195   0.59208   0.36954   0.00000  Uiso   1.00
H410   H     0.98570   0.47358   0.29086   0.00000  Uiso   1.00
H411   H     0.87351   0.33708   0.21098   0.00000  Uiso   1.00
H412   H     0.79212   0.66470   0.28962   0.00000  Uiso   1.00
H413   H     0.92347   0.45479   0.36453   0.00000  Uiso   1.00
H414   H     0.92516   0.42195   0.40806   0.00000  Uiso   1.00
H415   H     0.97370   0.44493   0.37195   0.00000  Uiso   1.00
H416   H     0.94452   0.46006   0.49173   0.00000  Uiso   1.00
O417   O     0.83333   0.50000   0.25000   0.00000  Uiso   1.00
O418   O     0.82118   0.45970   0.15459   0.00000  Uiso   1.00
O419   O     0.79607   0.53724   0.34968   0.00000  Uiso   1.00
O420   O     0.87491   0.51092   0.14606   0.00000  Uiso   1.00
O421   O     0.84118   0.49213   0.34968   0.00000  Uiso   1.00
O422   O     0.94198   0.48588   0.42024   0.00000  Uiso   1.00
O423   O     0.73245   0.53746   0.42089   0.00000  Uiso   1.00
O424   O     0.74901   0.48146   0.04921   0.00000  Uiso   1.00
O425   O     0.70098   0.51845   0.00879   0.00000  Uiso   1.00
O426   O     0.89639   0.53292   0.38710   0.00000  Uiso   1.00
O427   O     0.84597   0.41352   0.28213   0.00000  Uiso   1.00
O428   O     0.81298   0.59418   0.27014   0.00000  Uiso   1.00
O429   O     0.74078   0.46625   0.23413   0.00000  Uiso   1.00
O430   O     0.93360   0.52605   0.21361   0.00000  Uiso   1.00
O431   O     0.73738   0.52211   0.28213   0.00000  Uiso   1.00
O432   O     0.92158   0.48559   0.27013   0.00000  Uiso   1.00
O433   O     0.80426   0.40277   0.23413   0.00000  Uiso   1.00
O434   O     0.87012   0.58953   0.21361   0.00000  Uiso   1.00
Zn435  Zn    0.86005   0.47327   0.28734   0.00000  Uiso   1.00
Zn436  Zn    0.80046   0.45791   0.21876   0.00000  Uiso   1.00
Zn437  Zn    0.87723   0.53109   0.20657   0.00000  Uiso   1.00
Zn438  Zn    0.79560   0.53773   0.28734   0.00000  Uiso   1.00
C439   C     0.05276   0.82645   0.26000   0.00000  Uiso   1.00
C440   C     0.16579   0.82075   0.05980   0.00000  Uiso   1.00
C441   C     0.23387   0.79741   0.05606   0.00000  Uiso   1.00
C442   C     0.28082   0.84052   0.23999   0.00000  Uiso   1.00
C443   C     0.13627   0.85441   0.42068   0.00000  Uiso   1.00
C444   C     0.32669   0.84319   0.23579   0.00000  Uiso   1.00
C445   C     0.00746   0.82421   0.26413   0.00000  Uiso   1.00
C446   C     0.18055   0.98920   0.23641   0.00000  Uiso   1.00
C447   C     0.15207   0.67847   0.26403   0.00000  Uiso   1.00
C448   C     0.15623   0.72257   0.26020   0.00000  Uiso   1.00
C449   C     0.17663   0.94461   0.24015   0.00000  Uiso   1.00
C450   C     0.07725   0.85004   0.48809   0.00000  Uiso   1.00
C451   C     0.18555   0.81495   0.12938   0.00000  Uiso   1.00
C452   C     0.14866   0.85152   0.37102   0.00000  Uiso   1.00
C453   C     0.24598   0.80017   0.00995   0.00000  Uiso   1.00
C454   C     0.19425   0.80872   0.08098   0.00000  Uiso   1.00
C455   C     0.09311   0.85873   0.44313   0.00000  Uiso   1.00
C456   C     0.27378   0.78364   0.39006   0.00000  Uiso   1.00
C457   C     0.04231   0.83484   0.40557   0.00000  Uiso   1.00
C458   C     0.07159   0.77190   0.03899   0.00000  Uiso   1.00
C459   C     0.03033   0.88997   0.03487   0.00000  Uiso   1.00
C460   C     0.23798   0.90897   0.39991   0.00000  Uiso   1.00
C461   C     0.10277   0.83312   0.00969   0.00000  Uiso   1.00
C462   C     0.14769   0.83357   0.49000   0.00000  Uiso   1.00
C463   C     0.16450   0.84501   0.44506   0.00000  Uiso   1.00
C464   C     0.17638   0.82206   0.01289   0.00000  Uiso   1.00
C465   C     0.21848   0.81445   0.48840   0.00000  Uiso   1.00
C466   C     0.23381   0.82452   0.44380   0.00000  Uiso   1.00
C467   C     0.20920   0.84560   0.42518   0.00000  Uiso   1.00
H468   H     0.01576   0.86062   0.20948   0.00000  Uiso   1.00
H469   H     0.13769   0.83307   0.08113   0.00000  Uiso   1.00
H470   H     0.01895   0.81948   0.43400   0.00000  Uiso   1.00
H471   H     0.06350   0.81203   0.38522   0.00000  Uiso   1.00
H472   H     0.02422   0.84448   0.38355   0.00000  Uiso   1.00
H473   H     0.10070   0.75624   0.02302   0.00000  Uiso   1.00
H474   H     0.04895   0.76666   0.01714   0.00000  Uiso   1.00
H475   H     0.05529   0.75713   0.07069   0.00000  Uiso   1.00
H476   H     0.04227   0.91690   0.01366   0.00000  Uiso   1.00
H477   H     0.04729   0.89224   0.06193   0.00000  Uiso   1.00
H478   H     0.32919   0.89172   0.05115   0.00000  Uiso   1.00
H479   H     0.25633   0.78871   0.07262   0.00000  Uiso   1.00
H480   H     0.25886   0.91407   0.42361   0.00000  Uiso   1.00
H481   H     0.20769   0.92301   0.41485   0.00000  Uiso   1.00
H482   H     0.25528   0.92541   0.36954   0.00000  Uiso   1.00
H483   H     0.31904   0.80691   0.29086   0.00000  Uiso   1.00
H484   H     0.20684   0.67042   0.21098   0.00000  Uiso   1.00
H485   H     0.12545   0.99803   0.28962   0.00000  Uiso   1.00
H486   H     0.25680   0.78812   0.36453   0.00000  Uiso   1.00
H487   H     0.25850   0.75528   0.40806   0.00000  Uiso   1.00
H488   H     0.30703   0.77827   0.37195   0.00000  Uiso   1.00
H489   H     0.27785   0.79339   0.49173   0.00000  Uiso   1.00
O490   O     0.16667   0.83333   0.25000   0.00000  Uiso   1.00
O491   O     0.15451   0.79304   0.15459   0.00000  Uiso   1.00
O492   O     0.12940   0.87058   0.34968   0.00000  Uiso   1.00
O493   O     0.20824   0.84425   0.14606   0.00000  Uiso   1.00
O494   O     0.17451   0.82546   0.34968   0.00000  Uiso   1.00
O495   O     0.27531   0.81922   0.42024   0.00000  Uiso   1.00
O496   O     0.06578   0.87080   0.42089   0.00000  Uiso   1.00
O497   O     0.08235   0.81479   0.04921   0.00000  Uiso   1.00
O498   O     0.03432   0.85179   0.00879   0.00000  Uiso   1.00
O499   O     0.22972   0.86626   0.38710   0.00000  Uiso   1.00
O500   O     0.17930   0.74686   0.28213   0.00000  Uiso   1.00
O501   O     0.14632   0.92751   0.27014   0.00000  Uiso   1.00
O502   O     0.07412   0.79958   0.23413   0.00000  Uiso   1.00
O503   O     0.26693   0.85939   0.21361   0.00000  Uiso   1.00
O504   O     0.07071   0.85544   0.28213   0.00000  Uiso   1.00
O505   O     0.25491   0.81892   0.27013   0.00000  Uiso   1.00
O506   O     0.13760   0.73610   0.23413   0.00000  Uiso   1.00
O507   O     0.20345   0.92286   0.21361   0.00000  Uiso   1.00
Zn508  Zn    0.19338   0.80661   0.28734   0.00000  Uiso   1.00
Zn509  Zn    0.13379   0.79124   0.21876   0.00000  Uiso   1.00
Zn510  Zn    0.21056   0.86442   0.20657   0.00000  Uiso   1.00
Zn511  Zn    0.12893   0.87106   0.28734   0.00000  Uiso   1.00
C512   C     0.38609   0.82645   0.26000   0.00000  Uiso   1.00
C513   C     0.49912   0.82075   0.05980   0.00000  Uiso   1.00
C514   C     0.56720   0.79741   0.05606   0.00000  Uiso   1.00
C515   C     0.61415   0.84052   0.23999   0.00000  Uiso   1.00
C516   C     0.46960   0.85441   0.42068   0.00000  Uiso   1.00
C517   C     0.66002   0.84319   0.23579   0.00000  Uiso   1.00
C518   C     0.34080   0.82421   0.26413   0.00000  Uiso   1.00
C519   C     0.51388   0.98920   0.23641   0.00000  Uiso   1.00
C520   C     0.48540   0.67847   0.26403   0.00000  Uiso   1.00
C521   C     0.48957   0.72257   0.26020   0.00000  Uiso   1.00
C522   C     0.50996   0.94461   0.24015   0.00000  Uiso   1.00
C523   C     0.41058   0.85004   0.48809   0.00000  Uiso   1.00
C524   C     0.51888   0.81495   0.12938   0.00000  Uiso   1.00
C525   C     0.48199   0.85152   0.37102   0.00000  Uiso   1.00
C526   C     0.57932   0.80017   0.00995   0.00000  Uiso   1.00
C527   C     0.52758   0.80872   0.08098   0.00000  Uiso   1.00
C528   C     0.42645   0.85873   0.44313   0.00000  Uiso   1.00
C529   C     0.60712   0.78364   0.39006   0.00000  Uiso   1.00
C530   C     0.37564   0.83484   0.40557   0.00000  Uiso   1.00
C531   C     0.40493   0.77190   0.03899   0.00000  Uiso   1.00
C532   C     0.36366   0.88997   0.03487   0.00000  Uiso   1.00
C533   C     0.57131   0.90897   0.39991   0.00000  Uiso   1.00
C534   C     0.43610   0.83312   0.00969   0.00000  Uiso   1.00
C535   C     0.48102   0.83357   0.49000   0.00000  Uiso   1.00
C536   C     0.49783   0.84501   0.44506   0.00000  Uiso   1.00
C537   C     0.50971   0.82206   0.01289   0.00000  Uiso   1.00
C538   C     0.55181   0.81445   0.48840   0.00000  Uiso   1.00
C539   C     0.56714   0.82452   0.44380   0.00000  Uiso   1.00
C540   C     0.54253   0.84560   0.42518   0.00000  Uiso   1.00
H541   H     0.34909   0.86062   0.20948   0.00000  Uiso   1.00
H542   H     0.47102   0.83307   0.08113   0.00000  Uiso   1.00
H543   H     0.35229   0.81948   0.43400   0.00000  Uiso   1.00
H544   H     0.39683   0.81203   0.38522   0.00000  Uiso   1.00
H545   H     0.35755   0.84448   0.38355   0.00000  Uiso   1.00
H546   H     0.43403   0.75624   0.02302   0.00000  Uiso   1.00
H547   H     0.38229   0.76666   0.01714   0.00000  Uiso   1.00
H548   H     0.38862   0.75713   0.07069   0.00000  Uiso   1.00
H549   H     0.37560   0.91690   0.01366   0.00000  Uiso   1.00
H550   H     0.38063   0.89224   0.06193   0.00000  Uiso   1.00
H551   H     0.66252   0.89172   0.05115   0.00000  Uiso   1.00
H552   H     0.58967   0.78871   0.07262   0.00000  Uiso   1.00
H553   H     0.59220   0.91407   0.42361   0.00000  Uiso   1.00
H554   H     0.54102   0.92301   0.41485   0.00000  Uiso   1.00
H555   H     0.58861   0.92541   0.36954   0.00000  Uiso   1.00
H556   H     0.65237   0.80691   0.29086   0.00000  Uiso   1.00
H557   H     0.54018   0.67042   0.21098   0.00000  Uiso   1.00
H558   H     0.45878   0.99803   0.28962   0.00000  Uiso   1.00
H559   H     0.59013   0.78812   0.36453   0.00000  Uiso   1.00
H560   H     0.59183   0.75528   0.40806   0.00000  Uiso   1.00
H561   H     0.64037   0.77827   0.37195   0.00000  Uiso   1.00
H562   H     0.61119   0.79339   0.49173   0.00000  Uiso   1.00
O563   O     0.50000   0.83333   0.25000   0.00000  Uiso   1.00
O564   O     0.48784   0.79304   0.15459   0.00000  Uiso   1.00
O565   O     0.46274   0.87058   0.34968   0.00000  Uiso   1.00
O566   O     0.54157   0.84425   0.14606   0.00000  Uiso   1.00
O567   O     0.50785   0.82546   0.34968   0.00000  Uiso   1.00
O568   O     0.60865   0.81922   0.42024   0.00000  Uiso   1.00
O569   O     0.39912   0.87080   0.42089   0.00000  Uiso   1.00
O570   O     0.41568   0.81479   0.04921   0.00000  Uiso   1.00
O571   O     0.36765   0.85179   0.00879   0.00000  Uiso   1.00
O572   O     0.56305   0.86626   0.38710   0.00000  Uiso   1.00
O573   O     0.51264   0.74686   0.28213   0.00000  Uiso   1.00
O574   O     0.47965   0.92751   0.27014   0.00000  Uiso   1.00
O575   O     0.40745   0.79958   0.23413   0.00000  Uiso   1.00
O576   O     0.60026   0.85939   0.21361   0.00000  Uiso   1.00
O577   O     0.40405   0.85544   0.28213   0.00000  Uiso   1.00
O578   O     0.58824   0.81892   0.27013   0.00000  Uiso   1.00
O579   O     0.47093   0.73610   0.23413   0.00000  Uiso   1.00
O580   O     0.53678   0.92286   0.21361   0.00000  Uiso   1.00
Zn581  Zn    0.52672   0.80661   0.28734   0.00000  Uiso   1.00
Zn582  Zn    0.46713   0.79124   0.21876   0.00000  Uiso   1.00
Zn583  Zn    0.54389   0.86442   0.20657   0.00000  Uiso   1.00
Zn584  Zn    0.46226   0.87106   0.28734   0.00000  Uiso   1.00
C585   C     0.71943   0.82645   0.26000   0.00000  Uiso   1.00
C586   C     0.83245   0.82075   0.05980   0.00000  Uiso   1.00
C587   C     0.90053   0.79741   0.05606   0.00000  Uiso   1.00
C588   C     0.94749   0.84052   0.23999   0.00000  Uiso   1.00
C589   C     0.80293   0.85441   0.42068   0.00000  Uiso   1.00
C590   C     0.99336   0.84319   0.23579   0.00000  Uiso   1.00
C591   C     0.67413   0.82421   0.26413   0.00000  Uiso   1.00
C592   C     0.84722   0.98920   0.23641   0.00000  Uiso   1.00
C593   C     0.81874   0.67847   0.26403   0.00000  Uiso   1.00
C594   C     0.82290   0.72257   0.26020   0.00000  Uiso   1.00
C595   C     0.84329   0.94461   0.24015   0.00000  Uiso   1.00
C596   C     0.74392   0.85004   0.48809   0.00000  Uiso   1.00
C597   C     0.85221   0.81495   0.12938   0.00000  Uiso   1.00
C598   C     0.81533   0.85152   0.37102   0.00000  Uiso   1.00
C599   C     0.91265   0.80017   0.00995   0.00000  Uiso   1.00
C600   C     0.86091   0.80872   0.08098   0.00000  Uiso   1.00
C601   C     0.75978   0.85873   0.44313   0.00000  Uiso   1.00
C602   C     0.94045   0.78364   0.39006   0.00000  Uiso   1.00
C603   C     0.70898   0.83484   0.40557   0.00000  Uiso   1.00
C604   C     0.73826   0.77190   0.03899   0.00000  Uiso   1.00
C605   C     0.69700   0.88997   0.03487   0.00000  Uiso   1.00
C606   C     0.90464   0.90897   0.39991   0.00000  Uiso   1.00
C607   C     0.76943   0.83312   0.00969   0.00000  Uiso   1.00
C608   C     0.81436   0.83357   0.49000   0.00000  Uiso   1.00
C609   C     0.83117   0.84501   0.44506   0.00000  Uiso   1.00
C610   C     0.84304   0.82206   0.01289   0.00000  Uiso   1.00
C611   C     0.88515   0.81445   0.48840   0.00000  Uiso   1.00
C612   C     0.90048   0.82452   0.44380   0.00000  Uiso   1.00
C613   C     0.87586   0.84560   0.42518   0.00000  Uiso   1.00
H614   H     0.68242   0.86062   0.20948   0.00000  Uiso   1.00
H615   H     0.80436   0.83307   0.08113   0.00000  Uiso   1.00
H616   H     0.68562   0.81948   0.43400   0.00000  Uiso   1.00
H617   H     0.73016   0.81203   0.38522   0.00000  Uiso   1.00
H618   H     0.69089   0.84448   0.38355   0.00000  Uiso   1.00
H619   H     0.76736   0.75624   0.02302   0.00000  Uiso   1.00
H620   H     0.71562   0.76666   0.01714   0.00000  Uiso   1.00
H621   H     0.72196   0.75713   0.07069   0.00000  Uiso   1.00
H622   H     0.70894   0.91690   0.01366   0.00000  Uiso   1.00
H623   H     0.71396   0.89224   0.06193   0.00000  Uiso   1.00
H624   H     0.99585   0.89172   0.05115   0.00000  Uiso   1.00
H625   H     0.92300   0.78871   0.07262   0.00000  Uiso   1.00
H626   H     0.92553   0.91407   0.42361   0.00000  Uiso   1.00
H627   H     0.87436   0.92301   0.41485   0.00000  Uiso   1.00
H628   H     0.92195   0.92541   0.36954   0.00000  Uiso   1.00
H629   H     0.98570   0.80691   0.29086   0.00000  Uiso   1.00
H630   H     0.87351   0.67042   0.21098   0.00000  Uiso   1.00
H631   H     0.79212   0.99803   0.28962   0.00000  Uiso   1.00
H632   H     0.92347   0.78812   0.36453   0.00000  Uiso   1.00
H633   H     0.92516   0.75528   0.40806   0.00000  Uiso   1.00
H634   H     0.97370   0.77827   0.37195   0.00000  Uiso   1.00
H635   H     0.94452   0.79339   0.49173   0.00000  Uiso   1.00
O636   O     0.83333   0.83333   0.25000   0.00000  Uiso   1.00
O637   O     0.82118   0.79304   0.15459   0.00000  Uiso   1.00
O638   O     0.79607   0.87058   0.34968   0.00000  Uiso   1.00
O639   O     0.87491   0.84425   0.14606   0.00000  Uiso   1.00
O640   O     0.84118   0.82546   0.34968   0.00000  Uiso   1.00
O641   O     0.94198   0.81922   0.42024   0.00000  Uiso   1.00
O642   O     0.73245   0.87080   0.42089   0.00000  Uiso   1.00
O643   O     0.74901   0.81479   0.04921   0.00000  Uiso   1.00
O644   O     0.70098   0.85179   0.00879   0.00000  Uiso   1.00
O645   O     0.89639   0.86626   0.38710   0.00000  Uiso   1.00
O646   O     0.84597   0.74686   0.28213   0.00000  Uiso   1.00
O647   O     0.81298   0.92751   0.27014   0.00000  Uiso   1.00
O648   O     0.74078   0.79958   0.23413   0.00000  Uiso   1.00
O649   O     0.93360   0.85939   0.21361   0.00000  Uiso   1.00
O650   O     0.73738   0.85544   0.28213   0.00000  Uiso   1.00
O651   O     0.92158   0.81892   0.27013   0.00000  Uiso   1.00
O652   O     0.80426   0.73610   0.23413   0.00000  Uiso   1.00
O653   O     0.87012   0.92286   0.21361   0.00000  Uiso   1.00
Zn654  Zn    0.86005   0.80661   0.28734   0.00000  Uiso   1.00
Zn655  Zn    0.80046   0.79124   0.21876   0.00000  Uiso   1.00
Zn656  Zn    0.87723   0.86442   0.20657   0.00000  Uiso   1.00
Zn657  Zn    0.79560   0.87106   0.28734   0.00000  Uiso   1.00
C658   C     0.05276   0.15979   0.76000   0.00000  Uiso   1.00
C659   C     0.16579   0.15408   0.55980   0.00000  Uiso   1.00
C660   C     0.23387   0.13074   0.55606   0.00000  Uiso   1.00
C661   C     0.28082   0.17386   0.73999   0.00000  Uiso   1.00
C662   C     0.13627   0.18774   0.92068   0.00000  Uiso   1.00
C663   C     0.32669   0.17653   0.73579   0.00000  Uiso   1.00
C664   C     0.00746   0.15754   0.76413   0.00000  Uiso   1.00
C665   C     0.18055   0.32253   0.73641   0.00000  Uiso   1.00
C666   C     0.15207   0.01180   0.76403   0.00000  Uiso   1.00
C667   C     0.15623   0.05591   0.76020   0.00000  Uiso   1.00
C668   C     0.17663   0.27795   0.74015   0.00000  Uiso   1.00
C669   C     0.07725   0.18337   0.98809   0.00000  Uiso   1.00
C670   C     0.18555   0.14829   0.62938   0.00000  Uiso   1.00
C671   C     0.14866   0.18485   0.87102   0.00000  Uiso   1.00
C672   C     0.24598   0.13350   0.50995   0.00000  Uiso   1.00
C673   C     0.19425   0.14205   0.58098   0.00000  Uiso   1.00
C674   C     0.09311   0.19206   0.94313   0.00000  Uiso   1.00
C675   C     0.27378   0.11697   0.89006   0.00000  Uiso   1.00
C676   C     0.04231   0.16817   0.90557   0.00000  Uiso   1.00
C677   C     0.07159   0.10523   0.53899   0.00000  Uiso   1.00
C678   C     0.03033   0.22330   0.53487   0.00000  Uiso   1.00
C679   C     0.23798   0.24230   0.89991   0.00000  Uiso   1.00
C680   C     0.10277   0.16645   0.50969   0.00000  Uiso   1.00
C681   C     0.14769   0.16690   0.99000   0.00000  Uiso   1.00
C682   C     0.16450   0.17835   0.94506   0.00000  Uiso   1.00
C683   C     0.17638   0.15540   0.51289   0.00000  Uiso   1.00
C684   C     0.21848   0.14779   0.98840   0.00000  Uiso   1.00
C685   C     0.23381   0.15786   0.94380   0.00000  Uiso   1.00
C686   C     0.20920   0.17893   0.92518   0.00000  Uiso   1.00
H687   H     0.01576   0.19395   0.70948   0.00000  Uiso   1.00
H688   H     0.13769   0.16640   0.58113   0.00000  Uiso   1.00
H689   H     0.01895   0.15282   0.93400   0.00000  Uiso   1.00
H690   H     0.06350   0.14537   0.88522   0.00000  Uiso   1.00
H691   H     0.02422   0.17782   0.88355   0.00000  Uiso   1.00
H692   H     0.10070   0.08957   0.52302   0.00000  Uiso   1.00
H693   H     0.04895   0.10000   0.51714   0.00000  Uiso   1.00
H694   H     0.05529   0.09046   0.57069   0.00000  Uiso   1.00
H695   H     0.04227   0.25023   0.51366   0.00000  Uiso   1.00
H696   H     0.04729   0.22557   0.56193   0.00000  Uiso   1.00
H697   H     0.32919   0.22505   0.55115   0.00000  Uiso   1.00
H698   H     0.25633   0.12204   0.57262   0.00000  Uiso   1.00
H699   H     0.25886   0.24741   0.92361   0.00000  Uiso   1.00
H700   H     0.20769   0.25634   0.91485   0.00000  Uiso   1.00
H701   H     0.25528   0.25875   0.86954   0.00000  Uiso   1.00
H702   H     0.31904   0.14025   0.79086   0.00000  Uiso   1.00
H703   H     0.20684   0.00375   0.71098   0.00000  Uiso   1.00
H704   H     0.12545   0.33137   0.78962   0.00000  Uiso   1.00
H705   H     0.25680   0.12145   0.86453   0.00000  Uiso   1.00
H706   H     0.25850   0.08861   0.90806   0.00000  Uiso   1.00
H707   H     0.30703   0.11160   0.87195   0.00000  Uiso   1.00
H708   H     0.27785   0.12673   0.99173   0.00000  Uiso   1.00
O709   O     0.16667   0.16667   0.75000   0.00000  Uiso   1.00
O710   O     0.15451   0.12637   0.65459   0.00000  Uiso   1.00
O711   O     0.12940   0.20391   0.84968   0.00000  Uiso   1.00
O712   O     0.20824   0.17759   0.64606   0.00000  Uiso   1.00
O713   O     0.17451   0.15880   0.84968   0.00000  Uiso   1.00
O714   O     0.27531   0.15255   0.92024   0.00000  Uiso   1.00
O715   O     0.06578   0.20413   0.92089   0.00000  Uiso   1.00
O716   O     0.08235   0.14812   0.54921   0.00000  Uiso   1.00
O717   O     0.03432   0.18512   0.50879   0.00000  Uiso   1.00
O718   O     0.22972   0.19959   0.88710   0.00000  Uiso   1.00
O719   O     0.17930   0.08019   0.78213   0.00000  Uiso   1.00
O720   O     0.14632   0.26085   0.77014   0.00000  Uiso   1.00
O721   O     0.07412   0.13291   0.73413   0.00000  Uiso   1.00
O722   O     0.26693   0.19272   0.71361   0.00000  Uiso   1.00
O723   O     0.07071   0.18878   0.78213   0.00000  Uiso   1.00
O724   O     0.25491   0.15226   0.77013   0.00000  Uiso   1.00
O725   O     0.13760   0.06944   0.73413   0.00000  Uiso   1.00
O726   O     0.20345   0.25620   0.71361   0.00000  Uiso   1.00
Zn727  Zn    0.19338   0.13994   0.78734   0.00000  Uiso   1.00
Zn728  Zn    0.13379   0.12458   0.71876   0.00000  Uiso   1.00
Zn729  Zn    0.21056   0.19775   0.70657   0.00000  Uiso   1.00
Zn730  Zn    0.12893   0.20439   0.78734   0.00000  Uiso   1.00
C731   C     0.38609   0.15979   0.76000   0.00000  Uiso   1.00
C732   C     0.49912   0.15408   0.55980   0.00000  Uiso   1.00
C733   C     0.56720   0.13074   0.55606   0.00000  Uiso   1.00
C734   C     0.61415   0.17386   0.73999   0.00000  Uiso   1.00
C735   C     0.46960   0.18774   0.92068   0.00000  Uiso   1.00
C736   C     0.66002   0.17653   0.73579   0.00000  Uiso   1.00
C737   C     0.34080   0.15754   0.76413   0.00000  Uiso   1.00
C738   C     0.51388   0.32253   0.73641   0.00000  Uiso   1.00
C739   C     0.48540   0.01180   0.76403   0.00000  Uiso   1.00
C740   C     0.48957   0.05591   0.76020   0.00000  Uiso   1.00
C741   C     0.50996   0.27795   0.74015   0.00000  Uiso   1.00
C742   C     0.41058   0.18337   0.98809   0.00000  Uiso   1.00
C743   C     0.51888   0.14829   0.62938   0.00000  Uiso   1.00
C744   C     0.48199   0.18485   0.87102   0.00000  Uiso   1.00
C745   C     0.57932   0.13350   0.50995   0.00000  Uiso   1.00
C746   C     0.52758   0.14205   0.58098   0.00000  Uiso   1.00
C747   C     0.42645   0.19206   0.94313   0.00000  Uiso   1.00
C748   C     0.60712   0.11697   0.89006   0.00000  Uiso   1.00
C749   C     0.37564   0.16817   0.90557   0.00000  Uiso   1.00
C750   C     0.40493   0.10523   0.53899   0.00000  Uiso   1.00
C751   C     0.36366   0.22330   0.53487   0.00000  Uiso   1.00
C752   C     0.57131   0.24230   0.89991   0.00000  Uiso   1.00
C753   C     0.43610   0.16645   0.50969   0.00000  Uiso   1.00
C754   C     0.48102   0.16690   0.99000   0.00000  Uiso   1.00
C755   C     0.49783   0.17835   0.94506   0.00000  Uiso   1.00
C756   C     0.50971   0.15540   0.51289   0.00000  Uiso   1.00
C757   C     0.55181   0.14779   0.98840   0.00000  Uiso   1.00
C758   C     0.56714   0.15786   0.94380   0.00000  Uiso   1.00
C759   C     0.54253   0.17893   0.92518   0.00000  Uiso   1.00
H760   H     0.34909   0.19395   0.70948   0.00000  Uiso   1.00
H761   H     0.47102   0.16640   0.58113   0.00000  Uiso   1.00
H762   H     0.35229   0.15282   0.93400   0.00000  Uiso   1.00
H763   H     0.39683   0.14537   0.88522   0.00000  Uiso   1.00
H764   H     0.35755   0.17782   0.88355   0.00000  Uiso   1.00
H765   H     0.43403   0.08957   0.52302   0.00000  Uiso   1.00
H766   H     0.38229   0.10000   0.51714   0.00000  Uiso   1.00
H767   H     0.38862   0.09046   0.57069   0.00000  Uiso   1.00
H768   H     0.37560   0.25023   0.51366   0.00000  Uiso   1.00
H769   H     0.38063   0.22557   0.56193   0.00000  Uiso   1.00
H770   H     0.66252   0.22505   0.55115   0.00000  Uiso   1.00
H771   H     0.58967   0.12204   0.57262   0.00000  Uiso   1.00
H772   H     0.59220   0.24741   0.92361   0.00000  Uiso   1.00
H773   H     0.54102   0.25634   0.91485   0.00000  Uiso   1.00
H774   H     0.58861   0.25875   0.86954   0.00000  Uiso   1.00
H775   H     0.65237   0.14025   0.79086   0.00000  Uiso   1.00
H776   H     0.54018   0.00375   0.71098   0.00000  Uiso   1.00
H777   H     0.45878   0.33137   0.78962   0.00000  Uiso   1.00
H778   H     0.59013   0.12145   0.86453   0.00000  Uiso   1.00
H779   H     0.59183   0.08861   0.90806   0.00000  Uiso   1.00
H780   H     0.64037   0.11160   0.87195   0.00000  Uiso   1.00
H781   H     0.61119   0.12673   0.99173   0.00000  Uiso   1.00
O782   O     0.50000   0.16667   0.75000   0.00000  Uiso   1.00
O783   O     0.48784   0.12637   0.65459   0.00000  Uiso   1.00
O784   O     0.46274   0.20391   0.84968   0.00000  Uiso   1.00
O785   O     0.54157   0.17759   0.64606   0.00000  Uiso   1.00
O786   O     0.50785   0.15880   0.84968   0.00000  Uiso   1.00
O787   O     0.60865   0.15255   0.92024   0.00000  Uiso   1.00
O788   O     0.39912   0.20413   0.92089   0.00000  Uiso   1.00
O789   O     0.41568   0.14812   0.54921   0.00000  Uiso   1.00
O790   O     0.36765   0.18512   0.50879   0.00000  Uiso   1.00
O791   O     0.56305   0.19959   0.88710   0.00000  Uiso   1.00
O792   O     0.51264   0.08019   0.78213   0.00000  Uiso   1.00
O793   O     0.47965   0.26085   0.77014   0.00000  Uiso   1.00
O794   O     0.40745   0.13291   0.73413   0.00000  Uiso   1.00
O795   O     0.60026   0.19272   0.71361   0.00000  Uiso   1.00
O796   O     0.40405   0.18878   0.78213   0.00000  Uiso   1.00
O797   O     0.58824   0.15226   0.77013   0.00000  Uiso   1.00
O798   O     0.47093   0.06944   0.73413   0.00000  Uiso   1.00
O799   O     0.53678   0.25620   0.71361   0.00000  Uiso   1.00
Zn800  Zn    0.52672   0.13994   0.78734   0.00000  Uiso   1.00
Zn801  Zn    0.46713   0.12458   0.71876   0.00000  Uiso   1.00
Zn802  Zn    0.54389   0.19775   0.70657   0.00000  Uiso   1.00
Zn803  Zn    0.46226   0.20439   0.78734   0.00000  Uiso   1.00
C804   C     0.71943   0.15979   0.76000   0.00000  Uiso   1.00
C805   C     0.83245   0.15408   0.55980   0.00000  Uiso   1.00
C806   C     0.90053   0.13074   0.55606   0.00000  Uiso   1.00
C807   C     0.94749   0.17386   0.73999   0.00000  Uiso   1.00
C808   C     0.80293   0.18774   0.92068   0.00000  Uiso   1.00
C809   C     0.99336   0.17653   0.73579   0.00000  Uiso   1.00
C810   C     0.67413   0.15754   0.76413   0.00000  Uiso   1.00
C811   C     0.84722   0.32253   0.73641   0.00000  Uiso   1.00
C812   C     0.81874   0.01180   0.76403   0.00000  Uiso   1.00
C813   C     0.82290   0.05591   0.76020   0.00000  Uiso   1.00
C814   C     0.84329   0.27795   0.74015   0.00000  Uiso   1.00
C815   C     0.74392   0.18337   0.98809   0.00000  Uiso   1.00
C816   C     0.85221   0.14829   0.62938   0.00000  Uiso   1.00
C817   C     0.81533   0.18485   0.87102   0.00000  Uiso   1.00
C818   C     0.91265   0.13350   0.50995   0.00000  Uiso   1.00
C819   C     0.86091   0.14205   0.58098   0.00000  Uiso   1.00
C820   C     0.75978   0.19206   0.94313   0.00000  Uiso   1.00
C821   C     0.94045   0.11697   0.89006   0.00000  Uiso   1.00
C822   C     0.70898   0.16817   0.90557   0.00000  Uiso   1.00
C823   C     0.73826   0.10523   0.53899   0.00000  Uiso   1.00
C824   C     0.69700   0.22330   0.53487   0.00000  Uiso   1.00
C825   C     0.90464   0.24230   0.89991   0.00000  Uiso   1.00
C826   C     0.76943   0.16645   0.50969   0.00000  Uiso   1.00
C827   C     0.81436   0.16690   0.99000   0.00000  Uiso   1.00
C828   C     0.83117   0.17835   0.94506   0.00000  Uiso   1.00
C829   C     0.84304   0.15540   0.51289   0.00000  Uiso   1.00
C830   C     0.88515   0.14779   0.98840   0.00000  Uiso   1.00
C831   C     0.90048   0.15786   0.94380   0.00000  Uiso   1.00
C832   C     0.87586   0.17893   0.92518   0.00000  Uiso   1.00
H833   H     0.68242   0.19395   0.70948   0.00000  Uiso   1.00
H834   H     0.80436   0.16640   0.58113   0.00000  Uiso   1.00
H835   H     0.68562   0.15282   0.93400   0.00000  Uiso   1.00
H836   H     0.73016   0.14537   0.88522   0.00000  Uiso   1.00
H837   H     0.69089   0.17782   0.88355   0.00000  Uiso   1.00
H838   H     0.76736   0.08957   0.52302   0.00000  Uiso   1.00
H839   H     0.71562   0.10000   0.51714   0.00000  Uiso   1.00
H840   H     0.72196   0.09046   0.57069   0.00000  Uiso   1.00
H841   H     0.70894   0.25023   0.51366   0.00000  Uiso   1.00
H842   H     0.71396   0.22557   0.56193   0.00000  Uiso   1.00
H843   H     0.99585   0.22505   0.55115   0.00000  Uiso   1.00
H844   H     0.92300   0.12204   0.57262   0.00000  Uiso   1.00
H845   H     0.92553   0.24741   0.92361   0.00000  Uiso   1.00
H846   H     0.87436   0.25634   0.91485   0.00000  Uiso   1.00
H847   H     0.92195   0.25875   0.86954   0.00000  Uiso   1.00
H848   H     0.98570   0.14025   0.79086   0.00000  Uiso   1.00
H849   H     0.87351   0.00375   0.71098   0.00000  Uiso   1.00
H850   H     0.79212   0.33137   0.78962   0.00000  Uiso   1.00
H851   H     0.92347   0.12145   0.86453   0.00000  Uiso   1.00
H852   H     0.92516   0.08861   0.90806   0.00000  Uiso   1.00
H853   H     0.97370   0.11160   0.87195   0.00000  Uiso   1.00
H854   H     0.94452   0.12673   0.99173   0.00000  Uiso   1.00
O855   O     0.83333   0.16667   0.75000   0.00000  Uiso   1.00
O856   O     0.82118   0.12637   0.65459   0.00000  Uiso   1.00
O857   O     0.79607   0.20391   0.84968   0.00000  Uiso   1.00
O858   O     0.87491   0.17759   0.64606   0.00000  Uiso   1.00
O859   O     0.84118   0.15880   0.84968   0.00000  Uiso   1.00
O860   O     0.94198   0.15255   0.92024   0.00000  Uiso   1.00
O861   O     0.73245   0.20413   0.92089   0.00000  Uiso   1.00
O862   O     0.74901   0.14812   0.54921   0.00000  Uiso   1.00
O863   O     0.70098   0.18512   0.50879   0.00000  Uiso   1.00
O864   O     0.89639   0.19959   0.88710   0.00000  Uiso   1.00
O865   O     0.84597   0.08019   0.78213   0.00000  Uiso   1.00
O866   O     0.81298   0.26085   0.77014   0.00000  Uiso   1.00
O867   O     0.74078   0.13291   0.73413   0.00000  Uiso   1.00
O868   O     0.93360   0.19272   0.71361   0.00000  Uiso   1.00
O869   O     0.73738   0.18878   0.78213   0.00000  Uiso   1.00
O870   O     0.92158   0.15226   0.77013   0.00000  Uiso   1.00
O871   O     0.80426   0.06944   0.73413   0.00000  Uiso   1.00
O872   O     0.87012   0.25620   0.71361   0.00000  Uiso   1.00
Zn873  Zn    0.86005   0.13994   0.78734   0.00000  Uiso   1.00
Zn874  Zn    0.80046   0.12458   0.71876   0.00000  Uiso   1.00
Zn875  Zn    0.87723   0.19775   0.70657   0.00000  Uiso   1.00
Zn876  Zn    0.79560   0.20439   0.78734   0.00000  Uiso   1.00
C877   C     0.05276   0.49312   0.76000   0.00000  Uiso   1.00
C878   C     0.16579   0.48742   0.55980   0.00000  Uiso   1.00
C879   C     0.23387   0.46408   0.55606   0.00000  Uiso   1.00
C880   C     0.28082   0.50719   0.73999   0.00000  Uiso   1.00
C881   C     0.13627   0.52108   0.92068   0.00000  Uiso   1.00
C882   C     0.32669   0.50986   0.73579   0.00000  Uiso   1.00
C883   C     0.00746   0.49088   0.76413   0.00000  Uiso   1.00
C884   C     0.18055   0.65587   0.73641   0.00000  Uiso   1.00
C885   C     0.15207   0.34514   0.76403   0.00000  Uiso   1.00
C886   C     0.15623   0.38924   0.76020   0.00000  Uiso   1.00
C887   C     0.17663   0.61128   0.74015   0.00000  Uiso   1.00
C888   C     0.07725   0.51671   0.98809   0.00000  Uiso   1.00
C889   C     0.18555   0.48162   0.62938   0.00000  Uiso   1.00
C890   C     0.14866   0.51818   0.87102   0.00000  Uiso   1.00
C891   C     0.24598   0.46684   0.50995   0.00000  Uiso   1.00
C892   C     0.19425   0.47539   0.58098   0.00000  Uiso   1.00
C893   C     0.09311   0.52539   0.94313   0.00000  Uiso   1.00
C894   C     0.27378   0.45031   0.89006   0.00000  Uiso   1.00
C895   C     0.04231   0.50151   0.90557   0.00000  Uiso   1.00
C896   C     0.07159   0.43856   0.53899   0.00000  Uiso   1.00
C897   C     0.03033   0.55663   0.53487   0.00000  Uiso   1.00
C898   C     0.23798   0.57563   0.89991   0.00000  Uiso   1.00
C899   C     0.10277   0.49978   0.50969   0.00000  Uiso   1.00
C900   C     0.14769   0.50024   0.99000   0.00000  Uiso   1.00
C901   C     0.16450   0.51168   0.94506   0.00000  Uiso   1.00
C902   C     0.17638   0.48873   0.51289   0.00000  Uiso   1.00
C903   C     0.21848   0.48112   0.98840   0.00000  Uiso   1.00
C904   C     0.23381   0.49119   0.94380   0.00000  Uiso   1.00
C905   C     0.20920   0.51227   0.92518   0.00000  Uiso   1.00
H906   H     0.01576   0.52729   0.70948   0.00000  Uiso   1.00
H907   H     0.13769   0.49974   0.58113   0.00000  Uiso   1.00
H908   H     0.01895   0.48615   0.93400   0.00000  Uiso   1.00
H909   H     0.06350   0.47870   0.88522   0.00000  Uiso   1.00
H910   H     0.02422   0.51115   0.88355   0.00000  Uiso   1.00
H911   H     0.10070   0.42291   0.52302   0.00000  Uiso   1.00
H912   H     0.04895   0.43333   0.51714   0.00000  Uiso   1.00
H913   H     0.05529   0.42380   0.57069   0.00000  Uiso   1.00
H914   H     0.04227   0.58357   0.51366   0.00000  Uiso   1.00
H915   H     0.04729   0.55890   0.56193   0.00000  Uiso   1.00
H916   H     0.32919   0.55839   0.55115   0.00000  Uiso   1.00
H917   H     0.25633   0.45538   0.57262   0.00000  Uiso   1.00
H918   H     0.25886   0.58074   0.92361   0.00000  Uiso   1.00
H919   H     0.20769   0.58967   0.91485   0.00000  Uiso   1.00
H920   H     0.25528   0.59208   0.86954   0.00000  Uiso   1.00
H921   H     0.31904   0.47358   0.79086   0.00000  Uiso   1.00
H922   H     0.20684   0.33708   0.71098   0.00000  Uiso   1.00
H923   H     0.12545   0.66470   0.78962   0.00000  Uiso   1.00
H924   H     0.25680   0.45479   0.86453   0.00000  Uiso   1.00
H925   H     0.25850   0.42195   0.90806   0.00000  Uiso   1.00
H926   H     0.30703   0.44493   0.87195   0.00000  Uiso   1.00
H927   H     0.27785   0.46006   0.99173   0.00000  Uiso   1.00
O928   O     0.16667   0.50000   0.75000   0.00000  Uiso   1.00
O929   O     0.15451   0.45970   0.65459   0.00000  Uiso   1.00
O930   O     0.12940   0.53724   0.84968   0.00000  Uiso   1.00
O931   O     0.20824   0.51092   0.64606   0.00000  Uiso   1.00
O932   O     0.17451   0.49213   0.84968   0.00000  Uiso   1.00
O933   O     0.27531   0.48588   0.92024   0.00000  Uiso   1.00
O934   O     0.06578   0.53746   0.92089   0.00000  Uiso   1.00
O935   O     0.08235   0.48146   0.54921   0.00000  Uiso   1.00
O936   O     0.03432   0.51845   0.50879   0.00000  Uiso   1.00
O937   O     0.22972   0.53292   0.88710   0.00000  Uiso   1.00
O938   O     0.17930   0.41352   0.78213   0.00000  Uiso   1.00
O939   O     0.14632   0.59418   0.77014   0.00000  Uiso   1.00
O940   O     0.07412   0.46625   0.73413   0.00000  Uiso   1.00
O941   O     0.26693   0.52605   0.71361   0.00000  Uiso   1.00
O942   O     0.07071   0.52211   0.78213   0.00000  Uiso   1.00
O943   O     0.25491   0.48559   0.77013   0.00000  Uiso   1.00
O944   O     0.13760   0.40277   0.73413   0.00000  Uiso   1.00
O945   O     0.20345   0.58953   0.71361   0.00000  Uiso   1.00
Zn946  Zn    0.19338   0.47327   0.78734   0.00000  Uiso   1.00
Zn947  Zn    0.13379   0.45791   0.71876   0.00000  Uiso   1.00
Zn948  Zn    0.21056   0.53109   0.70657   0.00000  Uiso   1.00
Zn949  Zn    0.12893   0.53773   0.78734   0.00000  Uiso   1.00
C950   C     0.38609   0.49312   0.76000   0.00000  Uiso   1.00
C951   C     0.49912   0.48742   0.55980   0.00000  Uiso   1.00
C952   C     0.56720   0.46408   0.55606   0.00000  Uiso   1.00
C953   C     0.61415   0.50719   0.73999   0.00000  Uiso   1.00
C954   C     0.46960   0.52108   0.92068   0.00000  Uiso   1.00
C955   C     0.66002   0.50986   0.73579   0.00000  Uiso   1.00
C956   C     0.34080   0.49088   0.76413   0.00000  Uiso   1.00
C957   C     0.51388   0.65587   0.73641   0.00000  Uiso   1.00
C958   C     0.48540   0.34514   0.76403   0.00000  Uiso   1.00
C959   C     0.48957   0.38924   0.76020   0.00000  Uiso   1.00
C960   C     0.50996   0.61128   0.74015   0.00000  Uiso   1.00
C961   C     0.41058   0.51671   0.98809   0.00000  Uiso   1.00
C962   C     0.51888   0.48162   0.62938   0.00000  Uiso   1.00
C963   C     0.48199   0.51818   0.87102   0.00000  Uiso   1.00
C964   C     0.57932   0.46684   0.50995   0.00000  Uiso   1.00
C965   C     0.52758   0.47539   0.58098   0.00000  Uiso   1.00
C966   C     0.42645   0.52539   0.94313   0.00000  Uiso   1.00
C967   C     0.60712   0.45031   0.89006   0.00000  Uiso   1.00
C968   C     0.37564   0.50151   0.90557   0.00000  Uiso   1.00
C969   C     0.40493   0.43856   0.53899   0.00000  Uiso   1.00
C970   C     0.36366   0.55663   0.53487   0.00000  Uiso   1.00
C971   C     0.57131   0.57563   0.89991   0.00000  Uiso   1.00
C972   C     0.43610   0.49978   0.50969   0.00000  Uiso   1.00
C973   C     0.48102   0.50024   0.99000   0.00000  Uiso   1.00
C974   C     0.49783   0.51168   0.94506   0.00000  Uiso   1.00
C975   C     0.50971   0.48873   0.51289   0.00000  Uiso   1.00
C976   C     0.55181   0.48112   0.98840   0.00000  Uiso   1.00
C977   C     0.56714   0.49119   0.94380   0.00000  Uiso   1.00
C978   C     0.54253   0.51227   0.92518   0.00000  Uiso   1.00
H979   H     0.34909   0.52729   0.70948   0.00000  Uiso   1.00
H980   H     0.47102   0.49974   0.58113   0.00000  Uiso   1.00
H981   H     0.35229   0.48615   0.93400   0.00000  Uiso   1.00
H982   H     0.39683   0.47870   0.88522   0.00000  Uiso   1.00
H983   H     0.35755   0.51115   0.88355   0.00000  Uiso   1.00
H984   H     0.43403   0.42291   0.52302   0.00000  Uiso   1.00
H985   H     0.38229   0.43333   0.51714   0.00000  Uiso   1.00
H986   H     0.38862   0.42380   0.57069   0.00000  Uiso   1.00
H987   H     0.37560   0.58357   0.51366   0.00000  Uiso   1.00
H988   H     0.38063   0.55890   0.56193   0.00000  Uiso   1.00
H989   H     0.66252   0.55839   0.55115   0.00000  Uiso   1.00
H990   H     0.58967   0.45538   0.57262   0.00000  Uiso   1.00
H991   H     0.59220   0.58074   0.92361   0.00000  Uiso   1.00
H992   H     0.54102   0.58967   0.91485   0.00000  Uiso   1.00
H993   H     0.58861   0.59208   0.86954   0.00000  Uiso   1.00
H994   H     0.65237   0.47358   0.79086   0.00000  Uiso   1.00
H995   H     0.54018   0.33708   0.71098   0.00000  Uiso   1.00
H996   H     0.45878   0.66470   0.78962   0.00000  Uiso   1.00
H997   H     0.59013   0.45479   0.86453   0.00000  Uiso   1.00
H998   H     0.59183   0.42195   0.90806   0.00000  Uiso   1.00
H999   H     0.64037   0.44493   0.87195   0.00000  Uiso   1.00
H1000  H     0.61119   0.46006   0.99173   0.00000  Uiso   1.00
O1001  O     0.50000   0.50000   0.75000   0.00000  Uiso   1.00
O1002  O     0.48784   0.45970   0.65459   0.00000  Uiso   1.00
O1003  O     0.46274   0.53724   0.84968   0.00000  Uiso   1.00
O1004  O     0.54157   0.51092   0.64606   0.00000  Uiso   1.00
O1005  O     0.50785   0.49213   0.84968   0.00000  Uiso   1.00
O1006  O     0.60865   0.48588   0.92024   0.00000  Uiso   1.00
O1007  O     0.39912   0.53746   0.92089   0.00000  Uiso   1.00
O1008  O     0.41568   0.48146   0.54921   0.00000  Uiso   1.00
O1009  O     0.36765   0.51845   0.50879   0.00000  Uiso   1.00
O1010  O     0.56305   0.53292   0.88710   0.00000  Uiso   1.00
O1011  O     0.51264   0.41352   0.78213   0.00000  Uiso   1.00
O1012  O     0.47965   0.59418   0.77014   0.00000  Uiso   1.00
O1013  O     0.40745   0.46625   0.73413   0.00000  Uiso   1.00
O1014  O     0.60026   0.52605   0.71361   0.00000  Uiso   1.00
O1015  O     0.40405   0.52211   0.78213   0.00000  Uiso   1.00
O1016  O     0.58824   0.48559   0.77013   0.00000  Uiso   1.00
O1017  O     0.47093   0.40277   0.73413   0.00000  Uiso   1.00
O1018  O     0.53678   0.58953   0.71361   0.00000  Uiso   1.00
Zn1019 Zn    0.52672   0.47327   0.78734   0.00000  Uiso   1.00
Zn1020 Zn    0.46713   0.45791   0.71876   0.00000  Uiso   1.00
Zn1021 Zn    0.54389   0.53109   0.70657   0.00000  Uiso   1.00
Zn1022 Zn    0.46226   0.53773   0.78734   0.00000  Uiso   1.00
C1023  C     0.71943   0.49312   0.76000   0.00000  Uiso   1.00
C1024  C     0.83245   0.48742   0.55980   0.00000  Uiso   1.00
C1025  C     0.90053   0.46408   0.55606   0.00000  Uiso   1.00
C1026  C     0.94749   0.50719   0.73999   0.00000  Uiso   1.00
C1027  C     0.80293   0.52108   0.92068   0.00000  Uiso   1.00
C1028  C     0.99336   0.50986   0.73579   0.00000  Uiso   1.00
C1029  C     0.67413   0.49088   0.76413   0.00000  Uiso   1.00
C1030  C     0.84722   0.65587   0.73641   0.00000  Uiso   1.00
C1031  C     0.81874   0.34514   0.76403   0.00000  Uiso   1.00
C1032  C     0.82290   0.38924   0.76020   0.00000  Uiso   1.00
C1033  C     0.84329   0.61128   0.74015   0.00000  Uiso   1.00
C1034  C     0.74392   0.51671   0.98809   0.00000  Uiso   1.00
C1035  C     0.85221   0.48162   0.62938   0.00000  Uiso   1.00
C1036  C     0.81533   0.51818   0.87102   0.00000  Uiso   1.00
C1037  C     0.91265   0.46684   0.50995   0.00000  Uiso   1.00
C1038  C     0.86091   0.47539   0.58098   0.00000  Uiso   1.00
C1039  C     0.75978   0.52539   0.94313   0.00000  Uiso   1.00
C1040  C     0.94045   0.45031   0.89006   0.00000  Uiso   1.00
C1041  C     0.70898   0.50151   0.90557   0.00000  Uiso   1.00
C1042  C     0.73826   0.43856   0.53899   0.00000  Uiso   1.00
C1043  C     0.69700   0.55663   0.53487   0.00000  Uiso   1.00
C1044  C     0.90464   0.57563   0.89991   0.00000  Uiso   1.00
C1045  C     0.76943   0.49978   0.50969   0.00000  Uiso   1.00
C1046  C     0.81436   0.50024   0.99000   0.00000  Uiso   1.00
C1047  C     0.83117   0.51168   0.94506   0.00000  Uiso   1.00
C1048  C     0.84304   0.48873   0.51289   0.00000  Uiso   1.00
C1049  C     0.88515   0.48112   0.98840   0.00000  Uiso   1.00
C1050  C     0.90048   0.49119   0.94380   0.00000  Uiso   1.00
C1051  C     0.87586   0.51227   0.92518   0.00000  Uiso   1.00
H1052  H     0.68242   0.52729   0.70948   0.00000  Uiso   1.00
H1053  H     0.80436   0.49974   0.58113   0.00000  Uiso   1.00
H1054  H     0.68562   0.48615   0.93400   0.00000  Uiso   1.00
H1055  H     0.73016   0.47870   0.88522   0.00000  Uiso   1.00
H1056  H     0.69089   0.51115   0.88355   0.00000  Uiso   1.00
H1057  H     0.76736   0.42291   0.52302   0.00000  Uiso   1.00
H1058  H     0.71562   0.43333   0.51714   0.00000  Uiso   1.00
H1059  H     0.72196   0.42380   0.57069   0.00000  Uiso   1.00
H1060  H     0.70894   0.58357   0.51366   0.00000  Uiso   1.00
H1061  H     0.71396   0.55890   0.56193   0.00000  Uiso   1.00
H1062  H     0.99585   0.55839   0.55115   0.00000  Uiso   1.00
H1063  H     0.92300   0.45538   0.57262   0.00000  Uiso   1.00
H1064  H     0.92553   0.58074   0.92361   0.00000  Uiso   1.00
H1065  H     0.87436   0.58967   0.91485   0.00000  Uiso   1.00
H1066  H     0.92195   0.59208   0.86954   0.00000  Uiso   1.00
H1067  H     0.98570   0.47358   0.79086   0.00000  Uiso   1.00
H1068  H     0.87351   0.33708   0.71098   0.00000  Uiso   1.00
H1069  H     0.79212   0.66470   0.78962   0.00000  Uiso   1.00
H1070  H     0.92347   0.45479   0.86453   0.00000  Uiso   1.00
H1071  H     0.92516   0.42195   0.90806   0.00000  Uiso   1.00
H1072  H     0.97370   0.44493   0.87195   0.00000  Uiso   1.00
H1073  H     0.94452   0.46006   0.99173   0.00000  Uiso   1.00
O1074  O     0.83333   0.50000   0.75000   0.00000  Uiso   1.00
O1075  O     0.82118   0.45970   0.65459   0.00000  Uiso   1.00
O1076  O     0.79607   0.53724   0.84968   0.00000  Uiso   1.00
O1077  O     0.87491   0.51092   0.64606   0.00000  Uiso   1.00
O1078  O     0.84118   0.49213   0.84968   0.00000  Uiso   1.00
O1079  O     0.94198   0.48588   0.92024   0.00000  Uiso   1.00
O1080  O     0.73245   0.53746   0.92089   0.00000  Uiso   1.00
O1081  O     0.74901   0.48146   0.54921   0.00000  Uiso   1.00
O1082  O     0.70098   0.51845   0.50879   0.00000  Uiso   1.00
O1083  O     0.89639   0.53292   0.88710   0.00000  Uiso   1.00
O1084  O     0.84597   0.41352   0.78213   0.00000  Uiso   1.00
O1085  O     0.81298   0.59418   0.77014   0.00000  Uiso   1.00
O1086  O     0.74078   0.46625   0.73413   0.00000  Uiso   1.00
O1087  O     0.93360   0.52605   0.71361   0.00000  Uiso   1.00
O1088  O     0.73738   0.52211   0.78213   0.00000  Uiso   1.00
O1089  O     0.92158   0.48559   0.77013   0.00000  Uiso   1.00
O1090  O     0.80426   0.40277   0.73413   0.00000  Uiso   1.00
O1091  O     0.87012   0.58953   0.71361   0.00000  Uiso   1.00
Zn1092 Zn    0.86005   0.47327   0.78734   0.00000  Uiso   1.00
Zn1093 Zn    0.80046   0.45791   0.71876   0.00000  Uiso   1.00
Zn1094 Zn    0.87723   0.53109   0.70657   0.00000  Uiso   1.00
Zn1095 Zn    0.79560   0.53773   0.78734   0.00000  Uiso   1.00
C1096  C     0.05276   0.82645   0.76000   0.00000  Uiso   1.00
C1097  C     0.16579   0.82075   0.55980   0.00000  Uiso   1.00
C1098  C     0.23387   0.79741   0.55606   0.00000  Uiso   1.00
C1099  C     0.28082   0.84052   0.73999   0.00000  Uiso   1.00
C1100  C     0.13627   0.85441   0.92068   0.00000  Uiso   1.00
C1101  C     0.32669   0.84319   0.73579   0.00000  Uiso   1.00
C1102  C     0.00746   0.82421   0.76413   0.00000  Uiso   1.00
C1103  C     0.18055   0.98920   0.73641   0.00000  Uiso   1.00
C1104  C     0.15207   0.67847   0.76403   0.00000  Uiso   1.00
C1105  C     0.15623   0.72257   0.76020   0.00000  Uiso   1.00
C1106  C     0.17663   0.94461   0.74015   0.00000  Uiso   1.00
C1107  C     0.07725   0.85004   0.98809   0.00000  Uiso   1.00
C1108  C     0.18555   0.81495   0.62938   0.00000  Uiso   1.00
C1109  C     0.14866   0.85152   0.87102   0.00000  Uiso   1.00
C1110  C     0.24598   0.80017   0.50995   0.00000  Uiso   1.00
C1111  C     0.19425   0.80872   0.58098   0.00000  Uiso   1.00
C1112  C     0.09311   0.85873   0.94313   0.00000  Uiso   1.00
C1113  C     0.27378   0.78364   0.89006   0.00000  Uiso   1.00
C1114  C     0.04231   0.83484   0.90557   0.00000  Uiso   1.00
C1115  C     0.07159   0.77190   0.53899   0.00000  Uiso   1.00
C1116  C     0.03033   0.88997   0.53487   0.00000  Uiso   1.00
C1117  C     0.23798   0.90897   0.89991   0.00000  Uiso   1.00
C1118  C     0.10277   0.83312   0.50969   0.00000  Uiso   1.00
C1119  C     0.14769   0.83357   0.99000   0.00000  Uiso   1.00
C1120  C     0.16450   0.84501   0.94506   0.00000  Uiso   1.00
C1121  C     0.17638   0.82206   0.51289   0.00000  Uiso   1.00
C1122  C     0.21848   0.81445   0.98840   0.00000  Uiso   1.00
C1123  C     0.23381   0.82452   0.94380   0.00000  Uiso   1.00
C1124  C     0.20920   0.84560   0.92518   0.00000  Uiso   1.00
H1125  H     0.01576   0.86062   0.70948   0.00000  Uiso   1.00
H1126  H     0.13769   0.83307   0.58113   0.00000  Uiso   1.00
H1127  H     0.01895   0.81948   0.93400   0.00000  Uiso   1.00
H1128  H     0.06350   0.81203   0.88522   0.00000  Uiso   1.00
H1129  H     0.02422   0.84448   0.88355   0.00000  Uiso   1.00
H1130  H     0.10070   0.75624   0.52302   0.00000  Uiso   1.00
H1131  H     0.04895   0.76666   0.51714   0.00000  Uiso   1.00
H1132  H     0.05529   0.75713   0.57069   0.00000  Uiso   1.00
H1133  H     0.04227   0.91690   0.51366   0.00000  Uiso   1.00
H1134  H     0.04729   0.89224   0.56193   0.00000  Uiso   1.00
H1135  H     0.32919   0.89172   0.55115   0.00000  Uiso   1.00
H1136  H     0.25633   0.78871   0.57262   0.00000  Uiso   1.00
H1137  H     0.25886   0.91407   0.92361   0.00000  Uiso   1.00
H1138  H     0.20769   0.92301   0.91485   0.00000  Uiso   1.00
H1139  H     0.25528   0.92541   0.86954   0.00000  Uiso   1.00
H1140  H     0.31904   0.80691   0.79086   0.00000  Uiso   1.00
H1141  H     0.20684   0.67042   0.71098   0.00000  Uiso   1.00
H1142  H     0.12545   0.99803   0.78962   0.00000  Uiso   1.00
H1143  H     0.25680   0.78812   0.86453   0.00000  Uiso   1.00
H1144  H     0.25850   0.75528   0.90806   0.00000  Uiso   1.00
H1145  H     0.30703   0.77827   0.87195   0.00000  Uiso   1.00
H1146  H     0.27785   0.79339   0.99173   0.00000  Uiso   1.00
O1147  O     0.16667   0.83333   0.75000   0.00000  Uiso   1.00
O1148  O     0.15451   0.79304   0.65459   0.00000  Uiso   1.00
O1149  O     0.12940   0.87058   0.84968   0.00000  Uiso   1.00
O1150  O     0.20824   0.84425   0.64606   0.00000  Uiso   1.00
O1151  O     0.17451   0.82546   0.84968   0.00000  Uiso   1.00
O1152  O     0.27531   0.81922   0.92024   0.00000  Uiso   1.00
O1153  O     0.06578   0.87080   0.92089   0.00000  Uiso   1.00
O1154  O     0.08235   0.81479   0.54921   0.00000  Uiso   1.00
O1155  O     0.03432   0.85179   0.50879   0.00000  Uiso   1.00
O1156  O     0.22972   0.86626   0.88710   0.00000  Uiso   1.00
O1157  O     0.17930   0.74686   0.78213   0.00000  Uiso   1.00
O1158  O     0.14632   0.92751   0.77014   0.00000  Uiso   1.00
O1159  O     0.07412   0.79958   0.73413   0.00000  Uiso   1.00
O1160  O     0.26693   0.85939   0.71361   0.00000  Uiso   1.00
O1161  O     0.07071   0.85544   0.78213   0.00000  Uiso   1.00
O1162  O     0.25491   0.81892   0.77013   0.00000  Uiso   1.00
O1163  O     0.13760   0.73610   0.73413   0.00000  Uiso   1.00
O1164  O     0.20345   0.92286   0.71361   0.00000  Uiso   1.00
Zn1165 Zn    0.19338   0.80661   0.78734   0.00000  Uiso   1.00
Zn1166 Zn    0.13379   0.79124   0.71876   0.00000  Uiso   1.00
Zn1167 Zn    0.21056   0.86442   0.70657   0.00000  Uiso   1.00
Zn1168 Zn    0.12893   0.87106   0.78734   0.00000  Uiso   1.00
C1169  C     0.38609   0.82645   0.76000   0.00000  Uiso   1.00
C1170  C     0.49912   0.82075   0.55980   0.00000  Uiso   1.00
C1171  C     0.56720   0.79741   0.55606   0.00000  Uiso   1.00
C1172  C     0.61415   0.84052   0.73999   0.00000  Uiso   1.00
C1173  C     0.46960   0.85441   0.92068   0.00000  Uiso   1.00
C1174  C     0.66002   0.84319   0.73579   0.00000  Uiso   1.00
C1175  C     0.34080   0.82421   0.76413   0.00000  Uiso   1.00
C1176  C     0.51388   0.98920   0.73641   0.00000  Uiso   1.00
C1177  C     0.48540   0.67847   0.76403   0.00000  Uiso   1.00
C1178  C     0.48957   0.72257   0.76020   0.00000  Uiso   1.00
C1179  C     0.50996   0.94461   0.74015   0.00000  Uiso   1.00
C1180  C     0.41058   0.85004   0.98809   0.00000  Uiso   1.00
C1181  C     0.51888   0.81495   0.62938   0.00000  Uiso   1.00
C1182  C     0.48199   0.85152   0.87102   0.00000  Uiso   1.00
C1183  C     0.57932   0.80017   0.50995   0.00000  Uiso   1.00
C1184  C     0.52758   0.80872   0.58098   0.00000  Uiso   1.00
C1185  C     0.42645   0.85873   0.94313   0.00000  Uiso   1.00
C1186  C     0.60712   0.78364   0.89006   0.00000  Uiso   1.00
C1187  C     0.37564   0.83484   0.90557   0.00000  Uiso   1.00
C1188  C     0.40493   0.77190   0.53899   0.00000  Uiso   1.00
C1189  C     0.36366   0.88997   0.53487   0.00000  Uiso   1.00
C1190  C     0.57131   0.90897   0.89991   0.00000  Uiso   1.00
C1191  C     0.43610   0.83312   0.50969   0.00000  Uiso   1.00
C1192  C     0.48102   0.83357   0.99000   0.00000  Uiso   1.00
C1193  C     0.49783   0.84501   0.94506   0.00000  Uiso   1.00
C1194  C     0.50971   0.82206   0.51289   0.00000  Uiso   1.00
C1195  C     0.55181   0.81445   0.98840   0.00000  Uiso   1.00
C1196  C     0.56714   0.82452   0.94380   0.00000  Uiso   1.00
C1197  C     0.54253   0.84560   0.92518   0.00000  Uiso   1.00
H1198  H     0.34909   0.86062   0.70948   0.00000  Uiso   1.00
H1199  H     0.47102   0.83307   0.58113   0.00000  Uiso   1.00
H1200  H     0.35229   0.81948   0.93400   0.00000  Uiso   1.00
H1201  H     0.39683   0.81203   0.88522   0.00000  Uiso   1.00
H1202  H     0.35755   0.84448   0.88355   0.00000  Uiso   1.00
H1203  H     0.43403   0.75624   0.52302   0.00000  Uiso   1.00
H1204  H     0.38229   0.76666   0.51714   0.00000  Uiso   1.00
H1205  H     0.38862   0.75713   0.57069   0.00000  Uiso   1.00
H1206  H     0.37560   0.91690   0.51366   0.00000  Uiso   1.00
H1207  H     0.38063   0.89224   0.56193   0.00000  Uiso   1.00
H1208  H     0.66252   0.89172   0.55115   0.00000  Uiso   1.00
H1209  H     0.58967   0.78871   0.57262   0.00000  Uiso   1.00
H1210  H     0.59220   0.91407   0.92361   0.00000  Uiso   1.00
H1211  H     0.54102   0.92301   0.91485   0.00000  Uiso   1.00
H1212  H     0.58861   0.92541   0.86954   0.00000  Uiso   1.00
H1213  H     0.65237   0.80691   0.79086   0.00000  Uiso   1.00
H1214  H     0.54018   0.67042   0.71098   0.00000  Uiso   1.00
H1215  H     0.45878   0.99803   0.78962   0.00000  Uiso   1.00
H1216  H     0.59013   0.78812   0.86453   0.00000  Uiso   1.00
H1217  H     0.59183   0.75528   0.90806   0.00000  Uiso   1.00
H1218  H     0.64037   0.77827   0.87195   0.00000  Uiso   1.00
H1219  H     0.61119   0.79339   0.99173   0.00000  Uiso   1.00
O1220  O     0.50000   0.83333   0.75000   0.00000  Uiso   1.00
O1221  O     0.48784   0.79304   0.65459   0.00000  Uiso   1.00
O1222  O     0.46274   0.87058   0.84968   0.00000  Uiso   1.00
O1223  O     0.54157   0.84425   0.64606   0.00000  Uiso   1.00
O1224  O     0.50785   0.82546   0.84968   0.00000  Uiso   1.00
O1225  O     0.60865   0.81922   0.92024   0.00000  Uiso   1.00
O1226  O     0.39912   0.87080   0.92089   0.00000  Uiso   1.00
O1227  O     0.41568   0.81479   0.54921   0.00000  Uiso   1.00
O1228  O     0.36765   0.85179   0.50879   0.00000  Uiso   1.00
O1229  O     0.56305   0.86626   0.88710   0.00000  Uiso   1.00
O1230  O     0.51264   0.74686   0.78213   0.00000  Uiso   1.00
O1231  O     0.47965   0.92751   0.77014   0.00000  Uiso   1.00
O1232  O     0.40745   0.79958   0.73413   0.00000  Uiso   1.00
O1233  O     0.60026   0.85939   0.71361   0.00000  Uiso   1.00
O1234  O     0.40405   0.85544   0.78213   0.00000  Uiso   1.00
O1235  O     0.58824   0.81892   0.77013   0.00000  Uiso   1.00
O1236  O     0.47093   0.73610   0.73413   0.00000  Uiso   1.00
O1237  O     0.53678   0.92286   0.71361   0.00000  Uiso   1.00
Zn1238 Zn    0.52672   0.80661   0.78734   0.00000  Uiso   1.00
Zn1239 Zn    0.46713   0.79124   0.71876   0.00000  Uiso   1.00
Zn1240 Zn    0.54389   0.86442   0.70657   0.00000  Uiso   1.00
Zn1241 Zn    0.46226   0.87106   0.78734   0.00000  Uiso   1.00
C1242  C     0.71943   0.82645   0.76000   0.00000  Uiso   1.00
C1243  C     0.83245   0.82075   0.55980   0.00000  Uiso   1.00
C1244  C     0.90053   0.79741   0.55606   0.00000  Uiso   1.00
C1245  C     0.94749   0.84052   0.73999   0.00000  Uiso   1.00
C1246  C     0.80293   0.85441   0.92068   0.00000  Uiso   1.00
C1247  C     0.99336   0.84319   0.73579   0.00000  Uiso   1.00
C1248  C     0.67413   0.82421   0.76413   0.00000  Uiso   1.00
C1249  C     0.84722   0.98920   0.73641   0.00000  Uiso   1.00
C1250  C     0.81874   0.67847   0.76403   0.00000  Uiso   1.00
C1251  C     0.82290   0.72257   0.76020   0.00000  Uiso   1.00
C1252  C     0.84329   0.94461   0.74015   0.00000  Uiso   1.00
C1253  C     0.74392   0.85004   0.98809   0.00000  Uiso   1.00
C1254  C     0.85221   0.81495   0.62938   0.00000  Uiso   1.00
C1255  C     0.81533   0.85152   0.87102   0.00000  Uiso   1.00
C1256  C     0.91265   0.80017   0.50995   0.00000  Uiso   1.00
C1257  C     0.86091   0.80872   0.58098   0.00000  Uiso   1.00
C1258  C     0.75978   0.85873   0.94313   0.00000  Uiso   1.00
C1259  C     0.94045   0.78364   0.89006   0.00000  Uiso   1.00
C1260  C     0.70898   0.83484   0.90557   0.00000  Uiso   1.00
C1261  C     0.73826   0.77190   0.53899   0.00000  Uiso   1.00
C1262  C     0.69700   0.88997   0.53487   0.00000  Uiso   1.00
C1263  C     0.90464   0.90897   0.89991   0.00000  Uiso   1.00
C1264  C     0.76943   0.83312   0.50969   0.00000  Uiso   1.00
C1265  C     0.81436   0.83357   0.99000   0.00000  Uiso   1.00
C1266  C     0.83117   0.84501   0.94506   0.00000  Uiso   1.00
C1267  C     0.84304   0.82206   0.51289   0.00000  Uiso   1.00
C1268  C     0.88515   0.81445   0.98840   0.00000  Uiso   1.00
C1269  C     0.90048   0.82452   0.94380   0.00000  Uiso   1.00
C1270  C     0.87586   0.84560   0.92518   0.00000  Uiso   1.00
H1271  H     0.68242   0.86062   0.70948   0.00000  Uiso   1.00
H1272  H     0.80436   0.83307   0.58113   0.00000  Uiso   1.00
H1273  H     0.68562   0.81948   0.93400   0.00000  Uiso   1.00
H1274  H     0.73016   0.81203   0.88522   0.00000  Uiso   1.00
H1275  H     0.69089   0.84448   0.88355   0.00000  Uiso   1.00
H1276  H     0.76736   0.75624   0.52302   0.00000  Uiso   1.00
H1277  H     0.71562   0.76666   0.51714   0.00000  Uiso   1.00
H1278  H     0.72196   0.75713   0.57069   0.00000  Uiso   1.00
H1279  H     0.70894   0.91690   0.51366   0.00000  Uiso   1.00
H1280  H     0.71396   0.89224   0.56193   0.00000  Uiso   1.00
H1281  H     0.99585   0.89172   0.55115   0.00000  Uiso   1.00
H1282  H     0.92300   0.78871   0.57262   0.00000  Uiso   1.00
H1283  H     0.92553   0.91407   0.92361   0.00000  Uiso   1.00
H1284  H     0.87436   0.92301   0.91485   0.00000  Uiso   1.00
H1285  H     0.92195   0.92541   0.86954   0.00000  Uiso   1.00
H1286  H     0.98570   0.80691   0.79086   0.00000  Uiso   1.00
H1287  H     0.87351   0.67042   0.71098   0.00000  Uiso   1.00
H1288  H     0.79212   0.99803   0.78962   0.00000  Uiso   1.00
H1289  H     0.92347   0.78812   0.86453   0.00000  Uiso   1.00
H1290  H     0.92516   0.75528   0.90806   0.00000  Uiso   1.00
H1291  H     0.97370   0.77827   0.87195   0.00000  Uiso   1.00
H1292  H     0.94452   0.79339   0.99173   0.00000  Uiso   1.00
O1293  O     0.83333   0.83333   0.75000   0.00000  Uiso   1.00
O1294  O     0.82118   0.79304   0.65459   0.00000  Uiso   1.00
O1295  O     0.79607   0.87058   0.84968   0.00000  Uiso   1.00
O1296  O     0.87491   0.84425   0.64606   0.00000  Uiso   1.00
O1297  O     0.84118   0.82546   0.84968   0.00000  Uiso   1.00
O1298  O     0.94198   0.81922   0.92024   0.00000  Uiso   1.00
O1299  O     0.73245   0.87080   0.92089   0.00000  Uiso   1.00
O1300  O     0.74901   0.81479   0.54921   0.00000  Uiso   1.00
O1301  O     0.70098   0.85179   0.50879   0.00000  Uiso   1.00
O1302  O     0.89639   0.86626   0.88710   0.00000  Uiso   1.00
O1303  O     0.84597   0.74686   0.78213   0.00000  Uiso   1.00
O1304  O     0.81298   0.92751   0.77014   0.00000  Uiso   1.00
O1305  O     0.74078   0.79958   0.73413   0.00000  Uiso   1.00
O1306  O     0.93360   0.85939   0.71361   0.00000  Uiso   1.00
O1307  O     0.73738   0.85544   0.78213   0.00000  Uiso   1.00
O1308  O     0.92158   0.81892   0.77013   0.00000  Uiso   1.00
O1309  O     0.80426   0.73610   0.73413   0.00000  Uiso   1.00
O1310  O     0.87012   0.92286   0.71361   0.00000  Uiso   1.00
Zn1311 Zn    0.86005   0.80661   0.78734   0.00000  Uiso   1.00
Zn1312 Zn    0.80046   0.79124   0.71876   0.00000  Uiso   1.00
Zn1313 Zn    0.87723   0.86442   0.70657   0.00000  Uiso   1.00
Zn1314 Zn    0.79560   0.87106   0.78734   0.00000  Uiso   1.00
loop_
_geom_bond_atom_site_label_1
_geom_bond_atom_site_label_2
_geom_bond_distance
_geom_bond_site_symmetry_2
_ccdc_geom_bond_type
C1     O66     1.271   .     A
C1     O64     1.272   .     A
C1     C7      1.440   .     S
C2     C16     1.391   .     A
C2     C26     1.408   .     A
C2     H31     1.078   .     S
C3     C15     1.388   .     A
C3     H41     1.084   .     S
C3     C16     1.394   .     A
C4     O67     1.277   .     A
C4     O65     1.281   .     A
C4     C6      1.457   .     S
C5     C14     1.481   .     S
C5     C25     1.421   .     A
C5     C17     1.413   .     A
C6     C80     1.335   .     S
C6     H103    1.087   .     S
C7     C152    1.335   1_455 S
C7     H191    1.086   1_455 S
C8     C11     1.451   .     S
C8     C228    1.331   .     S
C8     H265    1.088   .     S
C9     C10     1.435   .     S
C9     C446    1.331   1_545 S
C9     H485    1.086   1_545 S
C10    O68     1.279   .     A
C10    O62     1.279   .     A
C11    O69     1.269   .     A
C11    O63     1.270   .     A
C12    C17     1.397   .     A
C12    C680    1.399   .     S
C12    O717    1.382   .     S
C13    O53     1.278   .     A
C13    C16     1.449   .     S
C13    O55     1.271   .     A
C14    O56     1.286   .     A
C14    O54     1.281   .     A
C15    C684    1.406   1_554 S
C15    H708    1.083   1_554 S
C17    O58     1.384   .     S
C18    O57     1.411   .     S
C18    H50     1.109   .     S
C18    H49     1.114   .     S
C18    H48     1.113   .     S
C19    H32     1.111   .     S
C19    O58     1.411   .     S
C19    H33     1.113   .     S
C19    H34     1.109   .     S
C20    O59     1.410   .     S
C20    H37     1.109   .     S
C20    H36     1.113   .     S
C20    H35     1.113   .     S
C21    H39     1.114   .     S
C21    H38     1.114   .     S
C21    O60     1.409   .     S
C21    H186    1.109   1_455 S
C22    H43     1.113   .     S
C22    O61     1.409   .     S
C22    H42     1.114   .     S
C22    H44     1.109   .     S
C23    O59     1.382   .     S
C23    C669    1.399   1_554 S
C23    C681    1.427   1_554 S
C24    C25     1.425   .     A
C24    C680    1.427   .     S
C24    C683    1.426   .     S
C25    C29     1.421   .     A
C26    C681    1.426   1_554 S
C26    C684    1.422   1_554 S
C27    C28     1.398   .     A
C27    C672    1.406   .     S
C27    C683    1.422   .     S
C28    O57     1.381   .     S
C28    C29     1.394   .     A
C29    O61     1.384   .     S
H30    C152    1.087   1_455 S
H40    C94     1.109   .     S
H45    C80     1.086   .     S
H46    C446    1.088   1_545 S
H47    C228    1.086   .     S
H51    C672    1.083   .     S
O52    Zn72    1.932   .     S
O52    Zn71    1.950   .     S
O52    Zn70    1.959   .     S
O52    Zn73    1.931   .     S
O53    Zn71    1.929   .     S
O54    Zn73    1.941   .     S
O55    Zn72    1.938   .     S
O56    Zn70    1.927   .     S
O60    C669    1.382   1_554 S
O62    Zn70    1.929   .     S
O63    Zn73    1.930   .     S
O64    Zn71    1.928   .     S
O65    Zn72    1.940   .     S
O66    Zn73    1.937   .     S
O67    Zn70    1.926   .     S
O68    Zn71    1.934   .     S
O69    Zn72    1.929   .     S
C74    O139    1.271   .     A
C74    O137    1.272   .     A
C74    C80     1.440   .     S
C75    C89     1.391   .     A
C75    C99     1.408   .     A
C75    H104    1.078   .     S
C76    C88     1.388   .     A
C76    H114    1.084   .     S
C76    C89     1.394   .     A
C77    O140    1.277   .     A
C77    O138    1.281   .     A
C77    C79     1.457   .     S
C78    C87     1.481   .     S
C78    C98     1.421   .     A
C78    C90     1.413   .     A
C79    C153    1.335   .     S
C79    H176    1.087   .     S
C81    C84     1.451   .     S
C81    C301    1.331   .     S
C81    H338    1.088   .     S
C82    C83     1.435   .     S
C82    C519    1.331   1_545 S
C82    H558    1.086   1_545 S
C83    O141    1.279   .     A
C83    O135    1.279   .     A
C84    O142    1.269   .     A
C84    O136    1.270   .     A
C85    C90     1.397   .     A
C85    C753    1.399   .     S
C85    O790    1.382   .     S
C86    O126    1.278   .     A
C86    C89     1.449   .     S
C86    O128    1.271   .     A
C87    O129    1.286   .     A
C87    O127    1.281   .     A
C88    C757    1.406   1_554 S
C88    H781    1.083   1_554 S
C90    O131    1.384   .     S
C91    O130    1.411   .     S
C91    H123    1.109   .     S
C91    H122    1.114   .     S
C91    H121    1.113   .     S
C92    H105    1.111   .     S
C92    O131    1.411   .     S
C92    H106    1.113   .     S
C92    H107    1.109   .     S
C93    O132    1.410   .     S
C93    H110    1.109   .     S
C93    H109    1.113   .     S
C93    H108    1.113   .     S
C94    H112    1.114   .     S
C94    H111    1.114   .     S
C94    O133    1.409   .     S
C95    H116    1.113   .     S
C95    O134    1.409   .     S
C95    H115    1.114   .     S
C95    H117    1.109   .     S
C96    O132    1.382   .     S
C96    C742    1.399   1_554 S
C96    C754    1.427   1_554 S
C97    C98     1.425   .     A
C97    C753    1.427   .     S
C97    C756    1.426   .     S
C98    C102    1.421   .     A
C99    C754    1.426   1_554 S
C99    C757    1.422   1_554 S
C100   C101    1.398   .     A
C100   C745    1.406   .     S
C100   C756    1.422   .     S
C101   O130    1.381   .     S
C101   C102    1.394   .     A
C102   O134    1.384   .     S
H113   C167    1.109   .     S
H118   C153    1.086   .     S
H119   C519    1.088   1_545 S
H120   C301    1.086   .     S
H124   C745    1.083   .     S
O125   Zn145   1.932   .     S
O125   Zn144   1.950   .     S
O125   Zn143   1.959   .     S
O125   Zn146   1.931   .     S
O126   Zn144   1.929   .     S
O127   Zn146   1.941   .     S
O128   Zn145   1.938   .     S
O129   Zn143   1.927   .     S
O133   C742    1.382   1_554 S
O135   Zn143   1.929   .     S
O136   Zn146   1.930   .     S
O137   Zn144   1.928   .     S
O138   Zn145   1.940   .     S
O139   Zn146   1.937   .     S
O140   Zn143   1.926   .     S
O141   Zn144   1.934   .     S
O142   Zn145   1.929   .     S
C147   O212    1.271   .     A
C147   O210    1.272   .     A
C147   C153    1.440   .     S
C148   C162    1.391   .     A
C148   C172    1.408   .     A
C148   H177    1.078   .     S
C149   C161    1.388   .     A
C149   H187    1.084   .     S
C149   C162    1.394   .     A
C150   O213    1.277   .     A
C150   O211    1.281   .     A
C150   C152    1.457   .     S
C151   C160    1.481   .     S
C151   C171    1.421   .     A
C151   C163    1.413   .     A
C152   C7      1.335   1_655 S
C152   H30     1.087   1_655 S
C154   C157    1.451   .     S
C154   C374    1.331   .     S
C154   H411    1.088   .     S
C155   C156    1.435   .     S
C155   C592    1.331   1_545 S
C155   H631    1.086   1_545 S
C156   O214    1.279   .     A
C156   O208    1.279   .     A
C157   O215    1.269   .     A
C157   O209    1.270   .     A
C158   C163    1.397   .     A
C158   C826    1.399   .     S
C158   O863    1.382   .     S
C159   O199    1.278   .     A
C159   C162    1.449   .     S
C159   O201    1.271   .     A
C160   O202    1.286   .     A
C160   O200    1.281   .     A
C161   C830    1.406   1_554 S
C161   H854    1.083   1_554 S
C163   O204    1.384   .     S
C164   O203    1.411   .     S
C164   H196    1.109   .     S
C164   H195    1.114   .     S
C164   H194    1.113   .     S
C165   H178    1.111   .     S
C165   O204    1.411   .     S
C165   H179    1.113   .     S
C165   H180    1.109   .     S
C166   O205    1.410   .     S
C166   H183    1.109   .     S
C166   H182    1.113   .     S
C166   H181    1.113   .     S
C167   H185    1.114   .     S
C167   H184    1.114   .     S
C167   O206    1.409   .     S
C168   H189    1.113   .     S
C168   O207    1.409   .     S
C168   H188    1.114   .     S
C168   H190    1.109   .     S
C169   O205    1.382   .     S
C169   C815    1.399   1_554 S
C169   C827    1.427   1_554 S
C170   C171    1.425   .     A
C170   C826    1.427   .     S
C170   C829    1.426   .     S
C171   C175    1.421   .     A
C172   C827    1.426   1_554 S
C172   C830    1.422   1_554 S
C173   C174    1.398   .     A
C173   C818    1.406   .     S
C173   C829    1.422   .     S
C174   O203    1.381   .     S
C174   C175    1.394   .     A
C175   O207    1.384   .     S
H186   C21     1.109   1_655 S
H191   C7      1.086   1_655 S
H192   C592    1.088   1_545 S
H193   C374    1.086   .     S
H197   C818    1.083   .     S
O198   Zn218   1.932   .     S
O198   Zn217   1.950   .     S
O198   Zn216   1.959   .     S
O198   Zn219   1.931   .     S
O199   Zn217   1.929   .     S
O200   Zn219   1.941   .     S
O201   Zn218   1.938   .     S
O202   Zn216   1.927   .     S
O206   C815    1.382   1_554 S
O208   Zn216   1.929   .     S
O209   Zn219   1.930   .     S
O210   Zn217   1.928   .     S
O211   Zn218   1.940   .     S
O212   Zn219   1.937   .     S
O213   Zn216   1.926   .     S
O214   Zn217   1.934   .     S
O215   Zn218   1.929   .     S
C220   O285    1.271   .     A
C220   O283    1.272   .     A
C220   C226    1.440   .     S
C221   C235    1.391   .     A
C221   C245    1.408   .     A
C221   H250    1.078   .     S
C222   C234    1.388   .     A
C222   H260    1.084   .     S
C222   C235    1.394   .     A
C223   O286    1.277   .     A
C223   O284    1.281   .     A
C223   C225    1.457   .     S
C224   C233    1.481   .     S
C224   C244    1.421   .     A
C224   C236    1.413   .     A
C225   C299    1.335   .     S
C225   H322    1.087   .     S
C226   C371    1.335   1_455 S
C226   H410    1.086   1_455 S
C227   C230    1.451   .     S
C227   C447    1.331   .     S
C227   H484    1.088   .     S
C228   C229    1.435   .     S
C229   O287    1.279   .     A
C229   O281    1.279   .     A
C230   O288    1.269   .     A
C230   O282    1.270   .     A
C231   C236    1.397   .     A
C231   C899    1.399   .     S
C231   O936    1.382   .     S
C232   O272    1.278   .     A
C232   C235    1.449   .     S
C232   O274    1.271   .     A
C233   O275    1.286   .     A
C233   O273    1.281   .     A
C234   C903    1.406   1_554 S
C234   H927    1.083   1_554 S
C236   O277    1.384   .     S
C237   O276    1.411   .     S
C237   H269    1.109   .     S
C237   H268    1.114   .     S
C237   H267    1.113   .     S
C238   H251    1.111   .     S
C238   O277    1.411   .     S
C238   H252    1.113   .     S
C238   H253    1.109   .     S
C239   O278    1.410   .     S
C239   H256    1.109   .     S
C239   H255    1.113   .     S
C239   H254    1.113   .     S
C240   H258    1.114   .     S
C240   H257    1.114   .     S
C240   O279    1.409   .     S
C240   H405    1.109   1_455 S
C241   H262    1.113   .     S
C241   O280    1.409   .     S
C241   H261    1.114   .     S
C241   H263    1.109   .     S
C242   O278    1.382   .     S
C242   C888    1.399   1_554 S
C242   C900    1.427   1_554 S
C243   C244    1.425   .     A
C243   C899    1.427   .     S
C243   C902    1.426   .     S
C244   C248    1.421   .     A
C245   C900    1.426   1_554 S
C245   C903    1.422   1_554 S
C246   C247    1.398   .     A
C246   C891    1.406   .     S
C246   C902    1.422   .     S
C247   O276    1.381   .     S
C247   C248    1.394   .     A
C248   O280    1.384   .     S
H249   C371    1.087   1_455 S
H259   C313    1.109   .     S
H264   C299    1.086   .     S
H266   C447    1.086   .     S
H270   C891    1.083   .     S
O271   Zn291   1.932   .     S
O271   Zn290   1.950   .     S
O271   Zn289   1.959   .     S
O271   Zn292   1.931   .     S
O272   Zn290   1.929   .     S
O273   Zn292   1.941   .     S
O274   Zn291   1.938   .     S
O275   Zn289   1.927   .     S
O279   C888    1.382   1_554 S
O281   Zn289   1.929   .     S
O282   Zn292   1.930   .     S
O283   Zn290   1.928   .     S
O284   Zn291   1.940   .     S
O285   Zn292   1.937   .     S
O286   Zn289   1.926   .     S
O287   Zn290   1.934   .     S
O288   Zn291   1.929   .     S
C293   O358    1.271   .     A
C293   O356    1.272   .     A
C293   C299    1.440   .     S
C294   C308    1.391   .     A
C294   C318    1.408   .     A
C294   H323    1.078   .     S
C295   C307    1.388   .     A
C295   H333    1.084   .     S
C295   C308    1.394   .     A
C296   O359    1.277   .     A
C296   O357    1.281   .     A
C296   C298    1.457   .     S
C297   C306    1.481   .     S
C297   C317    1.421   .     A
C297   C309    1.413   .     A
C298   C372    1.335   .     S
C298   H395    1.087   .     S
C300   C303    1.451   .     S
C300   C520    1.331   .     S
C300   H557    1.088   .     S
C301   C302    1.435   .     S
C302   O360    1.279   .     A
C302   O354    1.279   .     A
C303   O361    1.269   .     A
C303   O355    1.270   .     A
C304   C309    1.397   .     A
C304   C972    1.399   .     S
C304   O1009   1.382   .     S
C305   O345    1.278   .     A
C305   C308    1.449   .     S
C305   O347    1.271   .     A
C306   O348    1.286   .     A
C306   O346    1.281   .     A
C307   C976    1.406   1_554 S
C307   H1000   1.083   1_554 S
C309   O350    1.384   .     S
C310   O349    1.411   .     S
C310   H342    1.109   .     S
C310   H341    1.114   .     S
C310   H340    1.113   .     S
C311   H324    1.111   .     S
C311   O350    1.411   .     S
C311   H325    1.113   .     S
C311   H326    1.109   .     S
C312   O351    1.410   .     S
C312   H329    1.109   .     S
C312   H328    1.113   .     S
C312   H327    1.113   .     S
C313   H331    1.114   .     S
C313   H330    1.114   .     S
C313   O352    1.409   .     S
C314   H335    1.113   .     S
C314   O353    1.409   .     S
C314   H334    1.114   .     S
C314   H336    1.109   .     S
C315   O351    1.382   .     S
C315   C961    1.399   1_554 S
C315   C973    1.427   1_554 S
C316   C317    1.425   .     A
C316   C972    1.427   .     S
C316   C975    1.426   .     S
C317   C321    1.421   .     A
C318   C973    1.426   1_554 S
C318   C976    1.422   1_554 S
C319   C320    1.398   .     A
C319   C964    1.406   .     S
C319   C975    1.422   .     S
C320   O349    1.381   .     S
C320   C321    1.394   .     A
C321   O353    1.384   .     S
H332   C386    1.109   .     S
H337   C372    1.086   .     S
H339   C520    1.086   .     S
H343   C964    1.083   .     S
O344   Zn364   1.932   .     S
O344   Zn363   1.950   .     S
O344   Zn362   1.959   .     S
O344   Zn365   1.931   .     S
O345   Zn363   1.929   .     S
O346   Zn365   1.941   .     S
O347   Zn364   1.938   .     S
O348   Zn362   1.927   .     S
O352   C961    1.382   1_554 S
O354   Zn362   1.929   .     S
O355   Zn365   1.930   .     S
O356   Zn363   1.928   .     S
O357   Zn364   1.940   .     S
O358   Zn365   1.937   .     S
O359   Zn362   1.926   .     S
O360   Zn363   1.934   .     S
O361   Zn364   1.929   .     S
C366   O431    1.271   .     A
C366   O429    1.272   .     A
C366   C372    1.440   .     S
C367   C381    1.391   .     A
C367   C391    1.408   .     A
C367   H396    1.078   .     S
C368   C380    1.388   .     A
C368   H406    1.084   .     S
C368   C381    1.394   .     A
C369   O432    1.277   .     A
C369   O430    1.281   .     A
C369   C371    1.457   .     S
C370   C379    1.481   .     S
C370   C390    1.421   .     A
C370   C382    1.413   .     A
C371   C226    1.335   1_655 S
C371   H249    1.087   1_655 S
C373   C376    1.451   .     S
C373   C593    1.331   .     S
C373   H630    1.088   .     S
C374   C375    1.435   .     S
C375   O433    1.279   .     A
C375   O427    1.279   .     A
C376   O434    1.269   .     A
C376   O428    1.270   .     A
C377   C382    1.397   .     A
C377   C1045   1.399   .     S
C377   O1082   1.382   .     S
C378   O418    1.278   .     A
C378   C381    1.449   .     S
C378   O420    1.271   .     A
C379   O421    1.286   .     A
C379   O419    1.281   .     A
C380   C1049   1.406   1_554 S
C380   H1073   1.083   1_554 S
C382   O423    1.384   .     S
C383   O422    1.411   .     S
C383   H415    1.109   .     S
C383   H414    1.114   .     S
C383   H413    1.113   .     S
C384   H397    1.111   .     S
C384   O423    1.411   .     S
C384   H398    1.113   .     S
C384   H399    1.109   .     S
C385   O424    1.410   .     S
C385   H402    1.109   .     S
C385   H401    1.113   .     S
C385   H400    1.113   .     S
C386   H404    1.114   .     S
C386   H403    1.114   .     S
C386   O425    1.409   .     S
C387   H408    1.113   .     S
C387   O426    1.409   .     S
C387   H407    1.114   .     S
C387   H409    1.109   .     S
C388   O424    1.382   .     S
C388   C1034   1.399   1_554 S
C388   C1046   1.427   1_554 S
C389   C390    1.425   .     A
C389   C1045   1.427   .     S
C389   C1048   1.426   .     S
C390   C394    1.421   .     A
C391   C1046   1.426   1_554 S
C391   C1049   1.422   1_554 S
C392   C393    1.398   .     A
C392   C1037   1.406   .     S
C392   C1048   1.422   .     S
C393   O422    1.381   .     S
C393   C394    1.394   .     A
C394   O426    1.384   .     S
H405   C240    1.109   1_655 S
H410   C226    1.086   1_655 S
H412   C593    1.086   .     S
H416   C1037   1.083   .     S
O417   Zn437   1.932   .     S
O417   Zn436   1.950   .     S
O417   Zn435   1.959   .     S
O417   Zn438   1.931   .     S
O418   Zn436   1.929   .     S
O419   Zn438   1.941   .     S
O420   Zn437   1.938   .     S
O421   Zn435   1.927   .     S
O425   C1034   1.382   1_554 S
O427   Zn435   1.929   .     S
O428   Zn438   1.930   .     S
O429   Zn436   1.928   .     S
O430   Zn437   1.940   .     S
O431   Zn438   1.937   .     S
O432   Zn435   1.926   .     S
O433   Zn436   1.934   .     S
O434   Zn437   1.929   .     S
C439   O504    1.271   .     A
C439   O502    1.272   .     A
C439   C445    1.440   .     S
C440   C454    1.391   .     A
C440   C464    1.408   .     A
C440   H469    1.078   .     S
C441   C453    1.388   .     A
C441   H479    1.084   .     S
C441   C454    1.394   .     A
C442   O505    1.277   .     A
C442   O503    1.281   .     A
C442   C444    1.457   .     S
C443   C452    1.481   .     S
C443   C463    1.421   .     A
C443   C455    1.413   .     A
C444   C518    1.335   .     S
C444   H541    1.087   .     S
C445   C590    1.335   1_455 S
C445   H629    1.086   1_455 S
C446   C449    1.451   .     S
C446   C9      1.331   1_565 S
C446   H46     1.088   1_565 S
C447   C448    1.435   .     S
C448   O506    1.279   .     A
C448   O500    1.279   .     A
C449   O507    1.269   .     A
C449   O501    1.270   .     A
C450   C455    1.397   .     A
C450   C1118   1.399   .     S
C450   O1155   1.382   .     S
C451   O491    1.278   .     A
C451   C454    1.449   .     S
C451   O493    1.271   .     A
C452   O494    1.286   .     A
C452   O492    1.281   .     A
C453   C1122   1.406   1_554 S
C453   H1146   1.083   1_554 S
C455   O496    1.384   .     S
C456   O495    1.411   .     S
C456   H488    1.109   .     S
C456   H487    1.114   .     S
C456   H486    1.113   .     S
C457   H470    1.111   .     S
C457   O496    1.411   .     S
C457   H471    1.113   .     S
C457   H472    1.109   .     S
C458   O497    1.410   .     S
C458   H475    1.109   .     S
C458   H474    1.113   .     S
C458   H473    1.113   .     S
C459   H477    1.114   .     S
C459   H476    1.114   .     S
C459   O498    1.409   .     S
C459   H624    1.109   1_455 S
C460   H481    1.113   .     S
C460   O499    1.409   .     S
C460   H480    1.114   .     S
C460   H482    1.109   .     S
C461   O497    1.382   .     S
C461   C1107   1.399   1_554 S
C461   C1119   1.427   1_554 S
C462   C463    1.425   .     A
C462   C1118   1.427   .     S
C462   C1121   1.426   .     S
C463   C467    1.421   .     A
C464   C1119   1.426   1_554 S
C464   C1122   1.422   1_554 S
C465   C466    1.398   .     A
C465   C1110   1.406   .     S
C465   C1121   1.422   .     S
C466   O495    1.381   .     S
C466   C467    1.394   .     A
C467   O499    1.384   .     S
H468   C590    1.087   1_455 S
H478   C532    1.109   .     S
H483   C518    1.086   .     S
H485   C9      1.086   1_565 S
H489   C1110   1.083   .     S
O490   Zn510   1.932   .     S
O490   Zn509   1.950   .     S
O490   Zn508   1.959   .     S
O490   Zn511   1.931   .     S
O491   Zn509   1.929   .     S
O492   Zn511   1.941   .     S
O493   Zn510   1.938   .     S
O494   Zn508   1.927   .     S
O498   C1107   1.382   1_554 S
O500   Zn508   1.929   .     S
O501   Zn511   1.930   .     S
O502   Zn509   1.928   .     S
O503   Zn510   1.940   .     S
O504   Zn511   1.937   .     S
O505   Zn508   1.926   .     S
O506   Zn509   1.934   .     S
O507   Zn510   1.929   .     S
C512   O577    1.271   .     A
C512   O575    1.272   .     A
C512   C518    1.440   .     S
C513   C527    1.391   .     A
C513   C537    1.408   .     A
C513   H542    1.078   .     S
C514   C526    1.388   .     A
C514   H552    1.084   .     S
C514   C527    1.394   .     A
C515   O578    1.277   .     A
C515   O576    1.281   .     A
C515   C517    1.457   .     S
C516   C525    1.481   .     S
C516   C536    1.421   .     A
C516   C528    1.413   .     A
C517   C591    1.335   .     S
C517   H614    1.087   .     S
C519   C522    1.451   .     S
C519   C82     1.331   1_565 S
C519   H119    1.088   1_565 S
C520   C521    1.435   .     S
C521   O579    1.279   .     A
C521   O573    1.279   .     A
C522   O580    1.269   .     A
C522   O574    1.270   .     A
C523   C528    1.397   .     A
C523   C1191   1.399   .     S
C523   O1228   1.382   .     S
C524   O564    1.278   .     A
C524   C527    1.449   .     S
C524   O566    1.271   .     A
C525   O567    1.286   .     A
C525   O565    1.281   .     A
C526   C1195   1.406   1_554 S
C526   H1219   1.083   1_554 S
C528   O569    1.384   .     S
C529   O568    1.411   .     S
C529   H561    1.109   .     S
C529   H560    1.114   .     S
C529   H559    1.113   .     S
C530   H543    1.111   .     S
C530   O569    1.411   .     S
C530   H544    1.113   .     S
C530   H545    1.109   .     S
C531   O570    1.410   .     S
C531   H548    1.109   .     S
C531   H547    1.113   .     S
C531   H546    1.113   .     S
C532   H550    1.114   .     S
C532   H549    1.114   .     S
C532   O571    1.409   .     S
C533   H554    1.113   .     S
C533   O572    1.409   .     S
C533   H553    1.114   .     S
C533   H555    1.109   .     S
C534   O570    1.382   .     S
C534   C1180   1.399   1_554 S
C534   C1192   1.427   1_554 S
C535   C536    1.425   .     A
C535   C1191   1.427   .     S
C535   C1194   1.426   .     S
C536   C540    1.421   .     A
C537   C1192   1.426   1_554 S
C537   C1195   1.422   1_554 S
C538   C539    1.398   .     A
C538   C1183   1.406   .     S
C538   C1194   1.422   .     S
C539   O568    1.381   .     S
C539   C540    1.394   .     A
C540   O572    1.384   .     S
H551   C605    1.109   .     S
H556   C591    1.086   .     S
H558   C82     1.086   1_565 S
H562   C1183   1.083   .     S
O563   Zn583   1.932   .     S
O563   Zn582   1.950   .     S
O563   Zn581   1.959   .     S
O563   Zn584   1.931   .     S
O564   Zn582   1.929   .     S
O565   Zn584   1.941   .     S
O566   Zn583   1.938   .     S
O567   Zn581   1.927   .     S
O571   C1180   1.382   1_554 S
O573   Zn581   1.929   .     S
O574   Zn584   1.930   .     S
O575   Zn582   1.928   .     S
O576   Zn583   1.940   .     S
O577   Zn584   1.937   .     S
O578   Zn581   1.926   .     S
O579   Zn582   1.934   .     S
O580   Zn583   1.929   .     S
C585   O650    1.271   .     A
C585   O648    1.272   .     A
C585   C591    1.440   .     S
C586   C600    1.391   .     A
C586   C610    1.408   .     A
C586   H615    1.078   .     S
C587   C599    1.388   .     A
C587   H625    1.084   .     S
C587   C600    1.394   .     A
C588   O651    1.277   .     A
C588   O649    1.281   .     A
C588   C590    1.457   .     S
C589   C598    1.481   .     S
C589   C609    1.421   .     A
C589   C601    1.413   .     A
C590   C445    1.335   1_655 S
C590   H468    1.087   1_655 S
C592   C595    1.451   .     S
C592   C155    1.331   1_565 S
C592   H192    1.088   1_565 S
C593   C594    1.435   .     S
C594   O652    1.279   .     A
C594   O646    1.279   .     A
C595   O653    1.269   .     A
C595   O647    1.270   .     A
C596   C601    1.397   .     A
C596   C1264   1.399   .     S
C596   O1301   1.382   .     S
C597   O637    1.278   .     A
C597   C600    1.449   .     S
C597   O639    1.271   .     A
C598   O640    1.286   .     A
C598   O638    1.281   .     A
C599   C1268   1.406   1_554 S
C599   H1292   1.083   1_554 S
C601   O642    1.384   .     S
C602   O641    1.411   .     S
C602   H634    1.109   .     S
C602   H633    1.114   .     S
C602   H632    1.113   .     S
C603   H616    1.111   .     S
C603   O642    1.411   .     S
C603   H617    1.113   .     S
C603   H618    1.109   .     S
C604   O643    1.410   .     S
C604   H621    1.109   .     S
C604   H620    1.113   .     S
C604   H619    1.113   .     S
C605   H623    1.114   .     S
C605   H622    1.114   .     S
C605   O644    1.409   .     S
C606   H627    1.113   .     S
C606   O645    1.409   .     S
C606   H626    1.114   .     S
C606   H628    1.109   .     S
C607   O643    1.382   .     S
C607   C1253   1.399   1_554 S
C607   C1265   1.427   1_554 S
C608   C609    1.425   .     A
C608   C1264   1.427   .     S
C608   C1267   1.426   .     S
C609   C613    1.421   .     A
C610   C1265   1.426   1_554 S
C610   C1268   1.422   1_554 S
C611   C612    1.398   .     A
C611   C1256   1.406   .     S
C611   C1267   1.422   .     S
C612   O641    1.381   .     S
C612   C613    1.394   .     A
C613   O645    1.384   .     S
H624   C459    1.109   1_655 S
H629   C445    1.086   1_655 S
H631   C155    1.086   1_565 S
H635   C1256   1.083   .     S
O636   Zn656   1.932   .     S
O636   Zn655   1.950   .     S
O636   Zn654   1.959   .     S
O636   Zn657   1.931   .     S
O637   Zn655   1.929   .     S
O638   Zn657   1.941   .     S
O639   Zn656   1.938   .     S
O640   Zn654   1.927   .     S
O644   C1253   1.382   1_554 S
O646   Zn654   1.929   .     S
O647   Zn657   1.930   .     S
O648   Zn655   1.928   .     S
O649   Zn656   1.940   .     S
O650   Zn657   1.937   .     S
O651   Zn654   1.926   .     S
O652   Zn655   1.934   .     S
O653   Zn656   1.929   .     S
C658   O723    1.271   .     A
C658   O721    1.272   .     A
C658   C664    1.440   .     S
C659   C673    1.391   .     A
C659   C683    1.408   .     A
C659   H688    1.078   .     S
C660   C672    1.388   .     A
C660   H698    1.084   .     S
C660   C673    1.394   .     A
C661   O724    1.277   .     A
C661   O722    1.281   .     A
C661   C663    1.457   .     S
C662   C671    1.481   .     S
C662   C682    1.421   .     A
C662   C674    1.413   .     A
C663   C737    1.335   .     S
C663   H760    1.087   .     S
C664   C809    1.335   1_455 S
C664   H848    1.086   1_455 S
C665   C668    1.451   .     S
C665   C885    1.331   .     S
C665   H922    1.088   .     S
C666   C667    1.435   .     S
C666   C1103   1.331   1_545 S
C666   H1142   1.086   1_545 S
C667   O725    1.279   .     A
C667   O719    1.279   .     A
C668   O726    1.269   .     A
C668   O720    1.270   .     A
C669   C674    1.397   .     A
C669   C23     1.399   1_556 S
C669   O60     1.382   1_556 S
C670   O710    1.278   .     A
C670   C673    1.449   .     S
C670   O712    1.271   .     A
C671   O713    1.286   .     A
C671   O711    1.281   .     A
C674   O715    1.384   .     S
C675   O714    1.411   .     S
C675   H707    1.109   .     S
C675   H706    1.114   .     S
C675   H705    1.113   .     S
C676   H689    1.111   .     S
C676   O715    1.411   .     S
C676   H690    1.113   .     S
C676   H691    1.109   .     S
C677   O716    1.410   .     S
C677   H694    1.109   .     S
C677   H693    1.113   .     S
C677   H692    1.113   .     S
C678   H696    1.114   .     S
C678   H695    1.114   .     S
C678   O717    1.409   .     S
C678   H843    1.109   1_455 S
C679   H700    1.113   .     S
C679   O718    1.409   .     S
C679   H699    1.114   .     S
C679   H701    1.109   .     S
C680   O716    1.382   .     S
C681   C682    1.425   .     A
C681   C23     1.427   1_556 S
C681   C26     1.426   1_556 S
C682   C686    1.421   .     A
C684   C685    1.398   .     A
C684   C15     1.406   1_556 S
C684   C26     1.422   1_556 S
C685   O714    1.381   .     S
C685   C686    1.394   .     A
C686   O718    1.384   .     S
H687   C809    1.087   1_455 S
H697   C751    1.109   .     S
H702   C737    1.086   .     S
H703   C1103   1.088   1_545 S
H704   C885    1.086   .     S
H708   C15     1.083   1_556 S
O709   Zn729   1.932   .     S
O709   Zn728   1.950   .     S
O709   Zn727   1.959   .     S
O709   Zn730   1.931   .     S
O710   Zn728   1.929   .     S
O711   Zn730   1.941   .     S
O712   Zn729   1.938   .     S
O713   Zn727   1.927   .     S
O719   Zn727   1.929   .     S
O720   Zn730   1.930   .     S
O721   Zn728   1.928   .     S
O722   Zn729   1.940   .     S
O723   Zn730   1.937   .     S
O724   Zn727   1.926   .     S
O725   Zn728   1.934   .     S
O726   Zn729   1.929   .     S
C731   O796    1.271   .     A
C731   O794    1.272   .     A
C731   C737    1.440   .     S
C732   C746    1.391   .     A
C732   C756    1.408   .     A
C732   H761    1.078   .     S
C733   C745    1.388   .     A
C733   H771    1.084   .     S
C733   C746    1.394   .     A
C734   O797    1.277   .     A
C734   O795    1.281   .     A
C734   C736    1.457   .     S
C735   C744    1.481   .     S
C735   C755    1.421   .     A
C735   C747    1.413   .     A
C736   C810    1.335   .     S
C736   H833    1.087   .     S
C738   C741    1.451   .     S
C738   C958    1.331   .     S
C738   H995    1.088   .     S
C739   C740    1.435   .     S
C739   C1176   1.331   1_545 S
C739   H1215   1.086   1_545 S
C740   O798    1.279   .     A
C740   O792    1.279   .     A
C741   O799    1.269   .     A
C741   O793    1.270   .     A
C742   C747    1.397   .     A
C742   C96     1.399   1_556 S
C742   O133    1.382   1_556 S
C743   O783    1.278   .     A
C743   C746    1.449   .     S
C743   O785    1.271   .     A
C744   O786    1.286   .     A
C744   O784    1.281   .     A
C747   O788    1.384   .     S
C748   O787    1.411   .     S
C748   H780    1.109   .     S
C748   H779    1.114   .     S
C748   H778    1.113   .     S
C749   H762    1.111   .     S
C749   O788    1.411   .     S
C749   H763    1.113   .     S
C749   H764    1.109   .     S
C750   O789    1.410   .     S
C750   H767    1.109   .     S
C750   H766    1.113   .     S
C750   H765    1.113   .     S
C751   H769    1.114   .     S
C751   H768    1.114   .     S
C751   O790    1.409   .     S
C752   H773    1.113   .     S
C752   O791    1.409   .     S
C752   H772    1.114   .     S
C752   H774    1.109   .     S
C753   O789    1.382   .     S
C754   C755    1.425   .     A
C754   C96     1.427   1_556 S
C754   C99     1.426   1_556 S
C755   C759    1.421   .     A
C757   C758    1.398   .     A
C757   C88     1.406   1_556 S
C757   C99     1.422   1_556 S
C758   O787    1.381   .     S
C758   C759    1.394   .     A
C759   O791    1.384   .     S
H770   C824    1.109   .     S
H775   C810    1.086   .     S
H776   C1176   1.088   1_545 S
H777   C958    1.086   .     S
H781   C88     1.083   1_556 S
O782   Zn802   1.932   .     S
O782   Zn801   1.950   .     S
O782   Zn800   1.959   .     S
O782   Zn803   1.931   .     S
O783   Zn801   1.929   .     S
O784   Zn803   1.941   .     S
O785   Zn802   1.938   .     S
O786   Zn800   1.927   .     S
O792   Zn800   1.929   .     S
O793   Zn803   1.930   .     S
O794   Zn801   1.928   .     S
O795   Zn802   1.940   .     S
O796   Zn803   1.937   .     S
O797   Zn800   1.926   .     S
O798   Zn801   1.934   .     S
O799   Zn802   1.929   .     S
C804   O869    1.271   .     A
C804   O867    1.272   .     A
C804   C810    1.440   .     S
C805   C819    1.391   .     A
C805   C829    1.408   .     A
C805   H834    1.078   .     S
C806   C818    1.388   .     A
C806   H844    1.084   .     S
C806   C819    1.394   .     A
C807   O870    1.277   .     A
C807   O868    1.281   .     A
C807   C809    1.457   .     S
C808   C817    1.481   .     S
C808   C828    1.421   .     A
C808   C820    1.413   .     A
C809   C664    1.335   1_655 S
C809   H687    1.087   1_655 S
C811   C814    1.451   .     S
C811   C1031   1.331   .     S
C811   H1068   1.088   .     S
C812   C813    1.435   .     S
C812   C1249   1.331   1_545 S
C812   H1288   1.086   1_545 S
C813   O871    1.279   .     A
C813   O865    1.279   .     A
C814   O872    1.269   .     A
C814   O866    1.270   .     A
C815   C820    1.397   .     A
C815   C169    1.399   1_556 S
C815   O206    1.382   1_556 S
C816   O856    1.278   .     A
C816   C819    1.449   .     S
C816   O858    1.271   .     A
C817   O859    1.286   .     A
C817   O857    1.281   .     A
C820   O861    1.384   .     S
C821   O860    1.411   .     S
C821   H853    1.109   .     S
C821   H852    1.114   .     S
C821   H851    1.113   .     S
C822   H835    1.111   .     S
C822   O861    1.411   .     S
C822   H836    1.113   .     S
C822   H837    1.109   .     S
C823   O862    1.410   .     S
C823   H840    1.109   .     S
C823   H839    1.113   .     S
C823   H838    1.113   .     S
C824   H842    1.114   .     S
C824   H841    1.114   .     S
C824   O863    1.409   .     S
C825   H846    1.113   .     S
C825   O864    1.409   .     S
C825   H845    1.114   .     S
C825   H847    1.109   .     S
C826   O862    1.382   .     S
C827   C828    1.425   .     A
C827   C169    1.427   1_556 S
C827   C172    1.426   1_556 S
C828   C832    1.421   .     A
C830   C831    1.398   .     A
C830   C161    1.406   1_556 S
C830   C172    1.422   1_556 S
C831   O860    1.381   .     S
C831   C832    1.394   .     A
C832   O864    1.384   .     S
H843   C678    1.109   1_655 S
H848   C664    1.086   1_655 S
H849   C1249   1.088   1_545 S
H850   C1031   1.086   .     S
H854   C161    1.083   1_556 S
O855   Zn875   1.932   .     S
O855   Zn874   1.950   .     S
O855   Zn873   1.959   .     S
O855   Zn876   1.931   .     S
O856   Zn874   1.929   .     S
O857   Zn876   1.941   .     S
O858   Zn875   1.938   .     S
O859   Zn873   1.927   .     S
O865   Zn873   1.929   .     S
O866   Zn876   1.930   .     S
O867   Zn874   1.928   .     S
O868   Zn875   1.940   .     S
O869   Zn876   1.937   .     S
O870   Zn873   1.926   .     S
O871   Zn874   1.934   .     S
O872   Zn875   1.929   .     S
C877   O942    1.271   .     A
C877   O940    1.272   .     A
C877   C883    1.440   .     S
C878   C892    1.391   .     A
C878   C902    1.408   .     A
C878   H907    1.078   .     S
C879   C891    1.388   .     A
C879   H917    1.084   .     S
C879   C892    1.394   .     A
C880   O943    1.277   .     A
C880   O941    1.281   .     A
C880   C882    1.457   .     S
C881   C890    1.481   .     S
C881   C901    1.421   .     A
C881   C893    1.413   .     A
C882   C956    1.335   .     S
C882   H979    1.087   .     S
C883   C1028   1.335   1_455 S
C883   H1067   1.086   1_455 S
C884   C887    1.451   .     S
C884   C1104   1.331   .     S
C884   H1141   1.088   .     S
C885   C886    1.435   .     S
C886   O944    1.279   .     A
C886   O938    1.279   .     A
C887   O945    1.269   .     A
C887   O939    1.270   .     A
C888   C893    1.397   .     A
C888   C242    1.399   1_556 S
C888   O279    1.382   1_556 S
C889   O929    1.278   .     A
C889   C892    1.449   .     S
C889   O931    1.271   .     A
C890   O932    1.286   .     A
C890   O930    1.281   .     A
C893   O934    1.384   .     S
C894   O933    1.411   .     S
C894   H926    1.109   .     S
C894   H925    1.114   .     S
C894   H924    1.113   .     S
C895   H908    1.111   .     S
C895   O934    1.411   .     S
C895   H909    1.113   .     S
C895   H910    1.109   .     S
C896   O935    1.410   .     S
C896   H913    1.109   .     S
C896   H912    1.113   .     S
C896   H911    1.113   .     S
C897   H915    1.114   .     S
C897   H914    1.114   .     S
C897   O936    1.409   .     S
C897   H1062   1.109   1_455 S
C898   H919    1.113   .     S
C898   O937    1.409   .     S
C898   H918    1.114   .     S
C898   H920    1.109   .     S
C899   O935    1.382   .     S
C900   C901    1.425   .     A
C900   C242    1.427   1_556 S
C900   C245    1.426   1_556 S
C901   C905    1.421   .     A
C903   C904    1.398   .     A
C903   C234    1.406   1_556 S
C903   C245    1.422   1_556 S
C904   O933    1.381   .     S
C904   C905    1.394   .     A
C905   O937    1.384   .     S
H906   C1028   1.087   1_455 S
H916   C970    1.109   .     S
H921   C956    1.086   .     S
H923   C1104   1.086   .     S
H927   C234    1.083   1_556 S
O928   Zn948   1.932   .     S
O928   Zn947   1.950   .     S
O928   Zn946   1.959   .     S
O928   Zn949   1.931   .     S
O929   Zn947   1.929   .     S
O930   Zn949   1.941   .     S
O931   Zn948   1.938   .     S
O932   Zn946   1.927   .     S
O938   Zn946   1.929   .     S
O939   Zn949   1.930   .     S
O940   Zn947   1.928   .     S
O941   Zn948   1.940   .     S
O942   Zn949   1.937   .     S
O943   Zn946   1.926   .     S
O944   Zn947   1.934   .     S
O945   Zn948   1.929   .     S
C950   O1015   1.271   .     A
C950   O1013   1.272   .     A
C950   C956    1.440   .     S
C951   C965    1.391   .     A
C951   C975    1.408   .     A
C951   H980    1.078   .     S
C952   C964    1.388   .     A
C952   H990    1.084   .     S
C952   C965    1.394   .     A
C953   O1016   1.277   .     A
C953   O1014   1.281   .     A
C953   C955    1.457   .     S
C954   C963    1.481   .     S
C954   C974    1.421   .     A
C954   C966    1.413   .     A
C955   C1029   1.335   .     S
C955   H1052   1.087   .     S
C957   C960    1.451   .     S
C957   C1177   1.331   .     S
C957   H1214   1.088   .     S
C958   C959    1.435   .     S
C959   O1017   1.279   .     A
C959   O1011   1.279   .     A
C960   O1018   1.269   .     A
C960   O1012   1.270   .     A
C961   C966    1.397   .     A
C961   C315    1.399   1_556 S
C961   O352    1.382   1_556 S
C962   O1002   1.278   .     A
C962   C965    1.449   .     S
C962   O1004   1.271   .     A
C963   O1005   1.286   .     A
C963   O1003   1.281   .     A
C966   O1007   1.384   .     S
C967   O1006   1.411   .     S
C967   H999    1.109   .     S
C967   H998    1.114   .     S
C967   H997    1.113   .     S
C968   H981    1.111   .     S
C968   O1007   1.411   .     S
C968   H982    1.113   .     S
C968   H983    1.109   .     S
C969   O1008   1.410   .     S
C969   H986    1.109   .     S
C969   H985    1.113   .     S
C969   H984    1.113   .     S
C970   H988    1.114   .     S
C970   H987    1.114   .     S
C970   O1009   1.409   .     S
C971   H992    1.113   .     S
C971   O1010   1.409   .     S
C971   H991    1.114   .     S
C971   H993    1.109   .     S
C972   O1008   1.382   .     S
C973   C974    1.425   .     A
C973   C315    1.427   1_556 S
C973   C318    1.426   1_556 S
C974   C978    1.421   .     A
C976   C977    1.398   .     A
C976   C307    1.406   1_556 S
C976   C318    1.422   1_556 S
C977   O1006   1.381   .     S
C977   C978    1.394   .     A
C978   O1010   1.384   .     S
H989   C1043   1.109   .     S
H994   C1029   1.086   .     S
H996   C1177   1.086   .     S
H1000  C307    1.083   1_556 S
O1001  Zn1021  1.932   .     S
O1001  Zn1020  1.950   .     S
O1001  Zn1019  1.959   .     S
O1001  Zn1022  1.931   .     S
O1002  Zn1020  1.929   .     S
O1003  Zn1022  1.941   .     S
O1004  Zn1021  1.938   .     S
O1005  Zn1019  1.927   .     S
O1011  Zn1019  1.929   .     S
O1012  Zn1022  1.930   .     S
O1013  Zn1020  1.928   .     S
O1014  Zn1021  1.940   .     S
O1015  Zn1022  1.937   .     S
O1016  Zn1019  1.926   .     S
O1017  Zn1020  1.934   .     S
O1018  Zn1021  1.929   .     S
C1023  O1088   1.271   .     A
C1023  O1086   1.272   .     A
C1023  C1029   1.440   .     S
C1024  C1038   1.391   .     A
C1024  C1048   1.408   .     A
C1024  H1053   1.078   .     S
C1025  C1037   1.388   .     A
C1025  H1063   1.084   .     S
C1025  C1038   1.394   .     A
C1026  O1089   1.277   .     A
C1026  O1087   1.281   .     A
C1026  C1028   1.457   .     S
C1027  C1036   1.481   .     S
C1027  C1047   1.421   .     A
C1027  C1039   1.413   .     A
C1028  C883    1.335   1_655 S
C1028  H906    1.087   1_655 S
C1030  C1033   1.451   .     S
C1030  C1250   1.331   .     S
C1030  H1287   1.088   .     S
C1031  C1032   1.435   .     S
C1032  O1090   1.279   .     A
C1032  O1084   1.279   .     A
C1033  O1091   1.269   .     A
C1033  O1085   1.270   .     A
C1034  C1039   1.397   .     A
C1034  C388    1.399   1_556 S
C1034  O425    1.382   1_556 S
C1035  O1075   1.278   .     A
C1035  C1038   1.449   .     S
C1035  O1077   1.271   .     A
C1036  O1078   1.286   .     A
C1036  O1076   1.281   .     A
C1039  O1080   1.384   .     S
C1040  O1079   1.411   .     S
C1040  H1072   1.109   .     S
C1040  H1071   1.114   .     S
C1040  H1070   1.113   .     S
C1041  H1054   1.111   .     S
C1041  O1080   1.411   .     S
C1041  H1055   1.113   .     S
C1041  H1056   1.109   .     S
C1042  O1081   1.410   .     S
C1042  H1059   1.109   .     S
C1042  H1058   1.113   .     S
C1042  H1057   1.113   .     S
C1043  H1061   1.114   .     S
C1043  H1060   1.114   .     S
C1043  O1082   1.409   .     S
C1044  H1065   1.113   .     S
C1044  O1083   1.409   .     S
C1044  H1064   1.114   .     S
C1044  H1066   1.109   .     S
C1045  O1081   1.382   .     S
C1046  C1047   1.425   .     A
C1046  C388    1.427   1_556 S
C1046  C391    1.426   1_556 S
C1047  C1051   1.421   .     A
C1049  C1050   1.398   .     A
C1049  C380    1.406   1_556 S
C1049  C391    1.422   1_556 S
C1050  O1079   1.381   .     S
C1050  C1051   1.394   .     A
C1051  O1083   1.384   .     S
H1062  C897    1.109   1_655 S
H1067  C883    1.086   1_655 S
H1069  C1250   1.086   .     S
H1073  C380    1.083   1_556 S
O1074  Zn1094  1.932   .     S
O1074  Zn1093  1.950   .     S
O1074  Zn1092  1.959   .     S
O1074  Zn1095  1.931   .     S
O1075  Zn1093  1.929   .     S
O1076  Zn1095  1.941   .     S
O1077  Zn1094  1.938   .     S
O1078  Zn1092  1.927   .     S
O1084  Zn1092  1.929   .     S
O1085  Zn1095  1.930   .     S
O1086  Zn1093  1.928   .     S
O1087  Zn1094  1.940   .     S
O1088  Zn1095  1.937   .     S
O1089  Zn1092  1.926   .     S
O1090  Zn1093  1.934   .     S
O1091  Zn1094  1.929   .     S
C1096  O1161   1.271   .     A
C1096  O1159   1.272   .     A
C1096  C1102   1.440   .     S
C1097  C1111   1.391   .     A
C1097  C1121   1.408   .     A
C1097  H1126   1.078   .     S
C1098  C1110   1.388   .     A
C1098  H1136   1.084   .     S
C1098  C1111   1.394   .     A
C1099  O1162   1.277   .     A
C1099  O1160   1.281   .     A
C1099  C1101   1.457   .     S
C1100  C1109   1.481   .     S
C1100  C1120   1.421   .     A
C1100  C1112   1.413   .     A
C1101  C1175   1.335   .     S
C1101  H1198   1.087   .     S
C1102  C1247   1.335   1_455 S
C1102  H1286   1.086   1_455 S
C1103  C1106   1.451   .     S
C1103  C666    1.331   1_565 S
C1103  H703    1.088   1_565 S
C1104  C1105   1.435   .     S
C1105  O1163   1.279   .     A
C1105  O1157   1.279   .     A
C1106  O1164   1.269   .     A
C1106  O1158   1.270   .     A
C1107  C1112   1.397   .     A
C1107  C461    1.399   1_556 S
C1107  O498    1.382   1_556 S
C1108  O1148   1.278   .     A
C1108  C1111   1.449   .     S
C1108  O1150   1.271   .     A
C1109  O1151   1.286   .     A
C1109  O1149   1.281   .     A
C1112  O1153   1.384   .     S
C1113  O1152   1.411   .     S
C1113  H1145   1.109   .     S
C1113  H1144   1.114   .     S
C1113  H1143   1.113   .     S
C1114  H1127   1.111   .     S
C1114  O1153   1.411   .     S
C1114  H1128   1.113   .     S
C1114  H1129   1.109   .     S
C1115  O1154   1.410   .     S
C1115  H1132   1.109   .     S
C1115  H1131   1.113   .     S
C1115  H1130   1.113   .     S
C1116  H1134   1.114   .     S
C1116  H1133   1.114   .     S
C1116  O1155   1.409   .     S
C1116  H1281   1.109   1_455 S
C1117  H1138   1.113   .     S
C1117  O1156   1.409   .     S
C1117  H1137   1.114   .     S
C1117  H1139   1.109   .     S
C1118  O1154   1.382   .     S
C1119  C1120   1.425   .     A
C1119  C461    1.427   1_556 S
C1119  C464    1.426   1_556 S
C1120  C1124   1.421   .     A
C1122  C1123   1.398   .     A
C1122  C453    1.406   1_556 S
C1122  C464    1.422   1_556 S
C1123  O1152   1.381   .     S
C1123  C1124   1.394   .     A
C1124  O1156   1.384   .     S
H1125  C1247   1.087   1_455 S
H1135  C1189   1.109   .     S
H1140  C1175   1.086   .     S
H1142  C666    1.086   1_565 S
H1146  C453    1.083   1_556 S
O1147  Zn1167  1.932   .     S
O1147  Zn1166  1.950   .     S
O1147  Zn1165  1.959   .     S
O1147  Zn1168  1.931   .     S
O1148  Zn1166  1.929   .     S
O1149  Zn1168  1.941   .     S
O1150  Zn1167  1.938   .     S
O1151  Zn1165  1.927   .     S
O1157  Zn1165  1.929   .     S
O1158  Zn1168  1.930   .     S
O1159  Zn1166  1.928   .     S
O1160  Zn1167  1.940   .     S
O1161  Zn1168  1.937   .     S
O1162  Zn1165  1.926   .     S
O1163  Zn1166  1.934   .     S
O1164  Zn1167  1.929   .     S
C1169  O1234   1.271   .     A
C1169  O1232   1.272   .     A
C1169  C1175   1.440   .     S
C1170  C1184   1.391   .     A
C1170  C1194   1.408   .     A
C1170  H1199   1.078   .     S
C1171  C1183   1.388   .     A
C1171  H1209   1.084   .     S
C1171  C1184   1.394   .     A
C1172  O1235   1.277   .     A
C1172  O1233   1.281   .     A
C1172  C1174   1.457   .     S
C1173  C1182   1.481   .     S
C1173  C1193   1.421   .     A
C1173  C1185   1.413   .     A
C1174  C1248   1.335   .     S
C1174  H1271   1.087   .     S
C1176  C1179   1.451   .     S
C1176  C739    1.331   1_565 S
C1176  H776    1.088   1_565 S
C1177  C1178   1.435   .     S
C1178  O1236   1.279   .     A
C1178  O1230   1.279   .     A
C1179  O1237   1.269   .     A
C1179  O1231   1.270   .     A
C1180  C1185   1.397   .     A
C1180  C534    1.399   1_556 S
C1180  O571    1.382   1_556 S
C1181  O1221   1.278   .     A
C1181  C1184   1.449   .     S
C1181  O1223   1.271   .     A
C1182  O1224   1.286   .     A
C1182  O1222   1.281   .     A
C1185  O1226   1.384   .     S
C1186  O1225   1.411   .     S
C1186  H1218   1.109   .     S
C1186  H1217   1.114   .     S
C1186  H1216   1.113   .     S
C1187  H1200   1.111   .     S
C1187  O1226   1.411   .     S
C1187  H1201   1.113   .     S
C1187  H1202   1.109   .     S
C1188  O1227   1.410   .     S
C1188  H1205   1.109   .     S
C1188  H1204   1.113   .     S
C1188  H1203   1.113   .     S
C1189  H1207   1.114   .     S
C1189  H1206   1.114   .     S
C1189  O1228   1.409   .     S
C1190  H1211   1.113   .     S
C1190  O1229   1.409   .     S
C1190  H1210   1.114   .     S
C1190  H1212   1.109   .     S
C1191  O1227   1.382   .     S
C1192  C1193   1.425   .     A
C1192  C534    1.427   1_556 S
C1192  C537    1.426   1_556 S
C1193  C1197   1.421   .     A
C1195  C1196   1.398   .     A
C1195  C526    1.406   1_556 S
C1195  C537    1.422   1_556 S
C1196  O1225   1.381   .     S
C1196  C1197   1.394   .     A
C1197  O1229   1.384   .     S
H1208  C1262   1.109   .     S
H1213  C1248   1.086   .     S
H1215  C739    1.086   1_565 S
H1219  C526    1.083   1_556 S
O1220  Zn1240  1.932   .     S
O1220  Zn1239  1.950   .     S
O1220  Zn1238  1.959   .     S
O1220  Zn1241  1.931   .     S
O1221  Zn1239  1.929   .     S
O1222  Zn1241  1.941   .     S
O1223  Zn1240  1.938   .     S
O1224  Zn1238  1.927   .     S
O1230  Zn1238  1.929   .     S
O1231  Zn1241  1.930   .     S
O1232  Zn1239  1.928   .     S
O1233  Zn1240  1.940   .     S
O1234  Zn1241  1.937   .     S
O1235  Zn1238  1.926   .     S
O1236  Zn1239  1.934   .     S
O1237  Zn1240  1.929   .     S
C1242  O1307   1.271   .     A
C1242  O1305   1.272   .     A
C1242  C1248   1.440   .     S
C1243  C1257   1.391   .     A
C1243  C1267   1.408   .     A
C1243  H1272   1.078   .     S
C1244  C1256   1.388   .     A
C1244  H1282   1.084   .     S
C1244  C1257   1.394   .     A
C1245  O1308   1.277   .     A
C1245  O1306   1.281   .     A
C1245  C1247   1.457   .     S
C1246  C1255   1.481   .     S
C1246  C1266   1.421   .     A
C1246  C1258   1.413   .     A
C1247  C1102   1.335   1_655 S
C1247  H1125   1.087   1_655 S
C1249  C1252   1.451   .     S
C1249  C812    1.331   1_565 S
C1249  H849    1.088   1_565 S
C1250  C1251   1.435   .     S
C1251  O1309   1.279   .     A
C1251  O1303   1.279   .     A
C1252  O1310   1.269   .     A
C1252  O1304   1.270   .     A
C1253  C1258   1.397   .     A
C1253  C607    1.399   1_556 S
C1253  O644    1.382   1_556 S
C1254  O1294   1.278   .     A
C1254  C1257   1.449   .     S
C1254  O1296   1.271   .     A
C1255  O1297   1.286   .     A
C1255  O1295   1.281   .     A
C1258  O1299   1.384   .     S
C1259  O1298   1.411   .     S
C1259  H1291   1.109   .     S
C1259  H1290   1.114   .     S
C1259  H1289   1.113   .     S
C1260  H1273   1.111   .     S
C1260  O1299   1.411   .     S
C1260  H1274   1.113   .     S
C1260  H1275   1.109   .     S
C1261  O1300   1.410   .     S
C1261  H1278   1.109   .     S
C1261  H1277   1.113   .     S
C1261  H1276   1.113   .     S
C1262  H1280   1.114   .     S
C1262  H1279   1.114   .     S
C1262  O1301   1.409   .     S
C1263  H1284   1.113   .     S
C1263  O1302   1.409   .     S
C1263  H1283   1.114   .     S
C1263  H1285   1.109   .     S
C1264  O1300   1.382   .     S
C1265  C1266   1.425   .     A
C1265  C607    1.427   1_556 S
C1265  C610    1.426   1_556 S
C1266  C1270   1.421   .     A
C1268  C1269   1.398   .     A
C1268  C599    1.406   1_556 S
C1268  C610    1.422   1_556 S
C1269  O1298   1.381   .     S
C1269  C1270   1.394   .     A
C1270  O1302   1.384   .     S
H1281  C1116   1.109   1_655 S
H1286  C1102   1.086   1_655 S
H1288  C812    1.086   1_565 S
H1292  C599    1.083   1_556 S
O1293  Zn1313  1.932   .     S
O1293  Zn1312  1.950   .     S
O1293  Zn1311  1.959   .     S
O1293  Zn1314  1.931   .     S
O1294  Zn1312  1.929   .     S
O1295  Zn1314  1.941   .     S
O1296  Zn1313  1.938   .     S
O1297  Zn1311  1.927   .     S
O1303  Zn1311  1.929   .     S
O1304  Zn1314  1.930   .     S
O1305  Zn1312  1.928   .     S
O1306  Zn1313  1.940   .     S
O1307  Zn1314  1.937   .     S
O1308  Zn1311  1.926   .     S
O1309  Zn1312  1.934   .     S
O1310  Zn1313  1.929   .     S
