data_str_m1_o10_o16_pcu_sym.18
_audit_creation_date              2020-01-03
_audit_creation_method            'Materials Studio'
_symmetry_space_group_name_H-M    'P1'
_symmetry_Int_Tables_number       1
_symmetry_cell_setting            triclinic
loop_
_symmetry_equiv_pos_as_xyz
  x,y,z
_cell_length_a                    32.5430
_cell_length_b                    32.6393
_cell_length_c                    31.0032
_cell_angle_alpha                 96.4233
_cell_angle_beta                  74.1410
_cell_angle_gamma                 98.4386
loop_
_atom_site_label
_atom_site_type_symbol
_atom_site_fract_x
_atom_site_fract_y
_atom_site_fract_z
_atom_site_U_iso_or_equiv
_atom_site_adp_type
_atom_site_occupancy
C1     C     0.05270   0.15962   0.26037   0.00000  Uiso   1.00
C2     C     0.16566   0.14745   0.05636   0.00000  Uiso   1.00
C3     C     0.23893   0.14187   0.05693   0.00000  Uiso   1.00
C4     C     0.28091   0.17386   0.23977   0.00000  Uiso   1.00
C5     C     0.13738   0.18986   0.42095   0.00000  Uiso   1.00
C6     C     0.32704   0.17638   0.23481   0.00000  Uiso   1.00
C7     C     0.00752   0.15810   0.26391   0.00000  Uiso   1.00
C8     C     0.17983   0.32250   0.23723   0.00000  Uiso   1.00
C9     C     0.15100   0.01216   0.26482   0.00000  Uiso   1.00
C10    C     0.15667   0.05605   0.25972   0.00000  Uiso   1.00
C11    C     0.17647   0.27796   0.24028   0.00000  Uiso   1.00
C12    C     0.08478   0.20017   0.49263   0.00000  Uiso   1.00
C13    C     0.18531   0.14870   0.12905   0.00000  Uiso   1.00
C14    C     0.14822   0.18464   0.37113   0.00000  Uiso   1.00
C15    C     0.25309   0.14683   0.01116   0.00000  Uiso   1.00
C16    C     0.19574   0.14275   0.07991   0.00000  Uiso   1.00
C17    C     0.09571   0.19858   0.44596   0.00000  Uiso   1.00
C18    C     0.11287   0.18967   0.01496   0.00000  Uiso   1.00
C19    C     0.15310   0.17699   0.49102   0.00000  Uiso   1.00
C20    C     0.16719   0.18241   0.44439   0.00000  Uiso   1.00
C21    C     0.18077   0.16168   0.01243   0.00000  Uiso   1.00
C22    C     0.22502   0.15988   0.48884   0.00000  Uiso   1.00
C23    C     0.24035   0.17291   0.44470   0.00000  Uiso   1.00
C24    C     0.21118   0.18267   0.42276   0.00000  Uiso   1.00
Cl25   Cl    0.05515   0.20700   0.42121   0.00000  Uiso   1.00
Cl26   Cl    0.02993   0.20323   0.19041   0.00000  Uiso   1.00
H27    H     0.26190   0.13678   0.07478   0.00000  Uiso   1.00
H28    H     0.11765   0.11691   0.09737   0.00000  Uiso   1.00
H29    H     0.31864   0.14216   0.29159   0.00000  Uiso   1.00
H30    H     0.20650   0.00365   0.21189   0.00000  Uiso   1.00
H31    H     0.10308   0.19358   0.05118   0.00000  Uiso   1.00
H32    H     0.05370   0.20873   0.01192   0.00000  Uiso   1.00
H33    H     0.22389   0.19303   0.38924   0.00000  Uiso   1.00
H34    H     0.09938   0.01742   0.31352   0.00000  Uiso   1.00
H35    H     0.28910   0.18659   0.39321   0.00000  Uiso   1.00
H36    H     0.29425   0.12277   0.46178   0.00000  Uiso   1.00
O37    O     0.16667   0.16667   0.25000   0.00000  Uiso   1.00
O38    O     0.15451   0.12637   0.15458   0.00000  Uiso   1.00
O39    O     0.12940   0.20391   0.34968   0.00000  Uiso   1.00
O40    O     0.20824   0.17759   0.14606   0.00000  Uiso   1.00
O41    O     0.17451   0.15880   0.34968   0.00000  Uiso   1.00
O42    O     0.11637   0.32825   0.29718   0.00000  Uiso   1.00
O43    O     0.28398   0.17744   0.42388   0.00000  Uiso   1.00
O44    O     0.29486   0.14004   0.49006   0.00000  Uiso   1.00
O45    O     0.12208   0.13751   0.07495   0.00000  Uiso   1.00
O46    O     0.17930   0.08019   0.28213   0.00000  Uiso   1.00
O47    O     0.14632   0.26085   0.27013   0.00000  Uiso   1.00
O48    O     0.07412   0.13291   0.23413   0.00000  Uiso   1.00
O49    O     0.26693   0.19272   0.21360   0.00000  Uiso   1.00
O50    O     0.07071   0.18878   0.28213   0.00000  Uiso   1.00
O51    O     0.25491   0.15226   0.27013   0.00000  Uiso   1.00
O52    O     0.13760   0.06944   0.23413   0.00000  Uiso   1.00
O53    O     0.20345   0.25620   0.21360   0.00000  Uiso   1.00
Zn54   Zn    0.19338   0.13994   0.28734   0.00000  Uiso   1.00
Zn55   Zn    0.13379   0.12458   0.21875   0.00000  Uiso   1.00
Zn56   Zn    0.21056   0.19775   0.20657   0.00000  Uiso   1.00
Zn57   Zn    0.12893   0.20439   0.28733   0.00000  Uiso   1.00
C58    C     0.38603   0.15962   0.26037   0.00000  Uiso   1.00
C59    C     0.49899   0.14745   0.05636   0.00000  Uiso   1.00
C60    C     0.57226   0.14187   0.05693   0.00000  Uiso   1.00
C61    C     0.61424   0.17386   0.23977   0.00000  Uiso   1.00
C62    C     0.47071   0.18986   0.42095   0.00000  Uiso   1.00
C63    C     0.66037   0.17638   0.23481   0.00000  Uiso   1.00
C64    C     0.34086   0.15810   0.26391   0.00000  Uiso   1.00
C65    C     0.51316   0.32250   0.23723   0.00000  Uiso   1.00
C66    C     0.48434   0.01216   0.26482   0.00000  Uiso   1.00
C67    C     0.49000   0.05605   0.25972   0.00000  Uiso   1.00
C68    C     0.50981   0.27796   0.24028   0.00000  Uiso   1.00
C69    C     0.41811   0.20017   0.49263   0.00000  Uiso   1.00
C70    C     0.51865   0.14870   0.12905   0.00000  Uiso   1.00
C71    C     0.48156   0.18464   0.37113   0.00000  Uiso   1.00
C72    C     0.58643   0.14683   0.01116   0.00000  Uiso   1.00
C73    C     0.52908   0.14275   0.07991   0.00000  Uiso   1.00
C74    C     0.42904   0.19858   0.44596   0.00000  Uiso   1.00
C75    C     0.44621   0.18967   0.01496   0.00000  Uiso   1.00
C76    C     0.48644   0.17699   0.49102   0.00000  Uiso   1.00
C77    C     0.50053   0.18241   0.44439   0.00000  Uiso   1.00
C78    C     0.51411   0.16168   0.01243   0.00000  Uiso   1.00
C79    C     0.55835   0.15988   0.48884   0.00000  Uiso   1.00
C80    C     0.57368   0.17291   0.44470   0.00000  Uiso   1.00
C81    C     0.54452   0.18267   0.42276   0.00000  Uiso   1.00
Cl82   Cl    0.38848   0.20700   0.42121   0.00000  Uiso   1.00
Cl83   Cl    0.36327   0.20323   0.19041   0.00000  Uiso   1.00
H84    H     0.59524   0.13678   0.07478   0.00000  Uiso   1.00
H85    H     0.45098   0.11691   0.09737   0.00000  Uiso   1.00
H86    H     0.65197   0.14216   0.29159   0.00000  Uiso   1.00
H87    H     0.53983   0.00365   0.21189   0.00000  Uiso   1.00
H88    H     0.43641   0.19358   0.05118   0.00000  Uiso   1.00
H89    H     0.38703   0.20873   0.01192   0.00000  Uiso   1.00
H90    H     0.55722   0.19303   0.38924   0.00000  Uiso   1.00
H91    H     0.43271   0.01742   0.31352   0.00000  Uiso   1.00
H92    H     0.62244   0.18659   0.39321   0.00000  Uiso   1.00
H93    H     0.62758   0.12277   0.46178   0.00000  Uiso   1.00
O94    O     0.50000   0.16667   0.25000   0.00000  Uiso   1.00
O95    O     0.48784   0.12637   0.15458   0.00000  Uiso   1.00
O96    O     0.46274   0.20391   0.34968   0.00000  Uiso   1.00
O97    O     0.54157   0.17759   0.14606   0.00000  Uiso   1.00
O98    O     0.50785   0.15880   0.34968   0.00000  Uiso   1.00
O99    O     0.44970   0.32825   0.29718   0.00000  Uiso   1.00
O100   O     0.61731   0.17744   0.42388   0.00000  Uiso   1.00
O101   O     0.62819   0.14004   0.49006   0.00000  Uiso   1.00
O102   O     0.45542   0.13751   0.07495   0.00000  Uiso   1.00
O103   O     0.51264   0.08019   0.28213   0.00000  Uiso   1.00
O104   O     0.47965   0.26085   0.27013   0.00000  Uiso   1.00
O105   O     0.40745   0.13291   0.23413   0.00000  Uiso   1.00
O106   O     0.60026   0.19272   0.21360   0.00000  Uiso   1.00
O107   O     0.40405   0.18878   0.28213   0.00000  Uiso   1.00
O108   O     0.58824   0.15226   0.27013   0.00000  Uiso   1.00
O109   O     0.47093   0.06944   0.23413   0.00000  Uiso   1.00
O110   O     0.53678   0.25620   0.21360   0.00000  Uiso   1.00
Zn111  Zn    0.52672   0.13994   0.28734   0.00000  Uiso   1.00
Zn112  Zn    0.46713   0.12458   0.21875   0.00000  Uiso   1.00
Zn113  Zn    0.54389   0.19775   0.20657   0.00000  Uiso   1.00
Zn114  Zn    0.46226   0.20439   0.28733   0.00000  Uiso   1.00
C115   C     0.71937   0.15962   0.26037   0.00000  Uiso   1.00
C116   C     0.83232   0.14745   0.05636   0.00000  Uiso   1.00
C117   C     0.90559   0.14187   0.05693   0.00000  Uiso   1.00
C118   C     0.94757   0.17386   0.23977   0.00000  Uiso   1.00
C119   C     0.80405   0.18986   0.42095   0.00000  Uiso   1.00
C120   C     0.99370   0.17638   0.23481   0.00000  Uiso   1.00
C121   C     0.67419   0.15810   0.26391   0.00000  Uiso   1.00
C122   C     0.84649   0.32250   0.23723   0.00000  Uiso   1.00
C123   C     0.81767   0.01216   0.26482   0.00000  Uiso   1.00
C124   C     0.82333   0.05605   0.25972   0.00000  Uiso   1.00
C125   C     0.84314   0.27796   0.24028   0.00000  Uiso   1.00
C126   C     0.75144   0.20017   0.49263   0.00000  Uiso   1.00
C127   C     0.85198   0.14870   0.12905   0.00000  Uiso   1.00
C128   C     0.81489   0.18464   0.37113   0.00000  Uiso   1.00
C129   C     0.91976   0.14683   0.01116   0.00000  Uiso   1.00
C130   C     0.86241   0.14275   0.07991   0.00000  Uiso   1.00
C131   C     0.76238   0.19858   0.44596   0.00000  Uiso   1.00
C132   C     0.77954   0.18967   0.01496   0.00000  Uiso   1.00
C133   C     0.81977   0.17699   0.49102   0.00000  Uiso   1.00
C134   C     0.83386   0.18241   0.44439   0.00000  Uiso   1.00
C135   C     0.84744   0.16168   0.01243   0.00000  Uiso   1.00
C136   C     0.89169   0.15988   0.48884   0.00000  Uiso   1.00
C137   C     0.90702   0.17291   0.44470   0.00000  Uiso   1.00
C138   C     0.87785   0.18267   0.42276   0.00000  Uiso   1.00
Cl139  Cl    0.72182   0.20700   0.42121   0.00000  Uiso   1.00
Cl140  Cl    0.69660   0.20323   0.19041   0.00000  Uiso   1.00
H141   H     0.92857   0.13678   0.07478   0.00000  Uiso   1.00
H142   H     0.78431   0.11691   0.09737   0.00000  Uiso   1.00
H143   H     0.98531   0.14216   0.29159   0.00000  Uiso   1.00
H144   H     0.87317   0.00365   0.21189   0.00000  Uiso   1.00
H145   H     0.76975   0.19358   0.05118   0.00000  Uiso   1.00
H146   H     0.72037   0.20873   0.01192   0.00000  Uiso   1.00
H147   H     0.89056   0.19303   0.38924   0.00000  Uiso   1.00
H148   H     0.76605   0.01742   0.31352   0.00000  Uiso   1.00
H149   H     0.95577   0.18659   0.39321   0.00000  Uiso   1.00
H150   H     0.96091   0.12277   0.46178   0.00000  Uiso   1.00
O151   O     0.83333   0.16667   0.25000   0.00000  Uiso   1.00
O152   O     0.82118   0.12637   0.15458   0.00000  Uiso   1.00
O153   O     0.79607   0.20391   0.34968   0.00000  Uiso   1.00
O154   O     0.87491   0.17759   0.14606   0.00000  Uiso   1.00
O155   O     0.84118   0.15880   0.34968   0.00000  Uiso   1.00
O156   O     0.78303   0.32825   0.29718   0.00000  Uiso   1.00
O157   O     0.95065   0.17744   0.42388   0.00000  Uiso   1.00
O158   O     0.96153   0.14004   0.49006   0.00000  Uiso   1.00
O159   O     0.78875   0.13751   0.07495   0.00000  Uiso   1.00
O160   O     0.84597   0.08019   0.28213   0.00000  Uiso   1.00
O161   O     0.81298   0.26085   0.27013   0.00000  Uiso   1.00
O162   O     0.74078   0.13291   0.23413   0.00000  Uiso   1.00
O163   O     0.93360   0.19272   0.21360   0.00000  Uiso   1.00
O164   O     0.73738   0.18878   0.28213   0.00000  Uiso   1.00
O165   O     0.92158   0.15226   0.27013   0.00000  Uiso   1.00
O166   O     0.80426   0.06944   0.23413   0.00000  Uiso   1.00
O167   O     0.87012   0.25620   0.21360   0.00000  Uiso   1.00
Zn168  Zn    0.86005   0.13994   0.28734   0.00000  Uiso   1.00
Zn169  Zn    0.80046   0.12458   0.21875   0.00000  Uiso   1.00
Zn170  Zn    0.87723   0.19775   0.20657   0.00000  Uiso   1.00
Zn171  Zn    0.79560   0.20439   0.28733   0.00000  Uiso   1.00
C172   C     0.05270   0.49295   0.26037   0.00000  Uiso   1.00
C173   C     0.16566   0.48078   0.05636   0.00000  Uiso   1.00
C174   C     0.23893   0.47520   0.05693   0.00000  Uiso   1.00
C175   C     0.28091   0.50719   0.23977   0.00000  Uiso   1.00
C176   C     0.13738   0.52319   0.42095   0.00000  Uiso   1.00
C177   C     0.32704   0.50971   0.23481   0.00000  Uiso   1.00
C178   C     0.00752   0.49144   0.26391   0.00000  Uiso   1.00
C179   C     0.17983   0.65583   0.23723   0.00000  Uiso   1.00
C180   C     0.15100   0.34550   0.26482   0.00000  Uiso   1.00
C181   C     0.15667   0.38938   0.25972   0.00000  Uiso   1.00
C182   C     0.17647   0.61130   0.24028   0.00000  Uiso   1.00
C183   C     0.08478   0.53351   0.49263   0.00000  Uiso   1.00
C184   C     0.18531   0.48204   0.12905   0.00000  Uiso   1.00
C185   C     0.14822   0.51797   0.37113   0.00000  Uiso   1.00
C186   C     0.25309   0.48016   0.01116   0.00000  Uiso   1.00
C187   C     0.19574   0.47608   0.07991   0.00000  Uiso   1.00
C188   C     0.09571   0.53191   0.44596   0.00000  Uiso   1.00
C189   C     0.11287   0.52300   0.01496   0.00000  Uiso   1.00
C190   C     0.15310   0.51032   0.49102   0.00000  Uiso   1.00
C191   C     0.16719   0.51574   0.44439   0.00000  Uiso   1.00
C192   C     0.18077   0.49501   0.01243   0.00000  Uiso   1.00
C193   C     0.22502   0.49321   0.48884   0.00000  Uiso   1.00
C194   C     0.24035   0.50624   0.44470   0.00000  Uiso   1.00
C195   C     0.21118   0.51601   0.42276   0.00000  Uiso   1.00
Cl196  Cl    0.05515   0.54033   0.42121   0.00000  Uiso   1.00
Cl197  Cl    0.02993   0.53656   0.19041   0.00000  Uiso   1.00
H198   H     0.26190   0.47012   0.07478   0.00000  Uiso   1.00
H199   H     0.11765   0.45024   0.09737   0.00000  Uiso   1.00
H200   H     0.31864   0.47549   0.29159   0.00000  Uiso   1.00
H201   H     0.20650   0.33698   0.21189   0.00000  Uiso   1.00
H202   H     0.10308   0.52691   0.05118   0.00000  Uiso   1.00
H203   H     0.05370   0.54206   0.01192   0.00000  Uiso   1.00
H204   H     0.22389   0.52636   0.38924   0.00000  Uiso   1.00
H205   H     0.09938   0.35076   0.31352   0.00000  Uiso   1.00
H206   H     0.28910   0.51992   0.39321   0.00000  Uiso   1.00
H207   H     0.29425   0.45610   0.46178   0.00000  Uiso   1.00
O208   O     0.16667   0.50000   0.25000   0.00000  Uiso   1.00
O209   O     0.15451   0.45970   0.15458   0.00000  Uiso   1.00
O210   O     0.12940   0.53724   0.34968   0.00000  Uiso   1.00
O211   O     0.20824   0.51092   0.14606   0.00000  Uiso   1.00
O212   O     0.17451   0.49213   0.34968   0.00000  Uiso   1.00
O213   O     0.11637   0.66158   0.29718   0.00000  Uiso   1.00
O214   O     0.28398   0.51078   0.42388   0.00000  Uiso   1.00
O215   O     0.29486   0.47337   0.49006   0.00000  Uiso   1.00
O216   O     0.12208   0.47084   0.07495   0.00000  Uiso   1.00
O217   O     0.17930   0.41352   0.28213   0.00000  Uiso   1.00
O218   O     0.14632   0.59418   0.27013   0.00000  Uiso   1.00
O219   O     0.07412   0.46625   0.23413   0.00000  Uiso   1.00
O220   O     0.26693   0.52605   0.21360   0.00000  Uiso   1.00
O221   O     0.07071   0.52211   0.28213   0.00000  Uiso   1.00
O222   O     0.25491   0.48559   0.27013   0.00000  Uiso   1.00
O223   O     0.13760   0.40277   0.23413   0.00000  Uiso   1.00
O224   O     0.20345   0.58953   0.21360   0.00000  Uiso   1.00
Zn225  Zn    0.19338   0.47327   0.28734   0.00000  Uiso   1.00
Zn226  Zn    0.13379   0.45791   0.21875   0.00000  Uiso   1.00
Zn227  Zn    0.21056   0.53109   0.20657   0.00000  Uiso   1.00
Zn228  Zn    0.12893   0.53773   0.28733   0.00000  Uiso   1.00
C229   C     0.38603   0.49295   0.26037   0.00000  Uiso   1.00
C230   C     0.49899   0.48078   0.05636   0.00000  Uiso   1.00
C231   C     0.57226   0.47520   0.05693   0.00000  Uiso   1.00
C232   C     0.61424   0.50719   0.23977   0.00000  Uiso   1.00
C233   C     0.47071   0.52319   0.42095   0.00000  Uiso   1.00
C234   C     0.66037   0.50971   0.23481   0.00000  Uiso   1.00
C235   C     0.34086   0.49144   0.26391   0.00000  Uiso   1.00
C236   C     0.51316   0.65583   0.23723   0.00000  Uiso   1.00
C237   C     0.48434   0.34550   0.26482   0.00000  Uiso   1.00
C238   C     0.49000   0.38938   0.25972   0.00000  Uiso   1.00
C239   C     0.50981   0.61130   0.24028   0.00000  Uiso   1.00
C240   C     0.41811   0.53351   0.49263   0.00000  Uiso   1.00
C241   C     0.51865   0.48204   0.12905   0.00000  Uiso   1.00
C242   C     0.48156   0.51797   0.37113   0.00000  Uiso   1.00
C243   C     0.58643   0.48016   0.01116   0.00000  Uiso   1.00
C244   C     0.52908   0.47608   0.07991   0.00000  Uiso   1.00
C245   C     0.42904   0.53191   0.44596   0.00000  Uiso   1.00
C246   C     0.44621   0.52300   0.01496   0.00000  Uiso   1.00
C247   C     0.48644   0.51032   0.49102   0.00000  Uiso   1.00
C248   C     0.50053   0.51574   0.44439   0.00000  Uiso   1.00
C249   C     0.51411   0.49501   0.01243   0.00000  Uiso   1.00
C250   C     0.55835   0.49321   0.48884   0.00000  Uiso   1.00
C251   C     0.57368   0.50624   0.44470   0.00000  Uiso   1.00
C252   C     0.54452   0.51601   0.42276   0.00000  Uiso   1.00
Cl253  Cl    0.38848   0.54033   0.42121   0.00000  Uiso   1.00
Cl254  Cl    0.36327   0.53656   0.19041   0.00000  Uiso   1.00
H255   H     0.59524   0.47012   0.07478   0.00000  Uiso   1.00
H256   H     0.45098   0.45024   0.09737   0.00000  Uiso   1.00
H257   H     0.65197   0.47549   0.29159   0.00000  Uiso   1.00
H258   H     0.53983   0.33698   0.21189   0.00000  Uiso   1.00
H259   H     0.43641   0.52691   0.05118   0.00000  Uiso   1.00
H260   H     0.38703   0.54206   0.01192   0.00000  Uiso   1.00
H261   H     0.55722   0.52636   0.38924   0.00000  Uiso   1.00
H262   H     0.43271   0.35076   0.31352   0.00000  Uiso   1.00
H263   H     0.62244   0.51992   0.39321   0.00000  Uiso   1.00
H264   H     0.62758   0.45610   0.46178   0.00000  Uiso   1.00
O265   O     0.50000   0.50000   0.25000   0.00000  Uiso   1.00
O266   O     0.48784   0.45970   0.15458   0.00000  Uiso   1.00
O267   O     0.46274   0.53724   0.34968   0.00000  Uiso   1.00
O268   O     0.54157   0.51092   0.14606   0.00000  Uiso   1.00
O269   O     0.50785   0.49213   0.34968   0.00000  Uiso   1.00
O270   O     0.44970   0.66158   0.29718   0.00000  Uiso   1.00
O271   O     0.61731   0.51078   0.42388   0.00000  Uiso   1.00
O272   O     0.62819   0.47337   0.49006   0.00000  Uiso   1.00
O273   O     0.45542   0.47084   0.07495   0.00000  Uiso   1.00
O274   O     0.51264   0.41352   0.28213   0.00000  Uiso   1.00
O275   O     0.47965   0.59418   0.27013   0.00000  Uiso   1.00
O276   O     0.40745   0.46625   0.23413   0.00000  Uiso   1.00
O277   O     0.60026   0.52605   0.21360   0.00000  Uiso   1.00
O278   O     0.40405   0.52211   0.28213   0.00000  Uiso   1.00
O279   O     0.58824   0.48559   0.27013   0.00000  Uiso   1.00
O280   O     0.47093   0.40277   0.23413   0.00000  Uiso   1.00
O281   O     0.53678   0.58953   0.21360   0.00000  Uiso   1.00
Zn282  Zn    0.52672   0.47327   0.28734   0.00000  Uiso   1.00
Zn283  Zn    0.46713   0.45791   0.21875   0.00000  Uiso   1.00
Zn284  Zn    0.54389   0.53109   0.20657   0.00000  Uiso   1.00
Zn285  Zn    0.46226   0.53773   0.28733   0.00000  Uiso   1.00
C286   C     0.71937   0.49295   0.26037   0.00000  Uiso   1.00
C287   C     0.83232   0.48078   0.05636   0.00000  Uiso   1.00
C288   C     0.90559   0.47520   0.05693   0.00000  Uiso   1.00
C289   C     0.94757   0.50719   0.23977   0.00000  Uiso   1.00
C290   C     0.80405   0.52319   0.42095   0.00000  Uiso   1.00
C291   C     0.99370   0.50971   0.23481   0.00000  Uiso   1.00
C292   C     0.67419   0.49144   0.26391   0.00000  Uiso   1.00
C293   C     0.84649   0.65583   0.23723   0.00000  Uiso   1.00
C294   C     0.81767   0.34550   0.26482   0.00000  Uiso   1.00
C295   C     0.82333   0.38938   0.25972   0.00000  Uiso   1.00
C296   C     0.84314   0.61130   0.24028   0.00000  Uiso   1.00
C297   C     0.75144   0.53351   0.49263   0.00000  Uiso   1.00
C298   C     0.85198   0.48204   0.12905   0.00000  Uiso   1.00
C299   C     0.81489   0.51797   0.37113   0.00000  Uiso   1.00
C300   C     0.91976   0.48016   0.01116   0.00000  Uiso   1.00
C301   C     0.86241   0.47608   0.07991   0.00000  Uiso   1.00
C302   C     0.76238   0.53191   0.44596   0.00000  Uiso   1.00
C303   C     0.77954   0.52300   0.01496   0.00000  Uiso   1.00
C304   C     0.81977   0.51032   0.49102   0.00000  Uiso   1.00
C305   C     0.83386   0.51574   0.44439   0.00000  Uiso   1.00
C306   C     0.84744   0.49501   0.01243   0.00000  Uiso   1.00
C307   C     0.89169   0.49321   0.48884   0.00000  Uiso   1.00
C308   C     0.90702   0.50624   0.44470   0.00000  Uiso   1.00
C309   C     0.87785   0.51601   0.42276   0.00000  Uiso   1.00
Cl310  Cl    0.72182   0.54033   0.42121   0.00000  Uiso   1.00
Cl311  Cl    0.69660   0.53656   0.19041   0.00000  Uiso   1.00
H312   H     0.92857   0.47012   0.07478   0.00000  Uiso   1.00
H313   H     0.78431   0.45024   0.09737   0.00000  Uiso   1.00
H314   H     0.98531   0.47549   0.29159   0.00000  Uiso   1.00
H315   H     0.87317   0.33698   0.21189   0.00000  Uiso   1.00
H316   H     0.76975   0.52691   0.05118   0.00000  Uiso   1.00
H317   H     0.72037   0.54206   0.01192   0.00000  Uiso   1.00
H318   H     0.89056   0.52636   0.38924   0.00000  Uiso   1.00
H319   H     0.76605   0.35076   0.31352   0.00000  Uiso   1.00
H320   H     0.95577   0.51992   0.39321   0.00000  Uiso   1.00
H321   H     0.96091   0.45610   0.46178   0.00000  Uiso   1.00
O322   O     0.83333   0.50000   0.25000   0.00000  Uiso   1.00
O323   O     0.82118   0.45970   0.15458   0.00000  Uiso   1.00
O324   O     0.79607   0.53724   0.34968   0.00000  Uiso   1.00
O325   O     0.87491   0.51092   0.14606   0.00000  Uiso   1.00
O326   O     0.84118   0.49213   0.34968   0.00000  Uiso   1.00
O327   O     0.78303   0.66158   0.29718   0.00000  Uiso   1.00
O328   O     0.95065   0.51078   0.42388   0.00000  Uiso   1.00
O329   O     0.96153   0.47337   0.49006   0.00000  Uiso   1.00
O330   O     0.78875   0.47084   0.07495   0.00000  Uiso   1.00
O331   O     0.84597   0.41352   0.28213   0.00000  Uiso   1.00
O332   O     0.81298   0.59418   0.27013   0.00000  Uiso   1.00
O333   O     0.74078   0.46625   0.23413   0.00000  Uiso   1.00
O334   O     0.93360   0.52605   0.21360   0.00000  Uiso   1.00
O335   O     0.73738   0.52211   0.28213   0.00000  Uiso   1.00
O336   O     0.92158   0.48559   0.27013   0.00000  Uiso   1.00
O337   O     0.80426   0.40277   0.23413   0.00000  Uiso   1.00
O338   O     0.87012   0.58953   0.21360   0.00000  Uiso   1.00
Zn339  Zn    0.86005   0.47327   0.28734   0.00000  Uiso   1.00
Zn340  Zn    0.80046   0.45791   0.21875   0.00000  Uiso   1.00
Zn341  Zn    0.87723   0.53109   0.20657   0.00000  Uiso   1.00
Zn342  Zn    0.79560   0.53773   0.28733   0.00000  Uiso   1.00
C343   C     0.05270   0.82628   0.26037   0.00000  Uiso   1.00
C344   C     0.16566   0.81412   0.05636   0.00000  Uiso   1.00
C345   C     0.23893   0.80853   0.05693   0.00000  Uiso   1.00
C346   C     0.28091   0.84053   0.23977   0.00000  Uiso   1.00
C347   C     0.13738   0.85652   0.42095   0.00000  Uiso   1.00
C348   C     0.32704   0.84305   0.23481   0.00000  Uiso   1.00
C349   C     0.00752   0.82477   0.26391   0.00000  Uiso   1.00
C350   C     0.17983   0.98916   0.23723   0.00000  Uiso   1.00
C351   C     0.15100   0.67883   0.26482   0.00000  Uiso   1.00
C352   C     0.15667   0.72272   0.25972   0.00000  Uiso   1.00
C353   C     0.17647   0.94463   0.24028   0.00000  Uiso   1.00
C354   C     0.08478   0.86684   0.49263   0.00000  Uiso   1.00
C355   C     0.18531   0.81537   0.12905   0.00000  Uiso   1.00
C356   C     0.14822   0.85131   0.37113   0.00000  Uiso   1.00
C357   C     0.25309   0.81349   0.01116   0.00000  Uiso   1.00
C358   C     0.19574   0.80942   0.07991   0.00000  Uiso   1.00
C359   C     0.09571   0.86525   0.44596   0.00000  Uiso   1.00
C360   C     0.11287   0.85634   0.01496   0.00000  Uiso   1.00
C361   C     0.15310   0.84365   0.49102   0.00000  Uiso   1.00
C362   C     0.16719   0.84907   0.44439   0.00000  Uiso   1.00
C363   C     0.18077   0.82834   0.01243   0.00000  Uiso   1.00
C364   C     0.22502   0.82655   0.48884   0.00000  Uiso   1.00
C365   C     0.24035   0.83958   0.44470   0.00000  Uiso   1.00
C366   C     0.21118   0.84934   0.42276   0.00000  Uiso   1.00
Cl367  Cl    0.05515   0.87366   0.42121   0.00000  Uiso   1.00
Cl368  Cl    0.02993   0.86989   0.19041   0.00000  Uiso   1.00
H369   H     0.26190   0.80345   0.07478   0.00000  Uiso   1.00
H370   H     0.11765   0.78358   0.09737   0.00000  Uiso   1.00
H371   H     0.31864   0.80883   0.29159   0.00000  Uiso   1.00
H372   H     0.20650   0.67031   0.21189   0.00000  Uiso   1.00
H373   H     0.10308   0.86025   0.05118   0.00000  Uiso   1.00
H374   H     0.05370   0.87540   0.01192   0.00000  Uiso   1.00
H375   H     0.22389   0.85970   0.38924   0.00000  Uiso   1.00
H376   H     0.09938   0.68409   0.31352   0.00000  Uiso   1.00
H377   H     0.28910   0.85326   0.39321   0.00000  Uiso   1.00
H378   H     0.29425   0.78943   0.46178   0.00000  Uiso   1.00
O379   O     0.16667   0.83333   0.25000   0.00000  Uiso   1.00
O380   O     0.15451   0.79304   0.15458   0.00000  Uiso   1.00
O381   O     0.12940   0.87058   0.34968   0.00000  Uiso   1.00
O382   O     0.20824   0.84425   0.14606   0.00000  Uiso   1.00
O383   O     0.17451   0.82546   0.34968   0.00000  Uiso   1.00
O384   O     0.11637   0.99492   0.29718   0.00000  Uiso   1.00
O385   O     0.28398   0.84411   0.42388   0.00000  Uiso   1.00
O386   O     0.29486   0.80670   0.49006   0.00000  Uiso   1.00
O387   O     0.12208   0.80417   0.07495   0.00000  Uiso   1.00
O388   O     0.17930   0.74686   0.28213   0.00000  Uiso   1.00
O389   O     0.14632   0.92751   0.27013   0.00000  Uiso   1.00
O390   O     0.07412   0.79958   0.23413   0.00000  Uiso   1.00
O391   O     0.26693   0.85939   0.21360   0.00000  Uiso   1.00
O392   O     0.07071   0.85544   0.28213   0.00000  Uiso   1.00
O393   O     0.25491   0.81892   0.27013   0.00000  Uiso   1.00
O394   O     0.13760   0.73610   0.23413   0.00000  Uiso   1.00
O395   O     0.20345   0.92286   0.21360   0.00000  Uiso   1.00
Zn396  Zn    0.19338   0.80661   0.28734   0.00000  Uiso   1.00
Zn397  Zn    0.13379   0.79124   0.21875   0.00000  Uiso   1.00
Zn398  Zn    0.21056   0.86442   0.20657   0.00000  Uiso   1.00
Zn399  Zn    0.12893   0.87106   0.28733   0.00000  Uiso   1.00
C400   C     0.38603   0.82628   0.26037   0.00000  Uiso   1.00
C401   C     0.49899   0.81412   0.05636   0.00000  Uiso   1.00
C402   C     0.57226   0.80853   0.05693   0.00000  Uiso   1.00
C403   C     0.61424   0.84053   0.23977   0.00000  Uiso   1.00
C404   C     0.47071   0.85652   0.42095   0.00000  Uiso   1.00
C405   C     0.66037   0.84305   0.23481   0.00000  Uiso   1.00
C406   C     0.34086   0.82477   0.26391   0.00000  Uiso   1.00
C407   C     0.51316   0.98916   0.23723   0.00000  Uiso   1.00
C408   C     0.48434   0.67883   0.26482   0.00000  Uiso   1.00
C409   C     0.49000   0.72272   0.25972   0.00000  Uiso   1.00
C410   C     0.50981   0.94463   0.24028   0.00000  Uiso   1.00
C411   C     0.41811   0.86684   0.49263   0.00000  Uiso   1.00
C412   C     0.51865   0.81537   0.12905   0.00000  Uiso   1.00
C413   C     0.48156   0.85131   0.37113   0.00000  Uiso   1.00
C414   C     0.58643   0.81349   0.01116   0.00000  Uiso   1.00
C415   C     0.52908   0.80942   0.07991   0.00000  Uiso   1.00
C416   C     0.42904   0.86525   0.44596   0.00000  Uiso   1.00
C417   C     0.44621   0.85634   0.01496   0.00000  Uiso   1.00
C418   C     0.48644   0.84365   0.49102   0.00000  Uiso   1.00
C419   C     0.50053   0.84907   0.44439   0.00000  Uiso   1.00
C420   C     0.51411   0.82834   0.01243   0.00000  Uiso   1.00
C421   C     0.55835   0.82655   0.48884   0.00000  Uiso   1.00
C422   C     0.57368   0.83958   0.44470   0.00000  Uiso   1.00
C423   C     0.54452   0.84934   0.42276   0.00000  Uiso   1.00
Cl424  Cl    0.38848   0.87366   0.42121   0.00000  Uiso   1.00
Cl425  Cl    0.36327   0.86989   0.19041   0.00000  Uiso   1.00
H426   H     0.59524   0.80345   0.07478   0.00000  Uiso   1.00
H427   H     0.45098   0.78358   0.09737   0.00000  Uiso   1.00
H428   H     0.65197   0.80883   0.29159   0.00000  Uiso   1.00
H429   H     0.53983   0.67031   0.21189   0.00000  Uiso   1.00
H430   H     0.43641   0.86025   0.05118   0.00000  Uiso   1.00
H431   H     0.38703   0.87540   0.01192   0.00000  Uiso   1.00
H432   H     0.55722   0.85970   0.38924   0.00000  Uiso   1.00
H433   H     0.43271   0.68409   0.31352   0.00000  Uiso   1.00
H434   H     0.62244   0.85326   0.39321   0.00000  Uiso   1.00
H435   H     0.62758   0.78943   0.46178   0.00000  Uiso   1.00
O436   O     0.50000   0.83333   0.25000   0.00000  Uiso   1.00
O437   O     0.48784   0.79304   0.15458   0.00000  Uiso   1.00
O438   O     0.46274   0.87058   0.34968   0.00000  Uiso   1.00
O439   O     0.54157   0.84425   0.14606   0.00000  Uiso   1.00
O440   O     0.50785   0.82546   0.34968   0.00000  Uiso   1.00
O441   O     0.44970   0.99492   0.29718   0.00000  Uiso   1.00
O442   O     0.61731   0.84411   0.42388   0.00000  Uiso   1.00
O443   O     0.62819   0.80670   0.49006   0.00000  Uiso   1.00
O444   O     0.45542   0.80417   0.07495   0.00000  Uiso   1.00
O445   O     0.51264   0.74686   0.28213   0.00000  Uiso   1.00
O446   O     0.47965   0.92751   0.27013   0.00000  Uiso   1.00
O447   O     0.40745   0.79958   0.23413   0.00000  Uiso   1.00
O448   O     0.60026   0.85939   0.21360   0.00000  Uiso   1.00
O449   O     0.40405   0.85544   0.28213   0.00000  Uiso   1.00
O450   O     0.58824   0.81892   0.27013   0.00000  Uiso   1.00
O451   O     0.47093   0.73610   0.23413   0.00000  Uiso   1.00
O452   O     0.53678   0.92286   0.21360   0.00000  Uiso   1.00
Zn453  Zn    0.52672   0.80661   0.28734   0.00000  Uiso   1.00
Zn454  Zn    0.46713   0.79124   0.21875   0.00000  Uiso   1.00
Zn455  Zn    0.54389   0.86442   0.20657   0.00000  Uiso   1.00
Zn456  Zn    0.46226   0.87106   0.28733   0.00000  Uiso   1.00
C457   C     0.71937   0.82628   0.26037   0.00000  Uiso   1.00
C458   C     0.83232   0.81412   0.05636   0.00000  Uiso   1.00
C459   C     0.90559   0.80853   0.05693   0.00000  Uiso   1.00
C460   C     0.94757   0.84053   0.23977   0.00000  Uiso   1.00
C461   C     0.80405   0.85652   0.42095   0.00000  Uiso   1.00
C462   C     0.99370   0.84305   0.23481   0.00000  Uiso   1.00
C463   C     0.67419   0.82477   0.26391   0.00000  Uiso   1.00
C464   C     0.84649   0.98916   0.23723   0.00000  Uiso   1.00
C465   C     0.81767   0.67883   0.26482   0.00000  Uiso   1.00
C466   C     0.82333   0.72272   0.25972   0.00000  Uiso   1.00
C467   C     0.84314   0.94463   0.24028   0.00000  Uiso   1.00
C468   C     0.75144   0.86684   0.49263   0.00000  Uiso   1.00
C469   C     0.85198   0.81537   0.12905   0.00000  Uiso   1.00
C470   C     0.81489   0.85131   0.37113   0.00000  Uiso   1.00
C471   C     0.91976   0.81349   0.01116   0.00000  Uiso   1.00
C472   C     0.86241   0.80942   0.07991   0.00000  Uiso   1.00
C473   C     0.76238   0.86525   0.44596   0.00000  Uiso   1.00
C474   C     0.77954   0.85634   0.01496   0.00000  Uiso   1.00
C475   C     0.81977   0.84365   0.49102   0.00000  Uiso   1.00
C476   C     0.83386   0.84907   0.44439   0.00000  Uiso   1.00
C477   C     0.84744   0.82834   0.01243   0.00000  Uiso   1.00
C478   C     0.89169   0.82655   0.48884   0.00000  Uiso   1.00
C479   C     0.90702   0.83958   0.44470   0.00000  Uiso   1.00
C480   C     0.87785   0.84934   0.42276   0.00000  Uiso   1.00
Cl481  Cl    0.72182   0.87366   0.42121   0.00000  Uiso   1.00
Cl482  Cl    0.69660   0.86989   0.19041   0.00000  Uiso   1.00
H483   H     0.92857   0.80345   0.07478   0.00000  Uiso   1.00
H484   H     0.78431   0.78358   0.09737   0.00000  Uiso   1.00
H485   H     0.98531   0.80883   0.29159   0.00000  Uiso   1.00
H486   H     0.87317   0.67031   0.21189   0.00000  Uiso   1.00
H487   H     0.76975   0.86025   0.05118   0.00000  Uiso   1.00
H488   H     0.72037   0.87540   0.01192   0.00000  Uiso   1.00
H489   H     0.89056   0.85970   0.38924   0.00000  Uiso   1.00
H490   H     0.76605   0.68409   0.31352   0.00000  Uiso   1.00
H491   H     0.95577   0.85326   0.39321   0.00000  Uiso   1.00
H492   H     0.96091   0.78943   0.46178   0.00000  Uiso   1.00
O493   O     0.83333   0.83333   0.25000   0.00000  Uiso   1.00
O494   O     0.82118   0.79304   0.15458   0.00000  Uiso   1.00
O495   O     0.79607   0.87058   0.34968   0.00000  Uiso   1.00
O496   O     0.87491   0.84425   0.14606   0.00000  Uiso   1.00
O497   O     0.84118   0.82546   0.34968   0.00000  Uiso   1.00
O498   O     0.78303   0.99492   0.29718   0.00000  Uiso   1.00
O499   O     0.95065   0.84411   0.42388   0.00000  Uiso   1.00
O500   O     0.96153   0.80670   0.49006   0.00000  Uiso   1.00
O501   O     0.78875   0.80417   0.07495   0.00000  Uiso   1.00
O502   O     0.84597   0.74686   0.28213   0.00000  Uiso   1.00
O503   O     0.81298   0.92751   0.27013   0.00000  Uiso   1.00
O504   O     0.74078   0.79958   0.23413   0.00000  Uiso   1.00
O505   O     0.93360   0.85939   0.21360   0.00000  Uiso   1.00
O506   O     0.73738   0.85544   0.28213   0.00000  Uiso   1.00
O507   O     0.92158   0.81892   0.27013   0.00000  Uiso   1.00
O508   O     0.80426   0.73610   0.23413   0.00000  Uiso   1.00
O509   O     0.87012   0.92286   0.21360   0.00000  Uiso   1.00
Zn510  Zn    0.86005   0.80661   0.28734   0.00000  Uiso   1.00
Zn511  Zn    0.80046   0.79124   0.21875   0.00000  Uiso   1.00
Zn512  Zn    0.87723   0.86442   0.20657   0.00000  Uiso   1.00
Zn513  Zn    0.79560   0.87106   0.28733   0.00000  Uiso   1.00
C514   C     0.05270   0.15962   0.76037   0.00000  Uiso   1.00
C515   C     0.16566   0.14745   0.55636   0.00000  Uiso   1.00
C516   C     0.23893   0.14187   0.55693   0.00000  Uiso   1.00
C517   C     0.28091   0.17386   0.73977   0.00000  Uiso   1.00
C518   C     0.13738   0.18986   0.92095   0.00000  Uiso   1.00
C519   C     0.32704   0.17638   0.73481   0.00000  Uiso   1.00
C520   C     0.00752   0.15810   0.76391   0.00000  Uiso   1.00
C521   C     0.17983   0.32250   0.73723   0.00000  Uiso   1.00
C522   C     0.15100   0.01216   0.76482   0.00000  Uiso   1.00
C523   C     0.15667   0.05605   0.75972   0.00000  Uiso   1.00
C524   C     0.17647   0.27796   0.74028   0.00000  Uiso   1.00
C525   C     0.08478   0.20017   0.99263   0.00000  Uiso   1.00
C526   C     0.18531   0.14870   0.62905   0.00000  Uiso   1.00
C527   C     0.14822   0.18464   0.87113   0.00000  Uiso   1.00
C528   C     0.25309   0.14683   0.51116   0.00000  Uiso   1.00
C529   C     0.19574   0.14275   0.57991   0.00000  Uiso   1.00
C530   C     0.09571   0.19858   0.94596   0.00000  Uiso   1.00
C531   C     0.11287   0.18967   0.51496   0.00000  Uiso   1.00
C532   C     0.15310   0.17699   0.99102   0.00000  Uiso   1.00
C533   C     0.16719   0.18241   0.94439   0.00000  Uiso   1.00
C534   C     0.18077   0.16168   0.51243   0.00000  Uiso   1.00
C535   C     0.22502   0.15988   0.98884   0.00000  Uiso   1.00
C536   C     0.24035   0.17291   0.94470   0.00000  Uiso   1.00
C537   C     0.21118   0.18267   0.92276   0.00000  Uiso   1.00
Cl538  Cl    0.05515   0.20700   0.92121   0.00000  Uiso   1.00
Cl539  Cl    0.02993   0.20323   0.69041   0.00000  Uiso   1.00
H540   H     0.26190   0.13678   0.57478   0.00000  Uiso   1.00
H541   H     0.11765   0.11691   0.59737   0.00000  Uiso   1.00
H542   H     0.31864   0.14216   0.79159   0.00000  Uiso   1.00
H543   H     0.20650   0.00365   0.71189   0.00000  Uiso   1.00
H544   H     0.10308   0.19358   0.55118   0.00000  Uiso   1.00
H545   H     0.05370   0.20873   0.51192   0.00000  Uiso   1.00
H546   H     0.22389   0.19303   0.88924   0.00000  Uiso   1.00
H547   H     0.09938   0.01742   0.81352   0.00000  Uiso   1.00
H548   H     0.28910   0.18659   0.89321   0.00000  Uiso   1.00
H549   H     0.29425   0.12277   0.96178   0.00000  Uiso   1.00
O550   O     0.16667   0.16667   0.75000   0.00000  Uiso   1.00
O551   O     0.15451   0.12637   0.65458   0.00000  Uiso   1.00
O552   O     0.12940   0.20391   0.84968   0.00000  Uiso   1.00
O553   O     0.20824   0.17759   0.64606   0.00000  Uiso   1.00
O554   O     0.17451   0.15880   0.84968   0.00000  Uiso   1.00
O555   O     0.11637   0.32825   0.79718   0.00000  Uiso   1.00
O556   O     0.28398   0.17744   0.92388   0.00000  Uiso   1.00
O557   O     0.29486   0.14004   0.99006   0.00000  Uiso   1.00
O558   O     0.12208   0.13751   0.57495   0.00000  Uiso   1.00
O559   O     0.17930   0.08019   0.78213   0.00000  Uiso   1.00
O560   O     0.14632   0.26085   0.77013   0.00000  Uiso   1.00
O561   O     0.07412   0.13291   0.73413   0.00000  Uiso   1.00
O562   O     0.26693   0.19272   0.71360   0.00000  Uiso   1.00
O563   O     0.07071   0.18878   0.78213   0.00000  Uiso   1.00
O564   O     0.25491   0.15226   0.77013   0.00000  Uiso   1.00
O565   O     0.13760   0.06944   0.73413   0.00000  Uiso   1.00
O566   O     0.20345   0.25620   0.71360   0.00000  Uiso   1.00
Zn567  Zn    0.19338   0.13994   0.78734   0.00000  Uiso   1.00
Zn568  Zn    0.13379   0.12458   0.71875   0.00000  Uiso   1.00
Zn569  Zn    0.21056   0.19775   0.70657   0.00000  Uiso   1.00
Zn570  Zn    0.12893   0.20439   0.78733   0.00000  Uiso   1.00
C571   C     0.38603   0.15962   0.76037   0.00000  Uiso   1.00
C572   C     0.49899   0.14745   0.55636   0.00000  Uiso   1.00
C573   C     0.57226   0.14187   0.55693   0.00000  Uiso   1.00
C574   C     0.61424   0.17386   0.73977   0.00000  Uiso   1.00
C575   C     0.47071   0.18986   0.92095   0.00000  Uiso   1.00
C576   C     0.66037   0.17638   0.73481   0.00000  Uiso   1.00
C577   C     0.34086   0.15810   0.76391   0.00000  Uiso   1.00
C578   C     0.51316   0.32250   0.73723   0.00000  Uiso   1.00
C579   C     0.48434   0.01216   0.76482   0.00000  Uiso   1.00
C580   C     0.49000   0.05605   0.75972   0.00000  Uiso   1.00
C581   C     0.50981   0.27796   0.74028   0.00000  Uiso   1.00
C582   C     0.41811   0.20017   0.99263   0.00000  Uiso   1.00
C583   C     0.51865   0.14870   0.62905   0.00000  Uiso   1.00
C584   C     0.48156   0.18464   0.87113   0.00000  Uiso   1.00
C585   C     0.58643   0.14683   0.51116   0.00000  Uiso   1.00
C586   C     0.52908   0.14275   0.57991   0.00000  Uiso   1.00
C587   C     0.42904   0.19858   0.94596   0.00000  Uiso   1.00
C588   C     0.44621   0.18967   0.51496   0.00000  Uiso   1.00
C589   C     0.48644   0.17699   0.99102   0.00000  Uiso   1.00
C590   C     0.50053   0.18241   0.94439   0.00000  Uiso   1.00
C591   C     0.51411   0.16168   0.51243   0.00000  Uiso   1.00
C592   C     0.55835   0.15988   0.98884   0.00000  Uiso   1.00
C593   C     0.57368   0.17291   0.94470   0.00000  Uiso   1.00
C594   C     0.54452   0.18267   0.92276   0.00000  Uiso   1.00
Cl595  Cl    0.38848   0.20700   0.92121   0.00000  Uiso   1.00
Cl596  Cl    0.36327   0.20323   0.69041   0.00000  Uiso   1.00
H597   H     0.59524   0.13678   0.57478   0.00000  Uiso   1.00
H598   H     0.45098   0.11691   0.59737   0.00000  Uiso   1.00
H599   H     0.65197   0.14216   0.79159   0.00000  Uiso   1.00
H600   H     0.53983   0.00365   0.71189   0.00000  Uiso   1.00
H601   H     0.43641   0.19358   0.55118   0.00000  Uiso   1.00
H602   H     0.38703   0.20873   0.51192   0.00000  Uiso   1.00
H603   H     0.55722   0.19303   0.88924   0.00000  Uiso   1.00
H604   H     0.43271   0.01742   0.81352   0.00000  Uiso   1.00
H605   H     0.62244   0.18659   0.89321   0.00000  Uiso   1.00
H606   H     0.62758   0.12277   0.96178   0.00000  Uiso   1.00
O607   O     0.50000   0.16667   0.75000   0.00000  Uiso   1.00
O608   O     0.48784   0.12637   0.65458   0.00000  Uiso   1.00
O609   O     0.46274   0.20391   0.84968   0.00000  Uiso   1.00
O610   O     0.54157   0.17759   0.64606   0.00000  Uiso   1.00
O611   O     0.50785   0.15880   0.84968   0.00000  Uiso   1.00
O612   O     0.44970   0.32825   0.79718   0.00000  Uiso   1.00
O613   O     0.61731   0.17744   0.92388   0.00000  Uiso   1.00
O614   O     0.62819   0.14004   0.99006   0.00000  Uiso   1.00
O615   O     0.45542   0.13751   0.57495   0.00000  Uiso   1.00
O616   O     0.51264   0.08019   0.78213   0.00000  Uiso   1.00
O617   O     0.47965   0.26085   0.77013   0.00000  Uiso   1.00
O618   O     0.40745   0.13291   0.73413   0.00000  Uiso   1.00
O619   O     0.60026   0.19272   0.71360   0.00000  Uiso   1.00
O620   O     0.40405   0.18878   0.78213   0.00000  Uiso   1.00
O621   O     0.58824   0.15226   0.77013   0.00000  Uiso   1.00
O622   O     0.47093   0.06944   0.73413   0.00000  Uiso   1.00
O623   O     0.53678   0.25620   0.71360   0.00000  Uiso   1.00
Zn624  Zn    0.52672   0.13994   0.78734   0.00000  Uiso   1.00
Zn625  Zn    0.46713   0.12458   0.71875   0.00000  Uiso   1.00
Zn626  Zn    0.54389   0.19775   0.70657   0.00000  Uiso   1.00
Zn627  Zn    0.46226   0.20439   0.78733   0.00000  Uiso   1.00
C628   C     0.71937   0.15962   0.76037   0.00000  Uiso   1.00
C629   C     0.83232   0.14745   0.55636   0.00000  Uiso   1.00
C630   C     0.90559   0.14187   0.55693   0.00000  Uiso   1.00
C631   C     0.94757   0.17386   0.73977   0.00000  Uiso   1.00
C632   C     0.80405   0.18986   0.92095   0.00000  Uiso   1.00
C633   C     0.99370   0.17638   0.73481   0.00000  Uiso   1.00
C634   C     0.67419   0.15810   0.76391   0.00000  Uiso   1.00
C635   C     0.84649   0.32250   0.73723   0.00000  Uiso   1.00
C636   C     0.81767   0.01216   0.76482   0.00000  Uiso   1.00
C637   C     0.82333   0.05605   0.75972   0.00000  Uiso   1.00
C638   C     0.84314   0.27796   0.74028   0.00000  Uiso   1.00
C639   C     0.75144   0.20017   0.99263   0.00000  Uiso   1.00
C640   C     0.85198   0.14870   0.62905   0.00000  Uiso   1.00
C641   C     0.81489   0.18464   0.87113   0.00000  Uiso   1.00
C642   C     0.91976   0.14683   0.51116   0.00000  Uiso   1.00
C643   C     0.86241   0.14275   0.57991   0.00000  Uiso   1.00
C644   C     0.76238   0.19858   0.94596   0.00000  Uiso   1.00
C645   C     0.77954   0.18967   0.51496   0.00000  Uiso   1.00
C646   C     0.81977   0.17699   0.99102   0.00000  Uiso   1.00
C647   C     0.83386   0.18241   0.94439   0.00000  Uiso   1.00
C648   C     0.84744   0.16168   0.51243   0.00000  Uiso   1.00
C649   C     0.89169   0.15988   0.98884   0.00000  Uiso   1.00
C650   C     0.90702   0.17291   0.94470   0.00000  Uiso   1.00
C651   C     0.87785   0.18267   0.92276   0.00000  Uiso   1.00
Cl652  Cl    0.72182   0.20700   0.92121   0.00000  Uiso   1.00
Cl653  Cl    0.69660   0.20323   0.69041   0.00000  Uiso   1.00
H654   H     0.92857   0.13678   0.57478   0.00000  Uiso   1.00
H655   H     0.78431   0.11691   0.59737   0.00000  Uiso   1.00
H656   H     0.98531   0.14216   0.79159   0.00000  Uiso   1.00
H657   H     0.87317   0.00365   0.71189   0.00000  Uiso   1.00
H658   H     0.76975   0.19358   0.55118   0.00000  Uiso   1.00
H659   H     0.72037   0.20873   0.51192   0.00000  Uiso   1.00
H660   H     0.89056   0.19303   0.88924   0.00000  Uiso   1.00
H661   H     0.76605   0.01742   0.81352   0.00000  Uiso   1.00
H662   H     0.95577   0.18659   0.89321   0.00000  Uiso   1.00
H663   H     0.96091   0.12277   0.96178   0.00000  Uiso   1.00
O664   O     0.83333   0.16667   0.75000   0.00000  Uiso   1.00
O665   O     0.82118   0.12637   0.65458   0.00000  Uiso   1.00
O666   O     0.79607   0.20391   0.84968   0.00000  Uiso   1.00
O667   O     0.87491   0.17759   0.64606   0.00000  Uiso   1.00
O668   O     0.84118   0.15880   0.84968   0.00000  Uiso   1.00
O669   O     0.78303   0.32825   0.79718   0.00000  Uiso   1.00
O670   O     0.95065   0.17744   0.92388   0.00000  Uiso   1.00
O671   O     0.96153   0.14004   0.99006   0.00000  Uiso   1.00
O672   O     0.78875   0.13751   0.57495   0.00000  Uiso   1.00
O673   O     0.84597   0.08019   0.78213   0.00000  Uiso   1.00
O674   O     0.81298   0.26085   0.77013   0.00000  Uiso   1.00
O675   O     0.74078   0.13291   0.73413   0.00000  Uiso   1.00
O676   O     0.93360   0.19272   0.71360   0.00000  Uiso   1.00
O677   O     0.73738   0.18878   0.78213   0.00000  Uiso   1.00
O678   O     0.92158   0.15226   0.77013   0.00000  Uiso   1.00
O679   O     0.80426   0.06944   0.73413   0.00000  Uiso   1.00
O680   O     0.87012   0.25620   0.71360   0.00000  Uiso   1.00
Zn681  Zn    0.86005   0.13994   0.78734   0.00000  Uiso   1.00
Zn682  Zn    0.80046   0.12458   0.71875   0.00000  Uiso   1.00
Zn683  Zn    0.87723   0.19775   0.70657   0.00000  Uiso   1.00
Zn684  Zn    0.79560   0.20439   0.78733   0.00000  Uiso   1.00
C685   C     0.05270   0.49295   0.76037   0.00000  Uiso   1.00
C686   C     0.16566   0.48078   0.55636   0.00000  Uiso   1.00
C687   C     0.23893   0.47520   0.55693   0.00000  Uiso   1.00
C688   C     0.28091   0.50719   0.73977   0.00000  Uiso   1.00
C689   C     0.13738   0.52319   0.92095   0.00000  Uiso   1.00
C690   C     0.32704   0.50971   0.73481   0.00000  Uiso   1.00
C691   C     0.00752   0.49144   0.76391   0.00000  Uiso   1.00
C692   C     0.17983   0.65583   0.73723   0.00000  Uiso   1.00
C693   C     0.15100   0.34550   0.76482   0.00000  Uiso   1.00
C694   C     0.15667   0.38938   0.75972   0.00000  Uiso   1.00
C695   C     0.17647   0.61130   0.74028   0.00000  Uiso   1.00
C696   C     0.08478   0.53351   0.99263   0.00000  Uiso   1.00
C697   C     0.18531   0.48204   0.62905   0.00000  Uiso   1.00
C698   C     0.14822   0.51797   0.87113   0.00000  Uiso   1.00
C699   C     0.25309   0.48016   0.51116   0.00000  Uiso   1.00
C700   C     0.19574   0.47608   0.57991   0.00000  Uiso   1.00
C701   C     0.09571   0.53191   0.94596   0.00000  Uiso   1.00
C702   C     0.11287   0.52300   0.51496   0.00000  Uiso   1.00
C703   C     0.15310   0.51032   0.99102   0.00000  Uiso   1.00
C704   C     0.16719   0.51574   0.94439   0.00000  Uiso   1.00
C705   C     0.18077   0.49501   0.51243   0.00000  Uiso   1.00
C706   C     0.22502   0.49321   0.98884   0.00000  Uiso   1.00
C707   C     0.24035   0.50624   0.94470   0.00000  Uiso   1.00
C708   C     0.21118   0.51601   0.92276   0.00000  Uiso   1.00
Cl709  Cl    0.05515   0.54033   0.92121   0.00000  Uiso   1.00
Cl710  Cl    0.02993   0.53656   0.69041   0.00000  Uiso   1.00
H711   H     0.26190   0.47012   0.57478   0.00000  Uiso   1.00
H712   H     0.11765   0.45024   0.59737   0.00000  Uiso   1.00
H713   H     0.31864   0.47549   0.79159   0.00000  Uiso   1.00
H714   H     0.20650   0.33698   0.71189   0.00000  Uiso   1.00
H715   H     0.10308   0.52691   0.55118   0.00000  Uiso   1.00
H716   H     0.05370   0.54206   0.51192   0.00000  Uiso   1.00
H717   H     0.22389   0.52636   0.88924   0.00000  Uiso   1.00
H718   H     0.09938   0.35076   0.81352   0.00000  Uiso   1.00
H719   H     0.28910   0.51992   0.89321   0.00000  Uiso   1.00
H720   H     0.29425   0.45610   0.96178   0.00000  Uiso   1.00
O721   O     0.16667   0.50000   0.75000   0.00000  Uiso   1.00
O722   O     0.15451   0.45970   0.65458   0.00000  Uiso   1.00
O723   O     0.12940   0.53724   0.84968   0.00000  Uiso   1.00
O724   O     0.20824   0.51092   0.64606   0.00000  Uiso   1.00
O725   O     0.17451   0.49213   0.84968   0.00000  Uiso   1.00
O726   O     0.11637   0.66158   0.79718   0.00000  Uiso   1.00
O727   O     0.28398   0.51078   0.92388   0.00000  Uiso   1.00
O728   O     0.29486   0.47337   0.99006   0.00000  Uiso   1.00
O729   O     0.12208   0.47084   0.57495   0.00000  Uiso   1.00
O730   O     0.17930   0.41352   0.78213   0.00000  Uiso   1.00
O731   O     0.14632   0.59418   0.77013   0.00000  Uiso   1.00
O732   O     0.07412   0.46625   0.73413   0.00000  Uiso   1.00
O733   O     0.26693   0.52605   0.71360   0.00000  Uiso   1.00
O734   O     0.07071   0.52211   0.78213   0.00000  Uiso   1.00
O735   O     0.25491   0.48559   0.77013   0.00000  Uiso   1.00
O736   O     0.13760   0.40277   0.73413   0.00000  Uiso   1.00
O737   O     0.20345   0.58953   0.71360   0.00000  Uiso   1.00
Zn738  Zn    0.19338   0.47327   0.78734   0.00000  Uiso   1.00
Zn739  Zn    0.13379   0.45791   0.71875   0.00000  Uiso   1.00
Zn740  Zn    0.21056   0.53109   0.70657   0.00000  Uiso   1.00
Zn741  Zn    0.12893   0.53773   0.78733   0.00000  Uiso   1.00
C742   C     0.38603   0.49295   0.76037   0.00000  Uiso   1.00
C743   C     0.49899   0.48078   0.55636   0.00000  Uiso   1.00
C744   C     0.57226   0.47520   0.55693   0.00000  Uiso   1.00
C745   C     0.61424   0.50719   0.73977   0.00000  Uiso   1.00
C746   C     0.47071   0.52319   0.92095   0.00000  Uiso   1.00
C747   C     0.66037   0.50971   0.73481   0.00000  Uiso   1.00
C748   C     0.34086   0.49144   0.76391   0.00000  Uiso   1.00
C749   C     0.51316   0.65583   0.73723   0.00000  Uiso   1.00
C750   C     0.48434   0.34550   0.76482   0.00000  Uiso   1.00
C751   C     0.49000   0.38938   0.75972   0.00000  Uiso   1.00
C752   C     0.50981   0.61130   0.74028   0.00000  Uiso   1.00
C753   C     0.41811   0.53351   0.99263   0.00000  Uiso   1.00
C754   C     0.51865   0.48204   0.62905   0.00000  Uiso   1.00
C755   C     0.48156   0.51797   0.87113   0.00000  Uiso   1.00
C756   C     0.58643   0.48016   0.51116   0.00000  Uiso   1.00
C757   C     0.52908   0.47608   0.57991   0.00000  Uiso   1.00
C758   C     0.42904   0.53191   0.94596   0.00000  Uiso   1.00
C759   C     0.44621   0.52300   0.51496   0.00000  Uiso   1.00
C760   C     0.48644   0.51032   0.99102   0.00000  Uiso   1.00
C761   C     0.50053   0.51574   0.94439   0.00000  Uiso   1.00
C762   C     0.51411   0.49501   0.51243   0.00000  Uiso   1.00
C763   C     0.55835   0.49321   0.98884   0.00000  Uiso   1.00
C764   C     0.57368   0.50624   0.94470   0.00000  Uiso   1.00
C765   C     0.54452   0.51601   0.92276   0.00000  Uiso   1.00
Cl766  Cl    0.38848   0.54033   0.92121   0.00000  Uiso   1.00
Cl767  Cl    0.36327   0.53656   0.69041   0.00000  Uiso   1.00
H768   H     0.59524   0.47012   0.57478   0.00000  Uiso   1.00
H769   H     0.45098   0.45024   0.59737   0.00000  Uiso   1.00
H770   H     0.65197   0.47549   0.79159   0.00000  Uiso   1.00
H771   H     0.53983   0.33698   0.71189   0.00000  Uiso   1.00
H772   H     0.43641   0.52691   0.55118   0.00000  Uiso   1.00
H773   H     0.38703   0.54206   0.51192   0.00000  Uiso   1.00
H774   H     0.55722   0.52636   0.88924   0.00000  Uiso   1.00
H775   H     0.43271   0.35076   0.81352   0.00000  Uiso   1.00
H776   H     0.62244   0.51992   0.89321   0.00000  Uiso   1.00
H777   H     0.62758   0.45610   0.96178   0.00000  Uiso   1.00
O778   O     0.50000   0.50000   0.75000   0.00000  Uiso   1.00
O779   O     0.48784   0.45970   0.65458   0.00000  Uiso   1.00
O780   O     0.46274   0.53724   0.84968   0.00000  Uiso   1.00
O781   O     0.54157   0.51092   0.64606   0.00000  Uiso   1.00
O782   O     0.50785   0.49213   0.84968   0.00000  Uiso   1.00
O783   O     0.44970   0.66158   0.79718   0.00000  Uiso   1.00
O784   O     0.61731   0.51078   0.92388   0.00000  Uiso   1.00
O785   O     0.62819   0.47337   0.99006   0.00000  Uiso   1.00
O786   O     0.45542   0.47084   0.57495   0.00000  Uiso   1.00
O787   O     0.51264   0.41352   0.78213   0.00000  Uiso   1.00
O788   O     0.47965   0.59418   0.77013   0.00000  Uiso   1.00
O789   O     0.40745   0.46625   0.73413   0.00000  Uiso   1.00
O790   O     0.60026   0.52605   0.71360   0.00000  Uiso   1.00
O791   O     0.40405   0.52211   0.78213   0.00000  Uiso   1.00
O792   O     0.58824   0.48559   0.77013   0.00000  Uiso   1.00
O793   O     0.47093   0.40277   0.73413   0.00000  Uiso   1.00
O794   O     0.53678   0.58953   0.71360   0.00000  Uiso   1.00
Zn795  Zn    0.52672   0.47327   0.78734   0.00000  Uiso   1.00
Zn796  Zn    0.46713   0.45791   0.71875   0.00000  Uiso   1.00
Zn797  Zn    0.54389   0.53109   0.70657   0.00000  Uiso   1.00
Zn798  Zn    0.46226   0.53773   0.78733   0.00000  Uiso   1.00
C799   C     0.71937   0.49295   0.76037   0.00000  Uiso   1.00
C800   C     0.83232   0.48078   0.55636   0.00000  Uiso   1.00
C801   C     0.90559   0.47520   0.55693   0.00000  Uiso   1.00
C802   C     0.94757   0.50719   0.73977   0.00000  Uiso   1.00
C803   C     0.80405   0.52319   0.92095   0.00000  Uiso   1.00
C804   C     0.99370   0.50971   0.73481   0.00000  Uiso   1.00
C805   C     0.67419   0.49144   0.76391   0.00000  Uiso   1.00
C806   C     0.84649   0.65583   0.73723   0.00000  Uiso   1.00
C807   C     0.81767   0.34550   0.76482   0.00000  Uiso   1.00
C808   C     0.82333   0.38938   0.75972   0.00000  Uiso   1.00
C809   C     0.84314   0.61130   0.74028   0.00000  Uiso   1.00
C810   C     0.75144   0.53351   0.99263   0.00000  Uiso   1.00
C811   C     0.85198   0.48204   0.62905   0.00000  Uiso   1.00
C812   C     0.81489   0.51797   0.87113   0.00000  Uiso   1.00
C813   C     0.91976   0.48016   0.51116   0.00000  Uiso   1.00
C814   C     0.86241   0.47608   0.57991   0.00000  Uiso   1.00
C815   C     0.76238   0.53191   0.94596   0.00000  Uiso   1.00
C816   C     0.77954   0.52300   0.51496   0.00000  Uiso   1.00
C817   C     0.81977   0.51032   0.99102   0.00000  Uiso   1.00
C818   C     0.83386   0.51574   0.94439   0.00000  Uiso   1.00
C819   C     0.84744   0.49501   0.51243   0.00000  Uiso   1.00
C820   C     0.89169   0.49321   0.98884   0.00000  Uiso   1.00
C821   C     0.90702   0.50624   0.94470   0.00000  Uiso   1.00
C822   C     0.87785   0.51601   0.92276   0.00000  Uiso   1.00
Cl823  Cl    0.72182   0.54033   0.92121   0.00000  Uiso   1.00
Cl824  Cl    0.69660   0.53656   0.69041   0.00000  Uiso   1.00
H825   H     0.92857   0.47012   0.57478   0.00000  Uiso   1.00
H826   H     0.78431   0.45024   0.59737   0.00000  Uiso   1.00
H827   H     0.98531   0.47549   0.79159   0.00000  Uiso   1.00
H828   H     0.87317   0.33698   0.71189   0.00000  Uiso   1.00
H829   H     0.76975   0.52691   0.55118   0.00000  Uiso   1.00
H830   H     0.72037   0.54206   0.51192   0.00000  Uiso   1.00
H831   H     0.89056   0.52636   0.88924   0.00000  Uiso   1.00
H832   H     0.76605   0.35076   0.81352   0.00000  Uiso   1.00
H833   H     0.95577   0.51992   0.89321   0.00000  Uiso   1.00
H834   H     0.96091   0.45610   0.96178   0.00000  Uiso   1.00
O835   O     0.83333   0.50000   0.75000   0.00000  Uiso   1.00
O836   O     0.82118   0.45970   0.65458   0.00000  Uiso   1.00
O837   O     0.79607   0.53724   0.84968   0.00000  Uiso   1.00
O838   O     0.87491   0.51092   0.64606   0.00000  Uiso   1.00
O839   O     0.84118   0.49213   0.84968   0.00000  Uiso   1.00
O840   O     0.78303   0.66158   0.79718   0.00000  Uiso   1.00
O841   O     0.95065   0.51078   0.92388   0.00000  Uiso   1.00
O842   O     0.96153   0.47337   0.99006   0.00000  Uiso   1.00
O843   O     0.78875   0.47084   0.57495   0.00000  Uiso   1.00
O844   O     0.84597   0.41352   0.78213   0.00000  Uiso   1.00
O845   O     0.81298   0.59418   0.77013   0.00000  Uiso   1.00
O846   O     0.74078   0.46625   0.73413   0.00000  Uiso   1.00
O847   O     0.93360   0.52605   0.71360   0.00000  Uiso   1.00
O848   O     0.73738   0.52211   0.78213   0.00000  Uiso   1.00
O849   O     0.92158   0.48559   0.77013   0.00000  Uiso   1.00
O850   O     0.80426   0.40277   0.73413   0.00000  Uiso   1.00
O851   O     0.87012   0.58953   0.71360   0.00000  Uiso   1.00
Zn852  Zn    0.86005   0.47327   0.78734   0.00000  Uiso   1.00
Zn853  Zn    0.80046   0.45791   0.71875   0.00000  Uiso   1.00
Zn854  Zn    0.87723   0.53109   0.70657   0.00000  Uiso   1.00
Zn855  Zn    0.79560   0.53773   0.78733   0.00000  Uiso   1.00
C856   C     0.05270   0.82628   0.76037   0.00000  Uiso   1.00
C857   C     0.16566   0.81412   0.55636   0.00000  Uiso   1.00
C858   C     0.23893   0.80853   0.55693   0.00000  Uiso   1.00
C859   C     0.28091   0.84053   0.73977   0.00000  Uiso   1.00
C860   C     0.13738   0.85652   0.92095   0.00000  Uiso   1.00
C861   C     0.32704   0.84305   0.73481   0.00000  Uiso   1.00
C862   C     0.00752   0.82477   0.76391   0.00000  Uiso   1.00
C863   C     0.17983   0.98916   0.73723   0.00000  Uiso   1.00
C864   C     0.15100   0.67883   0.76482   0.00000  Uiso   1.00
C865   C     0.15667   0.72272   0.75972   0.00000  Uiso   1.00
C866   C     0.17647   0.94463   0.74028   0.00000  Uiso   1.00
C867   C     0.08478   0.86684   0.99263   0.00000  Uiso   1.00
C868   C     0.18531   0.81537   0.62905   0.00000  Uiso   1.00
C869   C     0.14822   0.85131   0.87113   0.00000  Uiso   1.00
C870   C     0.25309   0.81349   0.51116   0.00000  Uiso   1.00
C871   C     0.19574   0.80942   0.57991   0.00000  Uiso   1.00
C872   C     0.09571   0.86525   0.94596   0.00000  Uiso   1.00
C873   C     0.11287   0.85634   0.51496   0.00000  Uiso   1.00
C874   C     0.15310   0.84365   0.99102   0.00000  Uiso   1.00
C875   C     0.16719   0.84907   0.94439   0.00000  Uiso   1.00
C876   C     0.18077   0.82834   0.51243   0.00000  Uiso   1.00
C877   C     0.22502   0.82655   0.98884   0.00000  Uiso   1.00
C878   C     0.24035   0.83958   0.94470   0.00000  Uiso   1.00
C879   C     0.21118   0.84934   0.92276   0.00000  Uiso   1.00
Cl880  Cl    0.05515   0.87366   0.92121   0.00000  Uiso   1.00
Cl881  Cl    0.02993   0.86989   0.69041   0.00000  Uiso   1.00
H882   H     0.26190   0.80345   0.57478   0.00000  Uiso   1.00
H883   H     0.11765   0.78358   0.59737   0.00000  Uiso   1.00
H884   H     0.31864   0.80883   0.79159   0.00000  Uiso   1.00
H885   H     0.20650   0.67031   0.71189   0.00000  Uiso   1.00
H886   H     0.10308   0.86025   0.55118   0.00000  Uiso   1.00
H887   H     0.05370   0.87540   0.51192   0.00000  Uiso   1.00
H888   H     0.22389   0.85970   0.88924   0.00000  Uiso   1.00
H889   H     0.09938   0.68409   0.81352   0.00000  Uiso   1.00
H890   H     0.28910   0.85326   0.89321   0.00000  Uiso   1.00
H891   H     0.29425   0.78943   0.96178   0.00000  Uiso   1.00
O892   O     0.16667   0.83333   0.75000   0.00000  Uiso   1.00
O893   O     0.15451   0.79304   0.65458   0.00000  Uiso   1.00
O894   O     0.12940   0.87058   0.84968   0.00000  Uiso   1.00
O895   O     0.20824   0.84425   0.64606   0.00000  Uiso   1.00
O896   O     0.17451   0.82546   0.84968   0.00000  Uiso   1.00
O897   O     0.11637   0.99492   0.79718   0.00000  Uiso   1.00
O898   O     0.28398   0.84411   0.92388   0.00000  Uiso   1.00
O899   O     0.29486   0.80670   0.99006   0.00000  Uiso   1.00
O900   O     0.12208   0.80417   0.57495   0.00000  Uiso   1.00
O901   O     0.17930   0.74686   0.78213   0.00000  Uiso   1.00
O902   O     0.14632   0.92751   0.77013   0.00000  Uiso   1.00
O903   O     0.07412   0.79958   0.73413   0.00000  Uiso   1.00
O904   O     0.26693   0.85939   0.71360   0.00000  Uiso   1.00
O905   O     0.07071   0.85544   0.78213   0.00000  Uiso   1.00
O906   O     0.25491   0.81892   0.77013   0.00000  Uiso   1.00
O907   O     0.13760   0.73610   0.73413   0.00000  Uiso   1.00
O908   O     0.20345   0.92286   0.71360   0.00000  Uiso   1.00
Zn909  Zn    0.19338   0.80661   0.78734   0.00000  Uiso   1.00
Zn910  Zn    0.13379   0.79124   0.71875   0.00000  Uiso   1.00
Zn911  Zn    0.21056   0.86442   0.70657   0.00000  Uiso   1.00
Zn912  Zn    0.12893   0.87106   0.78733   0.00000  Uiso   1.00
C913   C     0.38603   0.82628   0.76037   0.00000  Uiso   1.00
C914   C     0.49899   0.81412   0.55636   0.00000  Uiso   1.00
C915   C     0.57226   0.80853   0.55693   0.00000  Uiso   1.00
C916   C     0.61424   0.84053   0.73977   0.00000  Uiso   1.00
C917   C     0.47071   0.85652   0.92095   0.00000  Uiso   1.00
C918   C     0.66037   0.84305   0.73481   0.00000  Uiso   1.00
C919   C     0.34086   0.82477   0.76391   0.00000  Uiso   1.00
C920   C     0.51316   0.98916   0.73723   0.00000  Uiso   1.00
C921   C     0.48434   0.67883   0.76482   0.00000  Uiso   1.00
C922   C     0.49000   0.72272   0.75972   0.00000  Uiso   1.00
C923   C     0.50981   0.94463   0.74028   0.00000  Uiso   1.00
C924   C     0.41811   0.86684   0.99263   0.00000  Uiso   1.00
C925   C     0.51865   0.81537   0.62905   0.00000  Uiso   1.00
C926   C     0.48156   0.85131   0.87113   0.00000  Uiso   1.00
C927   C     0.58643   0.81349   0.51116   0.00000  Uiso   1.00
C928   C     0.52908   0.80942   0.57991   0.00000  Uiso   1.00
C929   C     0.42904   0.86525   0.94596   0.00000  Uiso   1.00
C930   C     0.44621   0.85634   0.51496   0.00000  Uiso   1.00
C931   C     0.48644   0.84365   0.99102   0.00000  Uiso   1.00
C932   C     0.50053   0.84907   0.94439   0.00000  Uiso   1.00
C933   C     0.51411   0.82834   0.51243   0.00000  Uiso   1.00
C934   C     0.55835   0.82655   0.98884   0.00000  Uiso   1.00
C935   C     0.57368   0.83958   0.94470   0.00000  Uiso   1.00
C936   C     0.54452   0.84934   0.92276   0.00000  Uiso   1.00
Cl937  Cl    0.38848   0.87366   0.92121   0.00000  Uiso   1.00
Cl938  Cl    0.36327   0.86989   0.69041   0.00000  Uiso   1.00
H939   H     0.59524   0.80345   0.57478   0.00000  Uiso   1.00
H940   H     0.45098   0.78358   0.59737   0.00000  Uiso   1.00
H941   H     0.65197   0.80883   0.79159   0.00000  Uiso   1.00
H942   H     0.53983   0.67031   0.71189   0.00000  Uiso   1.00
H943   H     0.43641   0.86025   0.55118   0.00000  Uiso   1.00
H944   H     0.38703   0.87540   0.51192   0.00000  Uiso   1.00
H945   H     0.55722   0.85970   0.88924   0.00000  Uiso   1.00
H946   H     0.43271   0.68409   0.81352   0.00000  Uiso   1.00
H947   H     0.62244   0.85326   0.89321   0.00000  Uiso   1.00
H948   H     0.62758   0.78943   0.96178   0.00000  Uiso   1.00
O949   O     0.50000   0.83333   0.75000   0.00000  Uiso   1.00
O950   O     0.48784   0.79304   0.65458   0.00000  Uiso   1.00
O951   O     0.46274   0.87058   0.84968   0.00000  Uiso   1.00
O952   O     0.54157   0.84425   0.64606   0.00000  Uiso   1.00
O953   O     0.50785   0.82546   0.84968   0.00000  Uiso   1.00
O954   O     0.44970   0.99492   0.79718   0.00000  Uiso   1.00
O955   O     0.61731   0.84411   0.92388   0.00000  Uiso   1.00
O956   O     0.62819   0.80670   0.99006   0.00000  Uiso   1.00
O957   O     0.45542   0.80417   0.57495   0.00000  Uiso   1.00
O958   O     0.51264   0.74686   0.78213   0.00000  Uiso   1.00
O959   O     0.47965   0.92751   0.77013   0.00000  Uiso   1.00
O960   O     0.40745   0.79958   0.73413   0.00000  Uiso   1.00
O961   O     0.60026   0.85939   0.71360   0.00000  Uiso   1.00
O962   O     0.40405   0.85544   0.78213   0.00000  Uiso   1.00
O963   O     0.58824   0.81892   0.77013   0.00000  Uiso   1.00
O964   O     0.47093   0.73610   0.73413   0.00000  Uiso   1.00
O965   O     0.53678   0.92286   0.71360   0.00000  Uiso   1.00
Zn966  Zn    0.52672   0.80661   0.78734   0.00000  Uiso   1.00
Zn967  Zn    0.46713   0.79124   0.71875   0.00000  Uiso   1.00
Zn968  Zn    0.54389   0.86442   0.70657   0.00000  Uiso   1.00
Zn969  Zn    0.46226   0.87106   0.78733   0.00000  Uiso   1.00
C970   C     0.71937   0.82628   0.76037   0.00000  Uiso   1.00
C971   C     0.83232   0.81412   0.55636   0.00000  Uiso   1.00
C972   C     0.90559   0.80853   0.55693   0.00000  Uiso   1.00
C973   C     0.94757   0.84053   0.73977   0.00000  Uiso   1.00
C974   C     0.80405   0.85652   0.92095   0.00000  Uiso   1.00
C975   C     0.99370   0.84305   0.73481   0.00000  Uiso   1.00
C976   C     0.67419   0.82477   0.76391   0.00000  Uiso   1.00
C977   C     0.84649   0.98916   0.73723   0.00000  Uiso   1.00
C978   C     0.81767   0.67883   0.76482   0.00000  Uiso   1.00
C979   C     0.82333   0.72272   0.75972   0.00000  Uiso   1.00
C980   C     0.84314   0.94463   0.74028   0.00000  Uiso   1.00
C981   C     0.75144   0.86684   0.99263   0.00000  Uiso   1.00
C982   C     0.85198   0.81537   0.62905   0.00000  Uiso   1.00
C983   C     0.81489   0.85131   0.87113   0.00000  Uiso   1.00
C984   C     0.91976   0.81349   0.51116   0.00000  Uiso   1.00
C985   C     0.86241   0.80942   0.57991   0.00000  Uiso   1.00
C986   C     0.76238   0.86525   0.94596   0.00000  Uiso   1.00
C987   C     0.77954   0.85634   0.51496   0.00000  Uiso   1.00
C988   C     0.81977   0.84365   0.99102   0.00000  Uiso   1.00
C989   C     0.83386   0.84907   0.94439   0.00000  Uiso   1.00
C990   C     0.84744   0.82834   0.51243   0.00000  Uiso   1.00
C991   C     0.89169   0.82655   0.98884   0.00000  Uiso   1.00
C992   C     0.90702   0.83958   0.94470   0.00000  Uiso   1.00
C993   C     0.87785   0.84934   0.92276   0.00000  Uiso   1.00
Cl994  Cl    0.72182   0.87366   0.92121   0.00000  Uiso   1.00
Cl995  Cl    0.69660   0.86989   0.69041   0.00000  Uiso   1.00
H996   H     0.92857   0.80345   0.57478   0.00000  Uiso   1.00
H997   H     0.78431   0.78358   0.59737   0.00000  Uiso   1.00
H998   H     0.98531   0.80883   0.79159   0.00000  Uiso   1.00
H999   H     0.87317   0.67031   0.71189   0.00000  Uiso   1.00
H1000  H     0.76975   0.86025   0.55118   0.00000  Uiso   1.00
H1001  H     0.72037   0.87540   0.51192   0.00000  Uiso   1.00
H1002  H     0.89056   0.85970   0.88924   0.00000  Uiso   1.00
H1003  H     0.76605   0.68409   0.81352   0.00000  Uiso   1.00
H1004  H     0.95577   0.85326   0.89321   0.00000  Uiso   1.00
H1005  H     0.96091   0.78943   0.96178   0.00000  Uiso   1.00
O1006  O     0.83333   0.83333   0.75000   0.00000  Uiso   1.00
O1007  O     0.82118   0.79304   0.65458   0.00000  Uiso   1.00
O1008  O     0.79607   0.87058   0.84968   0.00000  Uiso   1.00
O1009  O     0.87491   0.84425   0.64606   0.00000  Uiso   1.00
O1010  O     0.84118   0.82546   0.84968   0.00000  Uiso   1.00
O1011  O     0.78303   0.99492   0.79718   0.00000  Uiso   1.00
O1012  O     0.95065   0.84411   0.92388   0.00000  Uiso   1.00
O1013  O     0.96153   0.80670   0.99006   0.00000  Uiso   1.00
O1014  O     0.78875   0.80417   0.57495   0.00000  Uiso   1.00
O1015  O     0.84597   0.74686   0.78213   0.00000  Uiso   1.00
O1016  O     0.81298   0.92751   0.77013   0.00000  Uiso   1.00
O1017  O     0.74078   0.79958   0.73413   0.00000  Uiso   1.00
O1018  O     0.93360   0.85939   0.71360   0.00000  Uiso   1.00
O1019  O     0.73738   0.85544   0.78213   0.00000  Uiso   1.00
O1020  O     0.92158   0.81892   0.77013   0.00000  Uiso   1.00
O1021  O     0.80426   0.73610   0.73413   0.00000  Uiso   1.00
O1022  O     0.87012   0.92286   0.71360   0.00000  Uiso   1.00
Zn1023 Zn    0.86005   0.80661   0.78734   0.00000  Uiso   1.00
Zn1024 Zn    0.80046   0.79124   0.71875   0.00000  Uiso   1.00
Zn1025 Zn    0.87723   0.86442   0.70657   0.00000  Uiso   1.00
Zn1026 Zn    0.79560   0.87106   0.78733   0.00000  Uiso   1.00
loop_
_geom_bond_atom_site_label_1
_geom_bond_atom_site_label_2
_geom_bond_distance
_geom_bond_site_symmetry_2
_ccdc_geom_bond_type
C1     O48     1.272   .     A
C1     C7      1.438   .     S
C1     O50     1.270   .     A
C2     C16     1.405   .     A
C2     C21     1.422   .     A
C2     O45     1.381   .     S
C3     H27     1.085   .     S
C3     C15     1.387   .     A
C3     C16     1.394   .     A
C4     O49     1.280   .     A
C4     O51     1.280   .     A
C4     C6      1.458   .     S
C5     C14     1.483   .     S
C5     C20     1.422   .     A
C5     C17     1.418   .     A
C6     C64     1.339   .     S
C6     Cl83    1.770   .     S
C7     C120    1.339   1_455 S
C7     H143    1.086   1_455 S
C8     C11     1.453   .     S
C8     C180    1.342   .     S
C8     H201    1.088   .     S
C9     C10     1.438   .     S
C9     C350    1.342   1_545 S
C9     O384    1.384   1_545 S
C10    O46     1.278   .     A
C10    O52     1.277   .     A
C11    O47     1.261   .     A
C11    O53     1.270   .     A
C12    C17     1.389   .     A
C12    C531    1.387   .     S
C12    H545    1.083   .     S
C13    O38     1.282   .     A
C13    C16     1.464   .     S
C13    O40     1.273   .     A
C14    O41     1.289   .     A
C14    O39     1.282   .     A
C15    C535    1.421   1_554 S
C15    O557    1.376   1_554 S
C17    Cl25    1.764   .     S
C18    H31     1.078   .     S
C18    C525    1.387   1_554 S
C18    C532    1.413   1_554 S
C19    C20     1.415   .     A
C19    C531    1.413   .     S
C19    C534    1.426   .     S
C20    C24     1.404   .     A
C21    C532    1.426   1_554 S
C21    C535    1.432   1_554 S
C22    C23     1.413   .     A
C22    C528    1.421   .     S
C22    C534    1.432   .     S
C23    C24     1.398   .     A
C23    O43     1.383   .     S
C24    H33     1.081   .     S
Cl26   C120    1.770   1_455 S
H28    O45     0.989   .     S
H29    C64     1.086   .     S
H30    C350    1.088   1_545 S
H32    C525    1.083   1_554 S
H34    O384    0.992   1_545 S
H35    O43     0.992   .     S
H36    O44     0.991   .     S
O37    Zn54    1.964   .     S
O37    Zn56    1.927   .     S
O37    Zn57    1.927   .     S
O37    Zn55    1.951   .     S
O38    Zn55    1.923   .     S
O39    Zn57    1.939   .     S
O40    Zn56    1.935   .     S
O41    Zn54    1.920   .     S
O42    H205    0.992   .     S
O42    C180    1.384   .     S
O44    C528    1.376   .     S
O46    Zn54    1.936   .     S
O47    Zn57    1.936   .     S
O48    Zn55    1.922   .     S
O49    Zn56    1.938   .     S
O50    Zn57    1.934   .     S
O51    Zn54    1.919   .     S
O52    Zn55    1.942   .     S
O53    Zn56    1.936   .     S
C58    O105    1.272   .     A
C58    C64     1.438   .     S
C58    O107    1.270   .     A
C59    C73     1.405   .     A
C59    C78     1.422   .     A
C59    O102    1.381   .     S
C60    H84     1.085   .     S
C60    C72     1.387   .     A
C60    C73     1.394   .     A
C61    O106    1.280   .     A
C61    O108    1.280   .     A
C61    C63     1.458   .     S
C62    C71     1.483   .     S
C62    C77     1.422   .     A
C62    C74     1.418   .     A
C63    C121    1.339   .     S
C63    Cl140   1.770   .     S
C65    C68     1.453   .     S
C65    C237    1.342   .     S
C65    H258    1.088   .     S
C66    C67     1.438   .     S
C66    C407    1.342   1_545 S
C66    O441    1.384   1_545 S
C67    O103    1.278   .     A
C67    O109    1.277   .     A
C68    O104    1.261   .     A
C68    O110    1.270   .     A
C69    C74     1.389   .     A
C69    C588    1.387   .     S
C69    H602    1.083   .     S
C70    O95     1.282   .     A
C70    C73     1.464   .     S
C70    O97     1.273   .     A
C71    O98     1.289   .     A
C71    O96     1.282   .     A
C72    C592    1.421   1_554 S
C72    O614    1.376   1_554 S
C74    Cl82    1.764   .     S
C75    H88     1.078   .     S
C75    C582    1.387   1_554 S
C75    C589    1.413   1_554 S
C76    C77     1.415   .     A
C76    C588    1.413   .     S
C76    C591    1.426   .     S
C77    C81     1.404   .     A
C78    C589    1.426   1_554 S
C78    C592    1.432   1_554 S
C79    C80     1.413   .     A
C79    C585    1.421   .     S
C79    C591    1.432   .     S
C80    C81     1.398   .     A
C80    O100    1.383   .     S
C81    H90     1.081   .     S
H85    O102    0.989   .     S
H86    C121    1.086   .     S
H87    C407    1.088   1_545 S
H89    C582    1.083   1_554 S
H91    O441    0.992   1_545 S
H92    O100    0.992   .     S
H93    O101    0.991   .     S
O94    Zn111   1.964   .     S
O94    Zn113   1.927   .     S
O94    Zn114   1.927   .     S
O94    Zn112   1.951   .     S
O95    Zn112   1.923   .     S
O96    Zn114   1.939   .     S
O97    Zn113   1.935   .     S
O98    Zn111   1.920   .     S
O99    H262    0.992   .     S
O99    C237    1.384   .     S
O101   C585    1.376   .     S
O103   Zn111   1.936   .     S
O104   Zn114   1.936   .     S
O105   Zn112   1.922   .     S
O106   Zn113   1.938   .     S
O107   Zn114   1.934   .     S
O108   Zn111   1.919   .     S
O109   Zn112   1.942   .     S
O110   Zn113   1.936   .     S
C115   O162    1.272   .     A
C115   C121    1.438   .     S
C115   O164    1.270   .     A
C116   C130    1.405   .     A
C116   C135    1.422   .     A
C116   O159    1.381   .     S
C117   H141    1.085   .     S
C117   C129    1.387   .     A
C117   C130    1.394   .     A
C118   O163    1.280   .     A
C118   O165    1.280   .     A
C118   C120    1.458   .     S
C119   C128    1.483   .     S
C119   C134    1.422   .     A
C119   C131    1.418   .     A
C120   C7      1.339   1_655 S
C120   Cl26    1.770   1_655 S
C122   C125    1.453   .     S
C122   C294    1.342   .     S
C122   H315    1.088   .     S
C123   C124    1.438   .     S
C123   C464    1.342   1_545 S
C123   O498    1.384   1_545 S
C124   O160    1.278   .     A
C124   O166    1.277   .     A
C125   O161    1.261   .     A
C125   O167    1.270   .     A
C126   C131    1.389   .     A
C126   C645    1.387   .     S
C126   H659    1.083   .     S
C127   O152    1.282   .     A
C127   C130    1.464   .     S
C127   O154    1.273   .     A
C128   O155    1.289   .     A
C128   O153    1.282   .     A
C129   C649    1.421   1_554 S
C129   O671    1.376   1_554 S
C131   Cl139   1.764   .     S
C132   H145    1.078   .     S
C132   C639    1.387   1_554 S
C132   C646    1.413   1_554 S
C133   C134    1.415   .     A
C133   C645    1.413   .     S
C133   C648    1.426   .     S
C134   C138    1.404   .     A
C135   C646    1.426   1_554 S
C135   C649    1.432   1_554 S
C136   C137    1.413   .     A
C136   C642    1.421   .     S
C136   C648    1.432   .     S
C137   C138    1.398   .     A
C137   O157    1.383   .     S
C138   H147    1.081   .     S
H142   O159    0.989   .     S
H143   C7      1.086   1_655 S
H144   C464    1.088   1_545 S
H146   C639    1.083   1_554 S
H148   O498    0.992   1_545 S
H149   O157    0.992   .     S
H150   O158    0.991   .     S
O151   Zn168   1.964   .     S
O151   Zn170   1.927   .     S
O151   Zn171   1.927   .     S
O151   Zn169   1.951   .     S
O152   Zn169   1.923   .     S
O153   Zn171   1.939   .     S
O154   Zn170   1.935   .     S
O155   Zn168   1.920   .     S
O156   H319    0.992   .     S
O156   C294    1.384   .     S
O158   C642    1.376   .     S
O160   Zn168   1.936   .     S
O161   Zn171   1.936   .     S
O162   Zn169   1.922   .     S
O163   Zn170   1.938   .     S
O164   Zn171   1.934   .     S
O165   Zn168   1.919   .     S
O166   Zn169   1.942   .     S
O167   Zn170   1.936   .     S
C172   O219    1.272   .     A
C172   C178    1.438   .     S
C172   O221    1.270   .     A
C173   C187    1.405   .     A
C173   C192    1.422   .     A
C173   O216    1.381   .     S
C174   H198    1.085   .     S
C174   C186    1.387   .     A
C174   C187    1.394   .     A
C175   O220    1.280   .     A
C175   O222    1.280   .     A
C175   C177    1.458   .     S
C176   C185    1.483   .     S
C176   C191    1.422   .     A
C176   C188    1.418   .     A
C177   C235    1.339   .     S
C177   Cl254   1.770   .     S
C178   C291    1.339   1_455 S
C178   H314    1.086   1_455 S
C179   C182    1.453   .     S
C179   C351    1.342   .     S
C179   H372    1.088   .     S
C180   C181    1.438   .     S
C181   O217    1.278   .     A
C181   O223    1.277   .     A
C182   O218    1.261   .     A
C182   O224    1.270   .     A
C183   C188    1.389   .     A
C183   C702    1.387   .     S
C183   H716    1.083   .     S
C184   O209    1.282   .     A
C184   C187    1.464   .     S
C184   O211    1.273   .     A
C185   O212    1.289   .     A
C185   O210    1.282   .     A
C186   C706    1.421   1_554 S
C186   O728    1.376   1_554 S
C188   Cl196   1.764   .     S
C189   H202    1.078   .     S
C189   C696    1.387   1_554 S
C189   C703    1.413   1_554 S
C190   C191    1.415   .     A
C190   C702    1.413   .     S
C190   C705    1.426   .     S
C191   C195    1.404   .     A
C192   C703    1.426   1_554 S
C192   C706    1.432   1_554 S
C193   C194    1.413   .     A
C193   C699    1.421   .     S
C193   C705    1.432   .     S
C194   C195    1.398   .     A
C194   O214    1.383   .     S
C195   H204    1.081   .     S
Cl197  C291    1.770   1_455 S
H199   O216    0.989   .     S
H200   C235    1.086   .     S
H203   C696    1.083   1_554 S
H206   O214    0.992   .     S
H207   O215    0.991   .     S
O208   Zn225   1.964   .     S
O208   Zn227   1.927   .     S
O208   Zn228   1.927   .     S
O208   Zn226   1.951   .     S
O209   Zn226   1.923   .     S
O210   Zn228   1.939   .     S
O211   Zn227   1.935   .     S
O212   Zn225   1.920   .     S
O213   H376    0.992   .     S
O213   C351    1.384   .     S
O215   C699    1.376   .     S
O217   Zn225   1.936   .     S
O218   Zn228   1.936   .     S
O219   Zn226   1.922   .     S
O220   Zn227   1.938   .     S
O221   Zn228   1.934   .     S
O222   Zn225   1.919   .     S
O223   Zn226   1.942   .     S
O224   Zn227   1.936   .     S
C229   O276    1.272   .     A
C229   C235    1.438   .     S
C229   O278    1.270   .     A
C230   C244    1.405   .     A
C230   C249    1.422   .     A
C230   O273    1.381   .     S
C231   H255    1.085   .     S
C231   C243    1.387   .     A
C231   C244    1.394   .     A
C232   O277    1.280   .     A
C232   O279    1.280   .     A
C232   C234    1.458   .     S
C233   C242    1.483   .     S
C233   C248    1.422   .     A
C233   C245    1.418   .     A
C234   C292    1.339   .     S
C234   Cl311   1.770   .     S
C236   C239    1.453   .     S
C236   C408    1.342   .     S
C236   H429    1.088   .     S
C237   C238    1.438   .     S
C238   O274    1.278   .     A
C238   O280    1.277   .     A
C239   O275    1.261   .     A
C239   O281    1.270   .     A
C240   C245    1.389   .     A
C240   C759    1.387   .     S
C240   H773    1.083   .     S
C241   O266    1.282   .     A
C241   C244    1.464   .     S
C241   O268    1.273   .     A
C242   O269    1.289   .     A
C242   O267    1.282   .     A
C243   C763    1.421   1_554 S
C243   O785    1.376   1_554 S
C245   Cl253   1.764   .     S
C246   H259    1.078   .     S
C246   C753    1.387   1_554 S
C246   C760    1.413   1_554 S
C247   C248    1.415   .     A
C247   C759    1.413   .     S
C247   C762    1.426   .     S
C248   C252    1.404   .     A
C249   C760    1.426   1_554 S
C249   C763    1.432   1_554 S
C250   C251    1.413   .     A
C250   C756    1.421   .     S
C250   C762    1.432   .     S
C251   C252    1.398   .     A
C251   O271    1.383   .     S
C252   H261    1.081   .     S
H256   O273    0.989   .     S
H257   C292    1.086   .     S
H260   C753    1.083   1_554 S
H263   O271    0.992   .     S
H264   O272    0.991   .     S
O265   Zn282   1.964   .     S
O265   Zn284   1.927   .     S
O265   Zn285   1.927   .     S
O265   Zn283   1.951   .     S
O266   Zn283   1.923   .     S
O267   Zn285   1.939   .     S
O268   Zn284   1.935   .     S
O269   Zn282   1.920   .     S
O270   H433    0.992   .     S
O270   C408    1.384   .     S
O272   C756    1.376   .     S
O274   Zn282   1.936   .     S
O275   Zn285   1.936   .     S
O276   Zn283   1.922   .     S
O277   Zn284   1.938   .     S
O278   Zn285   1.934   .     S
O279   Zn282   1.919   .     S
O280   Zn283   1.942   .     S
O281   Zn284   1.936   .     S
C286   O333    1.272   .     A
C286   C292    1.438   .     S
C286   O335    1.270   .     A
C287   C301    1.405   .     A
C287   C306    1.422   .     A
C287   O330    1.381   .     S
C288   H312    1.085   .     S
C288   C300    1.387   .     A
C288   C301    1.394   .     A
C289   O334    1.280   .     A
C289   O336    1.280   .     A
C289   C291    1.458   .     S
C290   C299    1.483   .     S
C290   C305    1.422   .     A
C290   C302    1.418   .     A
C291   C178    1.339   1_655 S
C291   Cl197   1.770   1_655 S
C293   C296    1.453   .     S
C293   C465    1.342   .     S
C293   H486    1.088   .     S
C294   C295    1.438   .     S
C295   O331    1.278   .     A
C295   O337    1.277   .     A
C296   O332    1.261   .     A
C296   O338    1.270   .     A
C297   C302    1.389   .     A
C297   C816    1.387   .     S
C297   H830    1.083   .     S
C298   O323    1.282   .     A
C298   C301    1.464   .     S
C298   O325    1.273   .     A
C299   O326    1.289   .     A
C299   O324    1.282   .     A
C300   C820    1.421   1_554 S
C300   O842    1.376   1_554 S
C302   Cl310   1.764   .     S
C303   H316    1.078   .     S
C303   C810    1.387   1_554 S
C303   C817    1.413   1_554 S
C304   C305    1.415   .     A
C304   C816    1.413   .     S
C304   C819    1.426   .     S
C305   C309    1.404   .     A
C306   C817    1.426   1_554 S
C306   C820    1.432   1_554 S
C307   C308    1.413   .     A
C307   C813    1.421   .     S
C307   C819    1.432   .     S
C308   C309    1.398   .     A
C308   O328    1.383   .     S
C309   H318    1.081   .     S
H313   O330    0.989   .     S
H314   C178    1.086   1_655 S
H317   C810    1.083   1_554 S
H320   O328    0.992   .     S
H321   O329    0.991   .     S
O322   Zn339   1.964   .     S
O322   Zn341   1.927   .     S
O322   Zn342   1.927   .     S
O322   Zn340   1.951   .     S
O323   Zn340   1.923   .     S
O324   Zn342   1.939   .     S
O325   Zn341   1.935   .     S
O326   Zn339   1.920   .     S
O327   H490    0.992   .     S
O327   C465    1.384   .     S
O329   C813    1.376   .     S
O331   Zn339   1.936   .     S
O332   Zn342   1.936   .     S
O333   Zn340   1.922   .     S
O334   Zn341   1.938   .     S
O335   Zn342   1.934   .     S
O336   Zn339   1.919   .     S
O337   Zn340   1.942   .     S
O338   Zn341   1.936   .     S
C343   O390    1.272   .     A
C343   C349    1.438   .     S
C343   O392    1.270   .     A
C344   C358    1.405   .     A
C344   C363    1.422   .     A
C344   O387    1.381   .     S
C345   H369    1.085   .     S
C345   C357    1.387   .     A
C345   C358    1.394   .     A
C346   O391    1.280   .     A
C346   O393    1.280   .     A
C346   C348    1.458   .     S
C347   C356    1.483   .     S
C347   C362    1.422   .     A
C347   C359    1.418   .     A
C348   C406    1.339   .     S
C348   Cl425   1.770   .     S
C349   C462    1.339   1_455 S
C349   H485    1.086   1_455 S
C350   C353    1.453   .     S
C350   C9      1.342   1_565 S
C350   H30     1.088   1_565 S
C351   C352    1.438   .     S
C352   O388    1.278   .     A
C352   O394    1.277   .     A
C353   O389    1.261   .     A
C353   O395    1.270   .     A
C354   C359    1.389   .     A
C354   C873    1.387   .     S
C354   H887    1.083   .     S
C355   O380    1.282   .     A
C355   C358    1.464   .     S
C355   O382    1.273   .     A
C356   O383    1.289   .     A
C356   O381    1.282   .     A
C357   C877    1.421   1_554 S
C357   O899    1.376   1_554 S
C359   Cl367   1.764   .     S
C360   H373    1.078   .     S
C360   C867    1.387   1_554 S
C360   C874    1.413   1_554 S
C361   C362    1.415   .     A
C361   C873    1.413   .     S
C361   C876    1.426   .     S
C362   C366    1.404   .     A
C363   C874    1.426   1_554 S
C363   C877    1.432   1_554 S
C364   C365    1.413   .     A
C364   C870    1.421   .     S
C364   C876    1.432   .     S
C365   C366    1.398   .     A
C365   O385    1.383   .     S
C366   H375    1.081   .     S
Cl368  C462    1.770   1_455 S
H370   O387    0.989   .     S
H371   C406    1.086   .     S
H374   C867    1.083   1_554 S
H377   O385    0.992   .     S
H378   O386    0.991   .     S
O379   Zn396   1.964   .     S
O379   Zn398   1.927   .     S
O379   Zn399   1.927   .     S
O379   Zn397   1.951   .     S
O380   Zn397   1.923   .     S
O381   Zn399   1.939   .     S
O382   Zn398   1.935   .     S
O383   Zn396   1.920   .     S
O384   H34     0.992   1_565 S
O384   C9      1.384   1_565 S
O386   C870    1.376   .     S
O388   Zn396   1.936   .     S
O389   Zn399   1.936   .     S
O390   Zn397   1.922   .     S
O391   Zn398   1.938   .     S
O392   Zn399   1.934   .     S
O393   Zn396   1.919   .     S
O394   Zn397   1.942   .     S
O395   Zn398   1.936   .     S
C400   O447    1.272   .     A
C400   C406    1.438   .     S
C400   O449    1.270   .     A
C401   C415    1.405   .     A
C401   C420    1.422   .     A
C401   O444    1.381   .     S
C402   H426    1.085   .     S
C402   C414    1.387   .     A
C402   C415    1.394   .     A
C403   O448    1.280   .     A
C403   O450    1.280   .     A
C403   C405    1.458   .     S
C404   C413    1.483   .     S
C404   C419    1.422   .     A
C404   C416    1.418   .     A
C405   C463    1.339   .     S
C405   Cl482   1.770   .     S
C407   C410    1.453   .     S
C407   C66     1.342   1_565 S
C407   H87     1.088   1_565 S
C408   C409    1.438   .     S
C409   O445    1.278   .     A
C409   O451    1.277   .     A
C410   O446    1.261   .     A
C410   O452    1.270   .     A
C411   C416    1.389   .     A
C411   C930    1.387   .     S
C411   H944    1.083   .     S
C412   O437    1.282   .     A
C412   C415    1.464   .     S
C412   O439    1.273   .     A
C413   O440    1.289   .     A
C413   O438    1.282   .     A
C414   C934    1.421   1_554 S
C414   O956    1.376   1_554 S
C416   Cl424   1.764   .     S
C417   H430    1.078   .     S
C417   C924    1.387   1_554 S
C417   C931    1.413   1_554 S
C418   C419    1.415   .     A
C418   C930    1.413   .     S
C418   C933    1.426   .     S
C419   C423    1.404   .     A
C420   C931    1.426   1_554 S
C420   C934    1.432   1_554 S
C421   C422    1.413   .     A
C421   C927    1.421   .     S
C421   C933    1.432   .     S
C422   C423    1.398   .     A
C422   O442    1.383   .     S
C423   H432    1.081   .     S
H427   O444    0.989   .     S
H428   C463    1.086   .     S
H431   C924    1.083   1_554 S
H434   O442    0.992   .     S
H435   O443    0.991   .     S
O436   Zn453   1.964   .     S
O436   Zn455   1.927   .     S
O436   Zn456   1.927   .     S
O436   Zn454   1.951   .     S
O437   Zn454   1.923   .     S
O438   Zn456   1.939   .     S
O439   Zn455   1.935   .     S
O440   Zn453   1.920   .     S
O441   H91     0.992   1_565 S
O441   C66     1.384   1_565 S
O443   C927    1.376   .     S
O445   Zn453   1.936   .     S
O446   Zn456   1.936   .     S
O447   Zn454   1.922   .     S
O448   Zn455   1.938   .     S
O449   Zn456   1.934   .     S
O450   Zn453   1.919   .     S
O451   Zn454   1.942   .     S
O452   Zn455   1.936   .     S
C457   O504    1.272   .     A
C457   C463    1.438   .     S
C457   O506    1.270   .     A
C458   C472    1.405   .     A
C458   C477    1.422   .     A
C458   O501    1.381   .     S
C459   H483    1.085   .     S
C459   C471    1.387   .     A
C459   C472    1.394   .     A
C460   O505    1.280   .     A
C460   O507    1.280   .     A
C460   C462    1.458   .     S
C461   C470    1.483   .     S
C461   C476    1.422   .     A
C461   C473    1.418   .     A
C462   C349    1.339   1_655 S
C462   Cl368   1.770   1_655 S
C464   C467    1.453   .     S
C464   C123    1.342   1_565 S
C464   H144    1.088   1_565 S
C465   C466    1.438   .     S
C466   O502    1.278   .     A
C466   O508    1.277   .     A
C467   O503    1.261   .     A
C467   O509    1.270   .     A
C468   C473    1.389   .     A
C468   C987    1.387   .     S
C468   H1001   1.083   .     S
C469   O494    1.282   .     A
C469   C472    1.464   .     S
C469   O496    1.273   .     A
C470   O497    1.289   .     A
C470   O495    1.282   .     A
C471   C991    1.421   1_554 S
C471   O1013   1.376   1_554 S
C473   Cl481   1.764   .     S
C474   H487    1.078   .     S
C474   C981    1.387   1_554 S
C474   C988    1.413   1_554 S
C475   C476    1.415   .     A
C475   C987    1.413   .     S
C475   C990    1.426   .     S
C476   C480    1.404   .     A
C477   C988    1.426   1_554 S
C477   C991    1.432   1_554 S
C478   C479    1.413   .     A
C478   C984    1.421   .     S
C478   C990    1.432   .     S
C479   C480    1.398   .     A
C479   O499    1.383   .     S
C480   H489    1.081   .     S
H484   O501    0.989   .     S
H485   C349    1.086   1_655 S
H488   C981    1.083   1_554 S
H491   O499    0.992   .     S
H492   O500    0.991   .     S
O493   Zn510   1.964   .     S
O493   Zn512   1.927   .     S
O493   Zn513   1.927   .     S
O493   Zn511   1.951   .     S
O494   Zn511   1.923   .     S
O495   Zn513   1.939   .     S
O496   Zn512   1.935   .     S
O497   Zn510   1.920   .     S
O498   H148    0.992   1_565 S
O498   C123    1.384   1_565 S
O500   C984    1.376   .     S
O502   Zn510   1.936   .     S
O503   Zn513   1.936   .     S
O504   Zn511   1.922   .     S
O505   Zn512   1.938   .     S
O506   Zn513   1.934   .     S
O507   Zn510   1.919   .     S
O508   Zn511   1.942   .     S
O509   Zn512   1.936   .     S
C514   O561    1.272   .     A
C514   C520    1.438   .     S
C514   O563    1.270   .     A
C515   C529    1.405   .     A
C515   C534    1.422   .     A
C515   O558    1.381   .     S
C516   H540    1.085   .     S
C516   C528    1.387   .     A
C516   C529    1.394   .     A
C517   O562    1.280   .     A
C517   O564    1.280   .     A
C517   C519    1.458   .     S
C518   C527    1.483   .     S
C518   C533    1.422   .     A
C518   C530    1.418   .     A
C519   C577    1.339   .     S
C519   Cl596   1.770   .     S
C520   C633    1.339   1_455 S
C520   H656    1.086   1_455 S
C521   C524    1.453   .     S
C521   C693    1.342   .     S
C521   H714    1.088   .     S
C522   C523    1.438   .     S
C522   C863    1.342   1_545 S
C522   O897    1.384   1_545 S
C523   O559    1.278   .     A
C523   O565    1.277   .     A
C524   O560    1.261   .     A
C524   O566    1.270   .     A
C525   C530    1.389   .     A
C525   C18     1.387   1_556 S
C525   H32     1.083   1_556 S
C526   O551    1.282   .     A
C526   C529    1.464   .     S
C526   O553    1.273   .     A
C527   O554    1.289   .     A
C527   O552    1.282   .     A
C530   Cl538   1.764   .     S
C531   H544    1.078   .     S
C532   C533    1.415   .     A
C532   C18     1.413   1_556 S
C532   C21     1.426   1_556 S
C533   C537    1.404   .     A
C535   C536    1.413   .     A
C535   C15     1.421   1_556 S
C535   C21     1.432   1_556 S
C536   C537    1.398   .     A
C536   O556    1.383   .     S
C537   H546    1.081   .     S
Cl539  C633    1.770   1_455 S
H541   O558    0.989   .     S
H542   C577    1.086   .     S
H543   C863    1.088   1_545 S
H547   O897    0.992   1_545 S
H548   O556    0.992   .     S
H549   O557    0.991   .     S
O550   Zn567   1.964   .     S
O550   Zn569   1.927   .     S
O550   Zn570   1.927   .     S
O550   Zn568   1.951   .     S
O551   Zn568   1.923   .     S
O552   Zn570   1.939   .     S
O553   Zn569   1.935   .     S
O554   Zn567   1.920   .     S
O555   H718    0.992   .     S
O555   C693    1.384   .     S
O557   C15     1.376   1_556 S
O559   Zn567   1.936   .     S
O560   Zn570   1.936   .     S
O561   Zn568   1.922   .     S
O562   Zn569   1.938   .     S
O563   Zn570   1.934   .     S
O564   Zn567   1.919   .     S
O565   Zn568   1.942   .     S
O566   Zn569   1.936   .     S
C571   O618    1.272   .     A
C571   C577    1.438   .     S
C571   O620    1.270   .     A
C572   C586    1.405   .     A
C572   C591    1.422   .     A
C572   O615    1.381   .     S
C573   H597    1.085   .     S
C573   C585    1.387   .     A
C573   C586    1.394   .     A
C574   O619    1.280   .     A
C574   O621    1.280   .     A
C574   C576    1.458   .     S
C575   C584    1.483   .     S
C575   C590    1.422   .     A
C575   C587    1.418   .     A
C576   C634    1.339   .     S
C576   Cl653   1.770   .     S
C578   C581    1.453   .     S
C578   C750    1.342   .     S
C578   H771    1.088   .     S
C579   C580    1.438   .     S
C579   C920    1.342   1_545 S
C579   O954    1.384   1_545 S
C580   O616    1.278   .     A
C580   O622    1.277   .     A
C581   O617    1.261   .     A
C581   O623    1.270   .     A
C582   C587    1.389   .     A
C582   C75     1.387   1_556 S
C582   H89     1.083   1_556 S
C583   O608    1.282   .     A
C583   C586    1.464   .     S
C583   O610    1.273   .     A
C584   O611    1.289   .     A
C584   O609    1.282   .     A
C587   Cl595   1.764   .     S
C588   H601    1.078   .     S
C589   C590    1.415   .     A
C589   C75     1.413   1_556 S
C589   C78     1.426   1_556 S
C590   C594    1.404   .     A
C592   C593    1.413   .     A
C592   C72     1.421   1_556 S
C592   C78     1.432   1_556 S
C593   C594    1.398   .     A
C593   O613    1.383   .     S
C594   H603    1.081   .     S
H598   O615    0.989   .     S
H599   C634    1.086   .     S
H600   C920    1.088   1_545 S
H604   O954    0.992   1_545 S
H605   O613    0.992   .     S
H606   O614    0.991   .     S
O607   Zn624   1.964   .     S
O607   Zn626   1.927   .     S
O607   Zn627   1.927   .     S
O607   Zn625   1.951   .     S
O608   Zn625   1.923   .     S
O609   Zn627   1.939   .     S
O610   Zn626   1.935   .     S
O611   Zn624   1.920   .     S
O612   H775    0.992   .     S
O612   C750    1.384   .     S
O614   C72     1.376   1_556 S
O616   Zn624   1.936   .     S
O617   Zn627   1.936   .     S
O618   Zn625   1.922   .     S
O619   Zn626   1.938   .     S
O620   Zn627   1.934   .     S
O621   Zn624   1.919   .     S
O622   Zn625   1.942   .     S
O623   Zn626   1.936   .     S
C628   O675    1.272   .     A
C628   C634    1.438   .     S
C628   O677    1.270   .     A
C629   C643    1.405   .     A
C629   C648    1.422   .     A
C629   O672    1.381   .     S
C630   H654    1.085   .     S
C630   C642    1.387   .     A
C630   C643    1.394   .     A
C631   O676    1.280   .     A
C631   O678    1.280   .     A
C631   C633    1.458   .     S
C632   C641    1.483   .     S
C632   C647    1.422   .     A
C632   C644    1.418   .     A
C633   C520    1.339   1_655 S
C633   Cl539   1.770   1_655 S
C635   C638    1.453   .     S
C635   C807    1.342   .     S
C635   H828    1.088   .     S
C636   C637    1.438   .     S
C636   C977    1.342   1_545 S
C636   O1011   1.384   1_545 S
C637   O673    1.278   .     A
C637   O679    1.277   .     A
C638   O674    1.261   .     A
C638   O680    1.270   .     A
C639   C644    1.389   .     A
C639   C132    1.387   1_556 S
C639   H146    1.083   1_556 S
C640   O665    1.282   .     A
C640   C643    1.464   .     S
C640   O667    1.273   .     A
C641   O668    1.289   .     A
C641   O666    1.282   .     A
C644   Cl652   1.764   .     S
C645   H658    1.078   .     S
C646   C647    1.415   .     A
C646   C132    1.413   1_556 S
C646   C135    1.426   1_556 S
C647   C651    1.404   .     A
C649   C650    1.413   .     A
C649   C129    1.421   1_556 S
C649   C135    1.432   1_556 S
C650   C651    1.398   .     A
C650   O670    1.383   .     S
C651   H660    1.081   .     S
H655   O672    0.989   .     S
H656   C520    1.086   1_655 S
H657   C977    1.088   1_545 S
H661   O1011   0.992   1_545 S
H662   O670    0.992   .     S
H663   O671    0.991   .     S
O664   Zn681   1.964   .     S
O664   Zn683   1.927   .     S
O664   Zn684   1.927   .     S
O664   Zn682   1.951   .     S
O665   Zn682   1.923   .     S
O666   Zn684   1.939   .     S
O667   Zn683   1.935   .     S
O668   Zn681   1.920   .     S
O669   H832    0.992   .     S
O669   C807    1.384   .     S
O671   C129    1.376   1_556 S
O673   Zn681   1.936   .     S
O674   Zn684   1.936   .     S
O675   Zn682   1.922   .     S
O676   Zn683   1.938   .     S
O677   Zn684   1.934   .     S
O678   Zn681   1.919   .     S
O679   Zn682   1.942   .     S
O680   Zn683   1.936   .     S
C685   O732    1.272   .     A
C685   C691    1.438   .     S
C685   O734    1.270   .     A
C686   C700    1.405   .     A
C686   C705    1.422   .     A
C686   O729    1.381   .     S
C687   H711    1.085   .     S
C687   C699    1.387   .     A
C687   C700    1.394   .     A
C688   O733    1.280   .     A
C688   O735    1.280   .     A
C688   C690    1.458   .     S
C689   C698    1.483   .     S
C689   C704    1.422   .     A
C689   C701    1.418   .     A
C690   C748    1.339   .     S
C690   Cl767   1.770   .     S
C691   C804    1.339   1_455 S
C691   H827    1.086   1_455 S
C692   C695    1.453   .     S
C692   C864    1.342   .     S
C692   H885    1.088   .     S
C693   C694    1.438   .     S
C694   O730    1.278   .     A
C694   O736    1.277   .     A
C695   O731    1.261   .     A
C695   O737    1.270   .     A
C696   C701    1.389   .     A
C696   C189    1.387   1_556 S
C696   H203    1.083   1_556 S
C697   O722    1.282   .     A
C697   C700    1.464   .     S
C697   O724    1.273   .     A
C698   O725    1.289   .     A
C698   O723    1.282   .     A
C701   Cl709   1.764   .     S
C702   H715    1.078   .     S
C703   C704    1.415   .     A
C703   C189    1.413   1_556 S
C703   C192    1.426   1_556 S
C704   C708    1.404   .     A
C706   C707    1.413   .     A
C706   C186    1.421   1_556 S
C706   C192    1.432   1_556 S
C707   C708    1.398   .     A
C707   O727    1.383   .     S
C708   H717    1.081   .     S
Cl710  C804    1.770   1_455 S
H712   O729    0.989   .     S
H713   C748    1.086   .     S
H719   O727    0.992   .     S
H720   O728    0.991   .     S
O721   Zn738   1.964   .     S
O721   Zn740   1.927   .     S
O721   Zn741   1.927   .     S
O721   Zn739   1.951   .     S
O722   Zn739   1.923   .     S
O723   Zn741   1.939   .     S
O724   Zn740   1.935   .     S
O725   Zn738   1.920   .     S
O726   H889    0.992   .     S
O726   C864    1.384   .     S
O728   C186    1.376   1_556 S
O730   Zn738   1.936   .     S
O731   Zn741   1.936   .     S
O732   Zn739   1.922   .     S
O733   Zn740   1.938   .     S
O734   Zn741   1.934   .     S
O735   Zn738   1.919   .     S
O736   Zn739   1.942   .     S
O737   Zn740   1.936   .     S
C742   O789    1.272   .     A
C742   C748    1.438   .     S
C742   O791    1.270   .     A
C743   C757    1.405   .     A
C743   C762    1.422   .     A
C743   O786    1.381   .     S
C744   H768    1.085   .     S
C744   C756    1.387   .     A
C744   C757    1.394   .     A
C745   O790    1.280   .     A
C745   O792    1.280   .     A
C745   C747    1.458   .     S
C746   C755    1.483   .     S
C746   C761    1.422   .     A
C746   C758    1.418   .     A
C747   C805    1.339   .     S
C747   Cl824   1.770   .     S
C749   C752    1.453   .     S
C749   C921    1.342   .     S
C749   H942    1.088   .     S
C750   C751    1.438   .     S
C751   O787    1.278   .     A
C751   O793    1.277   .     A
C752   O788    1.261   .     A
C752   O794    1.270   .     A
C753   C758    1.389   .     A
C753   C246    1.387   1_556 S
C753   H260    1.083   1_556 S
C754   O779    1.282   .     A
C754   C757    1.464   .     S
C754   O781    1.273   .     A
C755   O782    1.289   .     A
C755   O780    1.282   .     A
C758   Cl766   1.764   .     S
C759   H772    1.078   .     S
C760   C761    1.415   .     A
C760   C246    1.413   1_556 S
C760   C249    1.426   1_556 S
C761   C765    1.404   .     A
C763   C764    1.413   .     A
C763   C243    1.421   1_556 S
C763   C249    1.432   1_556 S
C764   C765    1.398   .     A
C764   O784    1.383   .     S
C765   H774    1.081   .     S
H769   O786    0.989   .     S
H770   C805    1.086   .     S
H776   O784    0.992   .     S
H777   O785    0.991   .     S
O778   Zn795   1.964   .     S
O778   Zn797   1.927   .     S
O778   Zn798   1.927   .     S
O778   Zn796   1.951   .     S
O779   Zn796   1.923   .     S
O780   Zn798   1.939   .     S
O781   Zn797   1.935   .     S
O782   Zn795   1.920   .     S
O783   H946    0.992   .     S
O783   C921    1.384   .     S
O785   C243    1.376   1_556 S
O787   Zn795   1.936   .     S
O788   Zn798   1.936   .     S
O789   Zn796   1.922   .     S
O790   Zn797   1.938   .     S
O791   Zn798   1.934   .     S
O792   Zn795   1.919   .     S
O793   Zn796   1.942   .     S
O794   Zn797   1.936   .     S
C799   O846    1.272   .     A
C799   C805    1.438   .     S
C799   O848    1.270   .     A
C800   C814    1.405   .     A
C800   C819    1.422   .     A
C800   O843    1.381   .     S
C801   H825    1.085   .     S
C801   C813    1.387   .     A
C801   C814    1.394   .     A
C802   O847    1.280   .     A
C802   O849    1.280   .     A
C802   C804    1.458   .     S
C803   C812    1.483   .     S
C803   C818    1.422   .     A
C803   C815    1.418   .     A
C804   C691    1.339   1_655 S
C804   Cl710   1.770   1_655 S
C806   C809    1.453   .     S
C806   C978    1.342   .     S
C806   H999    1.088   .     S
C807   C808    1.438   .     S
C808   O844    1.278   .     A
C808   O850    1.277   .     A
C809   O845    1.261   .     A
C809   O851    1.270   .     A
C810   C815    1.389   .     A
C810   C303    1.387   1_556 S
C810   H317    1.083   1_556 S
C811   O836    1.282   .     A
C811   C814    1.464   .     S
C811   O838    1.273   .     A
C812   O839    1.289   .     A
C812   O837    1.282   .     A
C815   Cl823   1.764   .     S
C816   H829    1.078   .     S
C817   C818    1.415   .     A
C817   C303    1.413   1_556 S
C817   C306    1.426   1_556 S
C818   C822    1.404   .     A
C820   C821    1.413   .     A
C820   C300    1.421   1_556 S
C820   C306    1.432   1_556 S
C821   C822    1.398   .     A
C821   O841    1.383   .     S
C822   H831    1.081   .     S
H826   O843    0.989   .     S
H827   C691    1.086   1_655 S
H833   O841    0.992   .     S
H834   O842    0.991   .     S
O835   Zn852   1.964   .     S
O835   Zn854   1.927   .     S
O835   Zn855   1.927   .     S
O835   Zn853   1.951   .     S
O836   Zn853   1.923   .     S
O837   Zn855   1.939   .     S
O838   Zn854   1.935   .     S
O839   Zn852   1.920   .     S
O840   H1003   0.992   .     S
O840   C978    1.384   .     S
O842   C300    1.376   1_556 S
O844   Zn852   1.936   .     S
O845   Zn855   1.936   .     S
O846   Zn853   1.922   .     S
O847   Zn854   1.938   .     S
O848   Zn855   1.934   .     S
O849   Zn852   1.919   .     S
O850   Zn853   1.942   .     S
O851   Zn854   1.936   .     S
C856   O903    1.272   .     A
C856   C862    1.438   .     S
C856   O905    1.270   .     A
C857   C871    1.405   .     A
C857   C876    1.422   .     A
C857   O900    1.381   .     S
C858   H882    1.085   .     S
C858   C870    1.387   .     A
C858   C871    1.394   .     A
C859   O904    1.280   .     A
C859   O906    1.280   .     A
C859   C861    1.458   .     S
C860   C869    1.483   .     S
C860   C875    1.422   .     A
C860   C872    1.418   .     A
C861   C919    1.339   .     S
C861   Cl938   1.770   .     S
C862   C975    1.339   1_455 S
C862   H998    1.086   1_455 S
C863   C866    1.453   .     S
C863   C522    1.342   1_565 S
C863   H543    1.088   1_565 S
C864   C865    1.438   .     S
C865   O901    1.278   .     A
C865   O907    1.277   .     A
C866   O902    1.261   .     A
C866   O908    1.270   .     A
C867   C872    1.389   .     A
C867   C360    1.387   1_556 S
C867   H374    1.083   1_556 S
C868   O893    1.282   .     A
C868   C871    1.464   .     S
C868   O895    1.273   .     A
C869   O896    1.289   .     A
C869   O894    1.282   .     A
C872   Cl880   1.764   .     S
C873   H886    1.078   .     S
C874   C875    1.415   .     A
C874   C360    1.413   1_556 S
C874   C363    1.426   1_556 S
C875   C879    1.404   .     A
C877   C878    1.413   .     A
C877   C357    1.421   1_556 S
C877   C363    1.432   1_556 S
C878   C879    1.398   .     A
C878   O898    1.383   .     S
C879   H888    1.081   .     S
Cl881  C975    1.770   1_455 S
H883   O900    0.989   .     S
H884   C919    1.086   .     S
H890   O898    0.992   .     S
H891   O899    0.991   .     S
O892   Zn909   1.964   .     S
O892   Zn911   1.927   .     S
O892   Zn912   1.927   .     S
O892   Zn910   1.951   .     S
O893   Zn910   1.923   .     S
O894   Zn912   1.939   .     S
O895   Zn911   1.935   .     S
O896   Zn909   1.920   .     S
O897   H547    0.992   1_565 S
O897   C522    1.384   1_565 S
O899   C357    1.376   1_556 S
O901   Zn909   1.936   .     S
O902   Zn912   1.936   .     S
O903   Zn910   1.922   .     S
O904   Zn911   1.938   .     S
O905   Zn912   1.934   .     S
O906   Zn909   1.919   .     S
O907   Zn910   1.942   .     S
O908   Zn911   1.936   .     S
C913   O960    1.272   .     A
C913   C919    1.438   .     S
C913   O962    1.270   .     A
C914   C928    1.405   .     A
C914   C933    1.422   .     A
C914   O957    1.381   .     S
C915   H939    1.085   .     S
C915   C927    1.387   .     A
C915   C928    1.394   .     A
C916   O961    1.280   .     A
C916   O963    1.280   .     A
C916   C918    1.458   .     S
C917   C926    1.483   .     S
C917   C932    1.422   .     A
C917   C929    1.418   .     A
C918   C976    1.339   .     S
C918   Cl995   1.770   .     S
C920   C923    1.453   .     S
C920   C579    1.342   1_565 S
C920   H600    1.088   1_565 S
C921   C922    1.438   .     S
C922   O958    1.278   .     A
C922   O964    1.277   .     A
C923   O959    1.261   .     A
C923   O965    1.270   .     A
C924   C929    1.389   .     A
C924   C417    1.387   1_556 S
C924   H431    1.083   1_556 S
C925   O950    1.282   .     A
C925   C928    1.464   .     S
C925   O952    1.273   .     A
C926   O953    1.289   .     A
C926   O951    1.282   .     A
C929   Cl937   1.764   .     S
C930   H943    1.078   .     S
C931   C932    1.415   .     A
C931   C417    1.413   1_556 S
C931   C420    1.426   1_556 S
C932   C936    1.404   .     A
C934   C935    1.413   .     A
C934   C414    1.421   1_556 S
C934   C420    1.432   1_556 S
C935   C936    1.398   .     A
C935   O955    1.383   .     S
C936   H945    1.081   .     S
H940   O957    0.989   .     S
H941   C976    1.086   .     S
H947   O955    0.992   .     S
H948   O956    0.991   .     S
O949   Zn966   1.964   .     S
O949   Zn968   1.927   .     S
O949   Zn969   1.927   .     S
O949   Zn967   1.951   .     S
O950   Zn967   1.923   .     S
O951   Zn969   1.939   .     S
O952   Zn968   1.935   .     S
O953   Zn966   1.920   .     S
O954   H604    0.992   1_565 S
O954   C579    1.384   1_565 S
O956   C414    1.376   1_556 S
O958   Zn966   1.936   .     S
O959   Zn969   1.936   .     S
O960   Zn967   1.922   .     S
O961   Zn968   1.938   .     S
O962   Zn969   1.934   .     S
O963   Zn966   1.919   .     S
O964   Zn967   1.942   .     S
O965   Zn968   1.936   .     S
C970   O1017   1.272   .     A
C970   C976    1.438   .     S
C970   O1019   1.270   .     A
C971   C985    1.405   .     A
C971   C990    1.422   .     A
C971   O1014   1.381   .     S
C972   H996    1.085   .     S
C972   C984    1.387   .     A
C972   C985    1.394   .     A
C973   O1018   1.280   .     A
C973   O1020   1.280   .     A
C973   C975    1.458   .     S
C974   C983    1.483   .     S
C974   C989    1.422   .     A
C974   C986    1.418   .     A
C975   C862    1.339   1_655 S
C975   Cl881   1.770   1_655 S
C977   C980    1.453   .     S
C977   C636    1.342   1_565 S
C977   H657    1.088   1_565 S
C978   C979    1.438   .     S
C979   O1015   1.278   .     A
C979   O1021   1.277   .     A
C980   O1016   1.261   .     A
C980   O1022   1.270   .     A
C981   C986    1.389   .     A
C981   C474    1.387   1_556 S
C981   H488    1.083   1_556 S
C982   O1007   1.282   .     A
C982   C985    1.464   .     S
C982   O1009   1.273   .     A
C983   O1010   1.289   .     A
C983   O1008   1.282   .     A
C986   Cl994   1.764   .     S
C987   H1000   1.078   .     S
C988   C989    1.415   .     A
C988   C474    1.413   1_556 S
C988   C477    1.426   1_556 S
C989   C993    1.404   .     A
C991   C992    1.413   .     A
C991   C471    1.421   1_556 S
C991   C477    1.432   1_556 S
C992   C993    1.398   .     A
C992   O1012   1.383   .     S
C993   H1002   1.081   .     S
H997   O1014   0.989   .     S
H998   C862    1.086   1_655 S
H1004  O1012   0.992   .     S
H1005  O1013   0.991   .     S
O1006  Zn1023  1.964   .     S
O1006  Zn1025  1.927   .     S
O1006  Zn1026  1.927   .     S
O1006  Zn1024  1.951   .     S
O1007  Zn1024  1.923   .     S
O1008  Zn1026  1.939   .     S
O1009  Zn1025  1.935   .     S
O1010  Zn1023  1.920   .     S
O1011  H661    0.992   1_565 S
O1011  C636    1.384   1_565 S
O1013  C471    1.376   1_556 S
O1015  Zn1023  1.936   .     S
O1016  Zn1026  1.936   .     S
O1017  Zn1024  1.922   .     S
O1018  Zn1025  1.938   .     S
O1019  Zn1026  1.934   .     S
O1020  Zn1023  1.919   .     S
O1021  Zn1024  1.942   .     S
O1022  Zn1025  1.936   .     S
