data_str_m1_o1_o2_pcu_sym.82
_audit_creation_date              2020-01-03
_audit_creation_method            'Materials Studio'
_symmetry_space_group_name_H-M    'P1'
_symmetry_Int_Tables_number       1
_symmetry_cell_setting            triclinic
loop_
_symmetry_equiv_pos_as_xyz
  x,y,z
_cell_length_a                    36.6439
_cell_length_b                    36.7270
_cell_length_c                    34.5185
_cell_angle_alpha                 89.7311
_cell_angle_beta                  90.0251
_cell_angle_gamma                 89.9636
loop_
_atom_site_label
_atom_site_type_symbol
_atom_site_fract_x
_atom_site_fract_y
_atom_site_fract_z
_atom_site_U_iso_or_equiv
_atom_site_adp_type
_atom_site_occupancy
C1     C     0.23356   0.46974   0.04191   0.00000  Uiso   1.00
C2     C     0.00702   0.28051   0.45832   0.00000  Uiso   1.00
C3     C     0.34857   0.40240   0.74945   0.00000  Uiso   1.00
C4     C     0.40187   0.15184   0.24999   0.00000  Uiso   1.00
C5     C     0.09876   0.34752   0.75007   0.00000  Uiso   1.00
C6     C     0.34845   0.40230   0.24964   0.00000  Uiso   1.00
C7     C     0.15215   0.09829   0.75017   0.00000  Uiso   1.00
C8     C     0.09857   0.15232   0.75008   0.00000  Uiso   1.00
C9     C     0.40185   0.34811   0.24972   0.00000  Uiso   1.00
C10    C     0.15226   0.40158   0.75004   0.00000  Uiso   1.00
C11    C     0.34866   0.09749   0.24969   0.00000  Uiso   1.00
C12    C     0.40187   0.34804   0.74959   0.00000  Uiso   1.00
C13    C     0.28031   0.00952   0.54133   0.00000  Uiso   1.00
C14    C     0.09773   0.15185   0.25048   0.00000  Uiso   1.00
C15    C     0.34849   0.09751   0.74929   0.00000  Uiso   1.00
C16    C     0.15240   0.40126   0.25087   0.00000  Uiso   1.00
C17    C     0.24968   0.49908   0.10249   0.00000  Uiso   1.00
C18    C     0.24973   0.49949   0.89722   0.00000  Uiso   1.00
C19    C     0.00022   0.24989   0.10292   0.00000  Uiso   1.00
C20    C     0.49951   0.25050   0.89774   0.00000  Uiso   1.00
C21    C     0.49964   0.24751   0.60213   0.00000  Uiso   1.00
C22    C     0.00049   0.24899   0.39720   0.00000  Uiso   1.00
C23    C     0.24925   0.00062   0.60270   0.00000  Uiso   1.00
C24    C     0.22154   0.02121   0.45793   0.00000  Uiso   1.00
C25    C     0.24789   0.49934   0.39767   0.00000  Uiso   1.00
C26    C     0.19815   0.35844   0.21926   0.00000  Uiso   1.00
C27    C     0.22247   0.34482   0.25253   0.00000  Uiso   1.00
C28    C     0.32746   0.11453   0.81737   0.00000  Uiso   1.00
C29    C     0.34016   0.08843   0.84935   0.00000  Uiso   1.00
C30    C     0.06803   0.12490   0.31086   0.00000  Uiso   1.00
C31    C     0.03183   0.10705   0.29993   0.00000  Uiso   1.00
C32    C     0.38165   0.32496   0.81611   0.00000  Uiso   1.00
C33    C     0.35513   0.29365   0.80884   0.00000  Uiso   1.00
C34    C     0.32656   0.11543   0.18235   0.00000  Uiso   1.00
C35    C     0.02459   0.22300   0.54220   0.00000  Uiso   1.00
C36    C     0.28829   0.12878   0.19239   0.00000  Uiso   1.00
C37    C     0.18946   0.36788   0.80131   0.00000  Uiso   1.00
C38    C     0.18030   0.38823   0.83861   0.00000  Uiso   1.00
C39    C     0.38151   0.32476   0.18332   0.00000  Uiso   1.00
C40    C     0.34877   0.29909   0.18208   0.00000  Uiso   1.00
C41    C     0.05192   0.10898   0.71999   0.00000  Uiso   1.00
C42    C     0.03182   0.08653   0.75063   0.00000  Uiso   1.00
C43    C     0.11478   0.05952   0.70386   0.00000  Uiso   1.00
C44    C     0.12202   0.07037   0.66178   0.00000  Uiso   1.00
C45    C     0.32942   0.38816   0.18007   0.00000  Uiso   1.00
C46    C     0.49982   0.21504   0.45775   0.00000  Uiso   1.00
C47    C     0.28896   0.37943   0.18574   0.00000  Uiso   1.00
C48    C     0.14189   0.30263   0.78305   0.00000  Uiso   1.00
C49    C     0.13011   0.29624   0.82472   0.00000  Uiso   1.00
C50    C     0.38696   0.17018   0.17985   0.00000  Uiso   1.00
C51    C     0.35938   0.20118   0.17697   0.00000  Uiso   1.00
C52    C     0.33105   0.38804   0.81964   0.00000  Uiso   1.00
C53    C     0.35237   0.41164   0.84819   0.00000  Uiso   1.00
C54    C     0.11300   0.05750   0.29387   0.00000  Uiso   1.00
C55    C     0.09130   0.03368   0.26586   0.00000  Uiso   1.00
C56    C     0.39773   0.15629   0.82377   0.00000  Uiso   1.00
C57    C     0.21593   0.49499   0.54216   0.00000  Uiso   1.00
C58    C     0.42678   0.13100   0.84116   0.00000  Uiso   1.00
C59    C     0.13640   0.30492   0.20985   0.00000  Uiso   1.00
C60    C     0.15623   0.27590   0.23373   0.00000  Uiso   1.00
C61    C     0.41641   0.14203   0.67782   0.00000  Uiso   1.00
C62    C     0.45746   0.13417   0.68024   0.00000  Uiso   1.00
C63    C     0.05207   0.39159   0.28185   0.00000  Uiso   1.00
C64    C     0.04781   0.38325   0.32490   0.00000  Uiso   1.00
C65    C     0.36373   0.42117   0.67959   0.00000  Uiso   1.00
C66    C     0.39321   0.45023   0.67519   0.00000  Uiso   1.00
C67    C     0.18900   0.13463   0.20090   0.00000  Uiso   1.00
C68    C     0.27390   0.48106   0.45952   0.00000  Uiso   1.00
C69    C     0.21068   0.16626   0.21825   0.00000  Uiso   1.00
C70    C     0.05442   0.38918   0.71418   0.00000  Uiso   1.00
C71    C     0.03145   0.40778   0.74548   0.00000  Uiso   1.00
C72    C     0.41929   0.13727   0.32025   0.00000  Uiso   1.00
C73    C     0.39950   0.16402   0.34690   0.00000  Uiso   1.00
C74    C     0.19333   0.13547   0.79436   0.00000  Uiso   1.00
C75    C     0.22564   0.15236   0.77283   0.00000  Uiso   1.00
C76    C     0.37032   0.42742   0.31435   0.00000  Uiso   1.00
C77    C     0.39263   0.46119   0.30398   0.00000  Uiso   1.00
C78    C     0.42534   0.36757   0.31624   0.00000  Uiso   1.00
C79    C     0.23395   0.46919   0.08248   0.00000  Uiso   1.00
C80    C     0.40838   0.34487   0.34884   0.00000  Uiso   1.00
C81    C     0.14467   0.19929   0.77390   0.00000  Uiso   1.00
C82    C     0.16096   0.21701   0.73754   0.00000  Uiso   1.00
C83    C     0.37169   0.07043   0.31317   0.00000  Uiso   1.00
C84    C     0.34952   0.08052   0.34902   0.00000  Uiso   1.00
C85    C     0.12058   0.43456   0.69434   0.00000  Uiso   1.00
C86    C     0.10020   0.46870   0.70651   0.00000  Uiso   1.00
C87    C     0.12223   0.17942   0.18767   0.00000  Uiso   1.00
C88    C     0.10501   0.16012   0.15310   0.00000  Uiso   1.00
C89    C     0.42077   0.36238   0.68000   0.00000  Uiso   1.00
C90    C     0.24118   0.03184   0.91772   0.00000  Uiso   1.00
C91    C     0.46071   0.37292   0.68586   0.00000  Uiso   1.00
C92    C     0.11557   0.44251   0.29501   0.00000  Uiso   1.00
C93    C     0.13578   0.43810   0.33356   0.00000  Uiso   1.00
C94    C     0.36674   0.07659   0.68137   0.00000  Uiso   1.00
C95    C     0.40027   0.05201   0.67814   0.00000  Uiso   1.00
C96    C     0.21811   0.43674   0.10251   0.00000  Uiso   1.00
C97    C     0.23286   0.06738   0.89827   0.00000  Uiso   1.00
C98    C     0.07025   0.24450   0.10239   0.00000  Uiso   1.00
C99    C     0.05844   0.28777   0.90148   0.00000  Uiso   1.00
C100   C     0.27832   0.06239   0.10020   0.00000  Uiso   1.00
C101   C     0.03373   0.24514   0.08285   0.00000  Uiso   1.00
C102   C     0.26351   0.43084   0.89793   0.00000  Uiso   1.00
C103   C     0.43063   0.25863   0.10138   0.00000  Uiso   1.00
C104   C     0.43593   0.22291   0.89783   0.00000  Uiso   1.00
C105   C     0.45164   0.29793   0.59682   0.00000  Uiso   1.00
C106   C     0.00675   0.31857   0.39900   0.00000  Uiso   1.00
C107   C     0.31756   0.01563   0.60064   0.00000  Uiso   1.00
C108   C     0.19078   0.03938   0.39697   0.00000  Uiso   1.00
C109   C     0.04492   0.19455   0.60376   0.00000  Uiso   1.00
C110   C     0.49364   0.17937   0.39722   0.00000  Uiso   1.00
C111   C     0.18061   0.48690   0.60293   0.00000  Uiso   1.00
C112   C     0.24052   0.03068   0.95821   0.00000  Uiso   1.00
C113   C     0.02829   0.26664   0.91913   0.00000  Uiso   1.00
C114   C     0.30131   0.45535   0.40082   0.00000  Uiso   1.00
C115   C     0.26479   0.02869   0.08142   0.00000  Uiso   1.00
C116   C     0.25698   0.46649   0.91754   0.00000  Uiso   1.00
C117   C     0.46683   0.25324   0.08225   0.00000  Uiso   1.00
C118   C     0.47025   0.23355   0.91769   0.00000  Uiso   1.00
C119   C     0.47745   0.27151   0.57993   0.00000  Uiso   1.00
C120   C     0.00489   0.28199   0.41796   0.00000  Uiso   1.00
C121   C     0.28166   0.00856   0.58177   0.00000  Uiso   1.00
C122   C     0.22095   0.02006   0.41738   0.00000  Uiso   1.00
C123   C     0.02300   0.22252   0.58280   0.00000  Uiso   1.00
C124   C     0.03287   0.24194   0.04251   0.00000  Uiso   1.00
C125   C     0.49808   0.21513   0.41722   0.00000  Uiso   1.00
C126   C     0.21595   0.49415   0.58274   0.00000  Uiso   1.00
C127   C     0.27390   0.47914   0.41921   0.00000  Uiso   1.00
C128   C     0.24934   0.49850   0.02114   0.00000  Uiso   1.00
C129   C     0.24892   0.49866   0.97844   0.00000  Uiso   1.00
C130   C     0.00021   0.24556   0.02185   0.00000  Uiso   1.00
C131   C     0.00056   0.24557   0.97910   0.00000  Uiso   1.00
C132   C     0.00326   0.24734   0.52075   0.00000  Uiso   1.00
C133   C     0.00417   0.24745   0.47822   0.00000  Uiso   1.00
C134   C     0.24787   0.00252   0.52153   0.00000  Uiso   1.00
C135   C     0.02841   0.26380   0.95940   0.00000  Uiso   1.00
C136   C     0.24786   0.00188   0.47897   0.00000  Uiso   1.00
C137   C     0.24982   0.49983   0.35517   0.00000  Uiso   1.00
C138   C     0.24997   0.00012   0.64498   0.00000  Uiso   1.00
C139   C     0.00006   0.24979   0.35500   0.00000  Uiso   1.00
C140   C     0.49990   0.24980   0.64472   0.00000  Uiso   1.00
C141   C     0.00049   0.25009   0.85519   0.00000  Uiso   1.00
C142   C     0.49999   0.25005   0.14506   0.00000  Uiso   1.00
C143   C     0.24997   0.49997   0.85501   0.00000  Uiso   1.00
C144   C     0.24995   0.49969   0.14489   0.00000  Uiso   1.00
C145   C     0.17984   0.06990   0.25005   0.00000  Uiso   1.00
C146   C     0.26528   0.02745   0.04104   0.00000  Uiso   1.00
C147   C     0.32033   0.43039   0.74957   0.00000  Uiso   1.00
C148   C     0.42994   0.18007   0.25000   0.00000  Uiso   1.00
C149   C     0.07039   0.31959   0.75044   0.00000  Uiso   1.00
C150   C     0.32015   0.43018   0.25007   0.00000  Uiso   1.00
C151   C     0.18014   0.07009   0.75011   0.00000  Uiso   1.00
C152   C     0.06951   0.32045   0.25052   0.00000  Uiso   1.00
C153   C     0.42990   0.17997   0.75024   0.00000  Uiso   1.00
C154   C     0.18007   0.42998   0.75008   0.00000  Uiso   1.00
C155   C     0.32008   0.06985   0.24994   0.00000  Uiso   1.00
C156   C     0.42985   0.31980   0.75007   0.00000  Uiso   1.00
C157   C     0.25711   0.46692   0.95807   0.00000  Uiso   1.00
C158   C     0.06966   0.17983   0.25045   0.00000  Uiso   1.00
C159   C     0.32024   0.06967   0.74956   0.00000  Uiso   1.00
C160   C     0.18029   0.42968   0.24986   0.00000  Uiso   1.00
C161   C     0.07038   0.18036   0.75046   0.00000  Uiso   1.00
C162   C     0.42994   0.31995   0.24992   0.00000  Uiso   1.00
C163   C     0.15966   0.36708   0.23354   0.00000  Uiso   1.00
C164   C     0.35452   0.11749   0.78358   0.00000  Uiso   1.00
C165   C     0.09610   0.12340   0.27814   0.00000  Uiso   1.00
C166   C     0.37985   0.35267   0.78286   0.00000  Uiso   1.00
C167   C     0.35273   0.12001   0.21656   0.00000  Uiso   1.00
C168   C     0.46760   0.25162   0.04181   0.00000  Uiso   1.00
C169   C     0.15765   0.36981   0.77265   0.00000  Uiso   1.00
C170   C     0.37871   0.35181   0.21691   0.00000  Uiso   1.00
C171   C     0.09056   0.11804   0.73369   0.00000  Uiso   1.00
C172   C     0.11891   0.09217   0.73047   0.00000  Uiso   1.00
C173   C     0.35242   0.38015   0.21635   0.00000  Uiso   1.00
C174   C     0.13251   0.34081   0.76884   0.00000  Uiso   1.00
C175   C     0.38067   0.14660   0.21603   0.00000  Uiso   1.00
C176   C     0.35364   0.38086   0.78321   0.00000  Uiso   1.00
C177   C     0.12108   0.09418   0.27495   0.00000  Uiso   1.00
C178   C     0.38432   0.14169   0.78497   0.00000  Uiso   1.00
C179   C     0.47184   0.23015   0.95808   0.00000  Uiso   1.00
C180   C     0.13155   0.34067   0.23206   0.00000  Uiso   1.00
C181   C     0.39579   0.13174   0.71505   0.00000  Uiso   1.00
C182   C     0.09042   0.38270   0.26717   0.00000  Uiso   1.00
C183   C     0.36985   0.39712   0.71554   0.00000  Uiso   1.00
C184   C     0.15445   0.12804   0.22439   0.00000  Uiso   1.00
C185   C     0.09238   0.38040   0.72980   0.00000  Uiso   1.00
C186   C     0.39719   0.12968   0.28351   0.00000  Uiso   1.00
C187   C     0.15933   0.13159   0.76896   0.00000  Uiso   1.00
C188   C     0.37207   0.39912   0.28194   0.00000  Uiso   1.00
C189   C     0.39906   0.37162   0.28203   0.00000  Uiso   1.00
C190   C     0.47993   0.27134   0.53972   0.00000  Uiso   1.00
C191   C     0.13366   0.16015   0.76527   0.00000  Uiso   1.00
C192   C     0.37198   0.10050   0.28218   0.00000  Uiso   1.00
C193   C     0.12125   0.40558   0.72602   0.00000  Uiso   1.00
C194   C     0.12528   0.15309   0.22198   0.00000  Uiso   1.00
C195   C     0.39718   0.36974   0.71581   0.00000  Uiso   1.00
C196   C     0.11901   0.40844   0.26989   0.00000  Uiso   1.00
C197   C     0.37009   0.10286   0.71559   0.00000  Uiso   1.00
C198   C     0.09759   0.34858   0.24967   0.00000  Uiso   1.00
C199   C     0.40262   0.15088   0.74996   0.00000  Uiso   1.00
C200   C     0.15146   0.09791   0.24989   0.00000  Uiso   1.00
H201   H     0.22104   0.44751   0.02624   0.00000  Uiso   1.00
H202   H     0.01031   0.30538   0.47474   0.00000  Uiso   1.00
H203   H     0.40595   0.12796   0.65197   0.00000  Uiso   1.00
H204   H     0.41193   0.17118   0.67080   0.00000  Uiso   1.00
H205   H     0.06480   0.40163   0.34269   0.00000  Uiso   1.00
H206   H     0.05565   0.35459   0.33105   0.00000  Uiso   1.00
H207   H     0.01886   0.38733   0.33332   0.00000  Uiso   1.00
H208   H     0.04448   0.42019   0.27537   0.00000  Uiso   1.00
H209   H     0.03084   0.37619   0.26611   0.00000  Uiso   1.00
H210   H     0.38759   0.46659   0.64877   0.00000  Uiso   1.00
H211   H     0.39308   0.46845   0.70078   0.00000  Uiso   1.00
H212   H     0.42065   0.43820   0.67196   0.00000  Uiso   1.00
H213   H     0.30481   0.01536   0.52485   0.00000  Uiso   1.00
H214   H     0.36122   0.40450   0.65305   0.00000  Uiso   1.00
H215   H     0.33756   0.43600   0.67988   0.00000  Uiso   1.00
H216   H     0.22985   0.17736   0.19636   0.00000  Uiso   1.00
H217   H     0.22621   0.15662   0.24397   0.00000  Uiso   1.00
H218   H     0.19271   0.18894   0.22753   0.00000  Uiso   1.00
H219   H     0.20701   0.11044   0.19977   0.00000  Uiso   1.00
H220   H     0.18230   0.14035   0.17014   0.00000  Uiso   1.00
H221   H     0.01783   0.38727   0.76418   0.00000  Uiso   1.00
H222   H     0.04850   0.42561   0.76407   0.00000  Uiso   1.00
H223   H     0.01023   0.42514   0.73186   0.00000  Uiso   1.00
H224   H     0.20117   0.03687   0.47337   0.00000  Uiso   1.00
H225   H     0.05521   0.40683   0.68818   0.00000  Uiso   1.00
H226   H     0.04032   0.36432   0.70390   0.00000  Uiso   1.00
H227   H     0.37033   0.15665   0.35027   0.00000  Uiso   1.00
H228   H     0.40075   0.19216   0.33539   0.00000  Uiso   1.00
H229   H     0.41261   0.16383   0.37590   0.00000  Uiso   1.00
H230   H     0.42533   0.11225   0.33692   0.00000  Uiso   1.00
H231   H     0.44675   0.14814   0.31319   0.00000  Uiso   1.00
H232   H     0.25091   0.14815   0.79000   0.00000  Uiso   1.00
H233   H     0.22935   0.13960   0.74402   0.00000  Uiso   1.00
H234   H     0.22192   0.18208   0.76915   0.00000  Uiso   1.00
H235   H     0.04226   0.20411   0.52711   0.00000  Uiso   1.00
H236   H     0.18722   0.15114   0.82098   0.00000  Uiso   1.00
H237   H     0.20202   0.10855   0.80584   0.00000  Uiso   1.00
H238   H     0.39147   0.48092   0.32822   0.00000  Uiso   1.00
H239   H     0.38147   0.47455   0.27760   0.00000  Uiso   1.00
H240   H     0.42159   0.45380   0.29874   0.00000  Uiso   1.00
H241   H     0.34193   0.43596   0.32029   0.00000  Uiso   1.00
H242   H     0.37977   0.41655   0.34255   0.00000  Uiso   1.00
H243   H     0.38125   0.35565   0.35728   0.00000  Uiso   1.00
H244   H     0.40499   0.31618   0.33960   0.00000  Uiso   1.00
H245   H     0.42643   0.34539   0.37465   0.00000  Uiso   1.00
H246   H     0.49733   0.18969   0.47371   0.00000  Uiso   1.00
H247   H     0.45151   0.35477   0.30760   0.00000  Uiso   1.00
H248   H     0.43395   0.39447   0.32740   0.00000  Uiso   1.00
H249   H     0.17859   0.19763   0.72150   0.00000  Uiso   1.00
H250   H     0.13906   0.22642   0.71770   0.00000  Uiso   1.00
H251   H     0.17796   0.24072   0.74566   0.00000  Uiso   1.00
H252   H     0.12120   0.21567   0.78423   0.00000  Uiso   1.00
H253   H     0.16469   0.20110   0.79777   0.00000  Uiso   1.00
H254   H     0.32440   0.09568   0.34089   0.00000  Uiso   1.00
H255   H     0.34138   0.05533   0.36472   0.00000  Uiso   1.00
H256   H     0.36611   0.09703   0.36919   0.00000  Uiso   1.00
H257   H     0.19097   0.48964   0.52634   0.00000  Uiso   1.00
H258   H     0.36029   0.04475   0.30147   0.00000  Uiso   1.00
H259   H     0.39977   0.06222   0.32138   0.00000  Uiso   1.00
H260   H     0.07110   0.46331   0.71254   0.00000  Uiso   1.00
H261   H     0.11299   0.48052   0.73274   0.00000  Uiso   1.00
H262   H     0.10136   0.48843   0.68217   0.00000  Uiso   1.00
H263   H     0.14862   0.44252   0.68570   0.00000  Uiso   1.00
H264   H     0.10873   0.42345   0.66726   0.00000  Uiso   1.00
H265   H     0.12065   0.13524   0.14557   0.00000  Uiso   1.00
H266   H     0.07643   0.15234   0.15985   0.00000  Uiso   1.00
H267   H     0.10494   0.17845   0.12755   0.00000  Uiso   1.00
H268   H     0.29377   0.46545   0.47594   0.00000  Uiso   1.00
H269   H     0.10562   0.20378   0.19456   0.00000  Uiso   1.00
H270   H     0.14898   0.19081   0.17903   0.00000  Uiso   1.00
H271   H     0.47481   0.37419   0.65742   0.00000  Uiso   1.00
H272   H     0.46254   0.39996   0.69972   0.00000  Uiso   1.00
H273   H     0.47526   0.35263   0.70395   0.00000  Uiso   1.00
H274   H     0.41889   0.33333   0.67201   0.00000  Uiso   1.00
H275   H     0.41139   0.37685   0.65385   0.00000  Uiso   1.00
H276   H     0.16571   0.43790   0.32928   0.00000  Uiso   1.00
H277   H     0.12903   0.46132   0.35278   0.00000  Uiso   1.00
H278   H     0.12770   0.41241   0.34827   0.00000  Uiso   1.00
H279   H     0.23856   0.36745   0.26498   0.00000  Uiso   1.00
H280   H     0.12655   0.46654   0.27946   0.00000  Uiso   1.00
H281   H     0.08712   0.44972   0.30193   0.00000  Uiso   1.00
H282   H     0.42427   0.06714   0.66732   0.00000  Uiso   1.00
H283   H     0.40678   0.03952   0.70670   0.00000  Uiso   1.00
H284   H     0.39477   0.02992   0.65727   0.00000  Uiso   1.00
H285   H     0.34316   0.05804   0.68394   0.00000  Uiso   1.00
H286   H     0.36139   0.09130   0.65385   0.00000  Uiso   1.00
H287   H     0.18429   0.39346   0.09946   0.00000  Uiso   1.00
H288   H     0.21111   0.11772   0.90283   0.00000  Uiso   1.00
H289   H     0.12484   0.23867   0.09675   0.00000  Uiso   1.00
H290   H     0.20612   0.33203   0.27603   0.00000  Uiso   1.00
H291   H     0.11174   0.30141   0.90428   0.00000  Uiso   1.00
H292   H     0.31076   0.10668   0.09632   0.00000  Uiso   1.00
H293   H     0.27852   0.37811   0.90324   0.00000  Uiso   1.00
H294   H     0.37747   0.27218   0.09508   0.00000  Uiso   1.00
H295   H     0.39889   0.23477   0.85653   0.00000  Uiso   1.00
H296   H     0.43311   0.34966   0.59635   0.00000  Uiso   1.00
H297   H     0.01849   0.37206   0.40461   0.00000  Uiso   1.00
H298   H     0.36808   0.03719   0.59545   0.00000  Uiso   1.00
H299   H     0.15445   0.08070   0.39739   0.00000  Uiso   1.00
H300   H     0.04921   0.15999   0.64907   0.00000  Uiso   1.00
H301   H     0.24196   0.32410   0.24166   0.00000  Uiso   1.00
H302   H     0.48047   0.12613   0.40174   0.00000  Uiso   1.00
H303   H     0.12940   0.46691   0.59946   0.00000  Uiso   1.00
H304   H     0.31135   0.40798   0.37341   0.00000  Uiso   1.00
H305   H     0.23361   0.05497   0.97430   0.00000  Uiso   1.00
H306   H     0.19847   0.33797   0.19596   0.00000  Uiso   1.00
H307   H     0.21068   0.38270   0.20540   0.00000  Uiso   1.00
H308   H     0.35814   0.10256   0.87023   0.00000  Uiso   1.00
H309   H     0.35478   0.06464   0.83709   0.00000  Uiso   1.00
H310   H     0.31619   0.07830   0.86582   0.00000  Uiso   1.00
H311   H     0.32132   0.14175   0.82954   0.00000  Uiso   1.00
H312   H     0.30035   0.10519   0.80715   0.00000  Uiso   1.00
H313   H     0.01112   0.11305   0.32248   0.00000  Uiso   1.00
H314   H     0.02172   0.11768   0.27175   0.00000  Uiso   1.00
H315   H     0.03476   0.07710   0.29833   0.00000  Uiso   1.00
H316   H     0.05796   0.23715   0.02679   0.00000  Uiso   1.00
H317   H     0.07889   0.11276   0.33797   0.00000  Uiso   1.00
H318   H     0.06256   0.15351   0.31918   0.00000  Uiso   1.00
H319   H     0.35357   0.27595   0.83491   0.00000  Uiso   1.00
H320   H     0.36458   0.27709   0.78393   0.00000  Uiso   1.00
H321   H     0.32731   0.30410   0.80254   0.00000  Uiso   1.00
H322   H     0.40932   0.31352   0.82027   0.00000  Uiso   1.00
H323   H     0.37574   0.33738   0.84455   0.00000  Uiso   1.00
H324   H     0.27262   0.10734   0.20770   0.00000  Uiso   1.00
H325   H     0.28966   0.15333   0.21097   0.00000  Uiso   1.00
H326   H     0.27332   0.13590   0.16542   0.00000  Uiso   1.00
H327   H     0.04973   0.27736   0.97564   0.00000  Uiso   1.00
H328   H     0.33498   0.13018   0.15602   0.00000  Uiso   1.00
H329   H     0.32569   0.08660   0.17308   0.00000  Uiso   1.00
H330   H     0.15317   0.37983   0.84981   0.00000  Uiso   1.00
H331   H     0.18013   0.41805   0.83368   0.00000  Uiso   1.00
H332   H     0.20107   0.38187   0.86106   0.00000  Uiso   1.00
H333   H     0.19690   0.33980   0.80966   0.00000  Uiso   1.00
H334   H     0.21472   0.37931   0.78833   0.00000  Uiso   1.00
H335   H     0.35344   0.27812   0.15974   0.00000  Uiso   1.00
H336   H     0.34510   0.28548   0.21062   0.00000  Uiso   1.00
H337   H     0.32339   0.31346   0.17412   0.00000  Uiso   1.00
H338   H     0.27741   0.04968   0.02481   0.00000  Uiso   1.00
H339   H     0.38526   0.33903   0.15524   0.00000  Uiso   1.00
H340   H     0.40584   0.30708   0.18516   0.00000  Uiso   1.00
H341   H     0.00450   0.07864   0.73967   0.00000  Uiso   1.00
H342   H     0.02821   0.10274   0.77743   0.00000  Uiso   1.00
H343   H     0.04717   0.06134   0.75788   0.00000  Uiso   1.00
H344   H     0.03553   0.13366   0.71377   0.00000  Uiso   1.00
H345   H     0.05201   0.09430   0.69205   0.00000  Uiso   1.00
H346   H     0.10380   0.09291   0.65245   0.00000  Uiso   1.00
H347   H     0.15083   0.07925   0.65837   0.00000  Uiso   1.00
H348   H     0.11721   0.04666   0.64262   0.00000  Uiso   1.00
H349   H     0.26355   0.44232   0.97411   0.00000  Uiso   1.00
H350   H     0.13412   0.03747   0.71133   0.00000  Uiso   1.00
H351   H     0.08741   0.04706   0.70669   0.00000  Uiso   1.00
H352   H     0.28558   0.35474   0.20391   0.00000  Uiso   1.00
H353   H     0.27446   0.40247   0.19950   0.00000  Uiso   1.00
H354   H     0.27592   0.37449   0.15721   0.00000  Uiso   1.00
H355   H     0.33256   0.41709   0.17136   0.00000  Uiso   1.00
H356   H     0.33870   0.37321   0.15426   0.00000  Uiso   1.00
H357   H     0.10012   0.29915   0.82687   0.00000  Uiso   1.00
H358   H     0.13769   0.26821   0.83384   0.00000  Uiso   1.00
H359   H     0.14357   0.31581   0.84440   0.00000  Uiso   1.00
H360   H     0.44259   0.25542   0.02558   0.00000  Uiso   1.00
H361   H     0.12862   0.28188   0.76475   0.00000  Uiso   1.00
H362   H     0.17134   0.29672   0.77954   0.00000  Uiso   1.00
H363   H     0.33093   0.19121   0.17730   0.00000  Uiso   1.00
H364   H     0.36329   0.22015   0.20156   0.00000  Uiso   1.00
H365   H     0.36367   0.21604   0.14931   0.00000  Uiso   1.00
H366   H     0.41419   0.18284   0.17867   0.00000  Uiso   1.00
H367   H     0.38707   0.15343   0.15324   0.00000  Uiso   1.00
H368   H     0.37921   0.39929   0.85524   0.00000  Uiso   1.00
H369   H     0.35713   0.43916   0.83580   0.00000  Uiso   1.00
H370   H     0.33674   0.41460   0.87546   0.00000  Uiso   1.00
H371   H     0.44981   0.21668   0.97337   0.00000  Uiso   1.00
H372   H     0.30476   0.40154   0.81294   0.00000  Uiso   1.00
H373   H     0.32234   0.36239   0.83389   0.00000  Uiso   1.00
H374   H     0.06979   0.04962   0.25076   0.00000  Uiso   1.00
H375   H     0.10961   0.02191   0.24361   0.00000  Uiso   1.00
H376   H     0.07780   0.01133   0.28206   0.00000  Uiso   1.00
H377   H     0.13841   0.04311   0.30240   0.00000  Uiso   1.00
H378   H     0.09744   0.06001   0.32113   0.00000  Uiso   1.00
H379   H     0.41623   0.10286   0.84424   0.00000  Uiso   1.00
H380   H     0.45142   0.12980   0.82264   0.00000  Uiso   1.00
H381   H     0.43502   0.14092   0.87017   0.00000  Uiso   1.00
H382   H     0.46278   0.28957   0.52287   0.00000  Uiso   1.00
H383   H     0.40905   0.18400   0.82060   0.00000  Uiso   1.00
H384   H     0.37556   0.15986   0.84509   0.00000  Uiso   1.00
H385   H     0.18564   0.28217   0.23622   0.00000  Uiso   1.00
H386   H     0.14416   0.27356   0.26313   0.00000  Uiso   1.00
H387   H     0.15374   0.24917   0.21915   0.00000  Uiso   1.00
H388   H     0.10977   0.29338   0.20085   0.00000  Uiso   1.00
H389   H     0.15022   0.30936   0.18169   0.00000  Uiso   1.00
H390   H     0.47230   0.15686   0.69423   0.00000  Uiso   1.00
H391   H     0.46280   0.10873   0.69669   0.00000  Uiso   1.00
H392   H     0.46881   0.13114   0.65060   0.00000  Uiso   1.00
O393   O     0.25000   0.00000   0.25000   0.00000  Uiso   1.00
O394   O     0.25000   0.46964   0.66317   0.00000  Uiso   1.00
O395   O     0.46964   0.25000   0.33683   0.00000  Uiso   1.00
O396   O     0.03036   0.25000   0.66317   0.00000  Uiso   1.00
O397   O     0.00000   0.21964   0.83683   0.00000  Uiso   1.00
O398   O     0.00000   0.28036   0.16317   0.00000  Uiso   1.00
O399   O     0.28036   0.00000   0.83683   0.00000  Uiso   1.00
O400   O     0.21964   0.00000   0.16317   0.00000  Uiso   1.00
O401   O     0.00000   0.28036   0.83683   0.00000  Uiso   1.00
O402   O     0.00000   0.21964   0.16317   0.00000  Uiso   1.00
O403   O     0.21964   0.00000   0.83683   0.00000  Uiso   1.00
O404   O     0.25000   0.00000   0.75000   0.00000  Uiso   1.00
O405   O     0.28036   0.00000   0.16317   0.00000  Uiso   1.00
O406   O     0.20726   0.07307   0.27282   0.00000  Uiso   1.00
O407   O     0.29275   0.42693   0.72718   0.00000  Uiso   1.00
O408   O     0.42693   0.20726   0.27282   0.00000  Uiso   1.00
O409   O     0.07307   0.29275   0.72718   0.00000  Uiso   1.00
O410   O     0.29275   0.42693   0.27282   0.00000  Uiso   1.00
O411   O     0.20726   0.07307   0.72718   0.00000  Uiso   1.00
O412   O     0.07307   0.29275   0.27282   0.00000  Uiso   1.00
O413   O     0.42693   0.20726   0.72718   0.00000  Uiso   1.00
O414   O     0.20726   0.42693   0.72718   0.00000  Uiso   1.00
O415   O     0.00000   0.25000   0.25000   0.00000  Uiso   1.00
O416   O     0.29275   0.07307   0.27282   0.00000  Uiso   1.00
O417   O     0.42693   0.29275   0.72718   0.00000  Uiso   1.00
O418   O     0.07307   0.20726   0.27282   0.00000  Uiso   1.00
O419   O     0.29275   0.07307   0.72718   0.00000  Uiso   1.00
O420   O     0.20726   0.42693   0.27282   0.00000  Uiso   1.00
O421   O     0.07307   0.20726   0.72718   0.00000  Uiso   1.00
O422   O     0.42693   0.29275   0.27282   0.00000  Uiso   1.00
O423   O     0.45726   0.32307   0.77282   0.00000  Uiso   1.00
O424   O     0.04275   0.17693   0.22718   0.00000  Uiso   1.00
O425   O     0.17693   0.45726   0.77282   0.00000  Uiso   1.00
O426   O     0.00000   0.25000   0.75000   0.00000  Uiso   1.00
O427   O     0.32307   0.04275   0.22718   0.00000  Uiso   1.00
O428   O     0.04275   0.17693   0.77282   0.00000  Uiso   1.00
O429   O     0.45726   0.32307   0.22718   0.00000  Uiso   1.00
O430   O     0.32307   0.04275   0.77282   0.00000  Uiso   1.00
O431   O     0.17693   0.45726   0.22718   0.00000  Uiso   1.00
O432   O     0.45726   0.17693   0.22718   0.00000  Uiso   1.00
O433   O     0.04275   0.32307   0.77282   0.00000  Uiso   1.00
O434   O     0.17693   0.04275   0.22718   0.00000  Uiso   1.00
O435   O     0.32307   0.45726   0.77282   0.00000  Uiso   1.00
O436   O     0.04275   0.32307   0.22718   0.00000  Uiso   1.00
O437   O     0.25000   0.46964   0.33683   0.00000  Uiso   1.00
O438   O     0.45726   0.17693   0.77282   0.00000  Uiso   1.00
O439   O     0.32307   0.45726   0.22718   0.00000  Uiso   1.00
O440   O     0.17693   0.04275   0.77282   0.00000  Uiso   1.00
O441   O     0.22743   0.42858   0.13543   0.00000  Uiso   1.00
O442   O     0.19291   0.41478   0.08309   0.00000  Uiso   1.00
O443   O     0.24175   0.07303   0.86464   0.00000  Uiso   1.00
O444   O     0.21516   0.09490   0.91893   0.00000  Uiso   1.00
O445   O     0.07328   0.25065   0.13702   0.00000  Uiso   1.00
O446   O     0.10173   0.23772   0.08061   0.00000  Uiso   1.00
O447   O     0.05213   0.31092   0.87685   0.00000  Uiso   1.00
O448   O     0.25000   0.03036   0.66317   0.00000  Uiso   1.00
O449   O     0.09388   0.28335   0.91581   0.00000  Uiso   1.00
O450   O     0.26519   0.07259   0.13081   0.00000  Uiso   1.00
O451   O     0.30493   0.08353   0.08173   0.00000  Uiso   1.00
O452   O     0.25800   0.42726   0.86325   0.00000  Uiso   1.00
O453   O     0.27538   0.40077   0.91959   0.00000  Uiso   1.00
O454   O     0.42665   0.25302   0.13605   0.00000  Uiso   1.00
O455   O     0.40060   0.26976   0.07923   0.00000  Uiso   1.00
O456   O     0.41673   0.19879   0.91140   0.00000  Uiso   1.00
O457   O     0.42420   0.24222   0.86513   0.00000  Uiso   1.00
O458   O     0.42668   0.28747   0.61750   0.00000  Uiso   1.00
O459   O     0.03036   0.25000   0.33683   0.00000  Uiso   1.00
O460   O     0.45392   0.33453   0.58579   0.00000  Uiso   1.00
O461   O     0.49674   0.32292   0.36552   0.00000  Uiso   1.00
O462   O     0.01929   0.34854   0.42005   0.00000  Uiso   1.00
O463   O     0.32390   0.00459   0.63342   0.00000  Uiso   1.00
O464   O     0.34466   0.03441   0.58018   0.00000  Uiso   1.00
O465   O     0.17895   0.02792   0.36623   0.00000  Uiso   1.00
O466   O     0.17491   0.07016   0.41375   0.00000  Uiso   1.00
O467   O     0.07412   0.18445   0.59041   0.00000  Uiso   1.00
O468   O     0.03180   0.17878   0.63796   0.00000  Uiso   1.00
O469   O     0.49988   0.17632   0.36261   0.00000  Uiso   1.00
O470   O     0.46964   0.25000   0.66317   0.00000  Uiso   1.00
O471   O     0.48260   0.14871   0.41838   0.00000  Uiso   1.00
O472   O     0.17604   0.49594   0.63662   0.00000  Uiso   1.00
O473   O     0.15200   0.47022   0.58287   0.00000  Uiso   1.00
O474   O     0.33374   0.46276   0.40336   0.00000  Uiso   1.00
O475   O     0.29010   0.42334   0.38260   0.00000  Uiso   1.00
O476   O     0.25000   0.03036   0.33683   0.00000  Uiso   1.00
Zn477  Zn    0.20660   0.00000   0.21760   0.00000  Uiso   1.00
Zn478  Zn    0.04340   0.25000   0.28240   0.00000  Uiso   1.00
Zn479  Zn    0.25000   0.45660   0.71760   0.00000  Uiso   1.00
Zn480  Zn    0.25000   0.04340   0.28240   0.00000  Uiso   1.00
Zn481  Zn    0.04340   0.25000   0.71760   0.00000  Uiso   1.00
Zn482  Zn    0.45660   0.25000   0.28240   0.00000  Uiso   1.00
Zn483  Zn    0.25000   0.04340   0.71760   0.00000  Uiso   1.00
Zn484  Zn    0.25000   0.45660   0.28240   0.00000  Uiso   1.00
Zn485  Zn    0.29340   0.00000   0.78240   0.00000  Uiso   1.00
Zn486  Zn    0.00000   0.20660   0.21760   0.00000  Uiso   1.00
Zn487  Zn    0.00000   0.29340   0.78240   0.00000  Uiso   1.00
Zn488  Zn    0.29340   0.00000   0.21760   0.00000  Uiso   1.00
Zn489  Zn    0.20660   0.00000   0.78240   0.00000  Uiso   1.00
Zn490  Zn    0.00000   0.29340   0.21760   0.00000  Uiso   1.00
Zn491  Zn    0.00000   0.20660   0.78240   0.00000  Uiso   1.00
Zn492  Zn    0.45660   0.25000   0.71760   0.00000  Uiso   1.00
C493   C     0.73356   0.46974   0.04191   0.00000  Uiso   1.00
C494   C     0.50702   0.28051   0.45832   0.00000  Uiso   1.00
C495   C     0.84857   0.40240   0.74945   0.00000  Uiso   1.00
C496   C     0.90187   0.15184   0.24999   0.00000  Uiso   1.00
C497   C     0.59876   0.34752   0.75007   0.00000  Uiso   1.00
C498   C     0.84845   0.40230   0.24964   0.00000  Uiso   1.00
C499   C     0.65215   0.09829   0.75017   0.00000  Uiso   1.00
C500   C     0.59857   0.15232   0.75008   0.00000  Uiso   1.00
C501   C     0.90185   0.34811   0.24972   0.00000  Uiso   1.00
C502   C     0.65226   0.40158   0.75004   0.00000  Uiso   1.00
C503   C     0.84866   0.09749   0.24969   0.00000  Uiso   1.00
C504   C     0.90187   0.34804   0.74959   0.00000  Uiso   1.00
C505   C     0.78031   0.00952   0.54133   0.00000  Uiso   1.00
C506   C     0.59773   0.15185   0.25048   0.00000  Uiso   1.00
C507   C     0.84849   0.09751   0.74929   0.00000  Uiso   1.00
C508   C     0.65240   0.40126   0.25087   0.00000  Uiso   1.00
C509   C     0.74968   0.49908   0.10249   0.00000  Uiso   1.00
C510   C     0.74973   0.49949   0.89722   0.00000  Uiso   1.00
C511   C     0.50022   0.24989   0.10292   0.00000  Uiso   1.00
C512   C     0.99951   0.25050   0.89774   0.00000  Uiso   1.00
C513   C     0.99964   0.24751   0.60213   0.00000  Uiso   1.00
C514   C     0.50049   0.24899   0.39720   0.00000  Uiso   1.00
C515   C     0.74925   0.00062   0.60270   0.00000  Uiso   1.00
C516   C     0.72154   0.02121   0.45793   0.00000  Uiso   1.00
C517   C     0.74789   0.49934   0.39767   0.00000  Uiso   1.00
C518   C     0.69815   0.35844   0.21926   0.00000  Uiso   1.00
C519   C     0.72247   0.34482   0.25253   0.00000  Uiso   1.00
C520   C     0.82746   0.11453   0.81737   0.00000  Uiso   1.00
C521   C     0.84016   0.08843   0.84935   0.00000  Uiso   1.00
C522   C     0.56803   0.12490   0.31086   0.00000  Uiso   1.00
C523   C     0.53183   0.10705   0.29993   0.00000  Uiso   1.00
C524   C     0.88165   0.32496   0.81611   0.00000  Uiso   1.00
C525   C     0.85513   0.29365   0.80884   0.00000  Uiso   1.00
C526   C     0.82656   0.11543   0.18235   0.00000  Uiso   1.00
C527   C     0.52459   0.22300   0.54220   0.00000  Uiso   1.00
C528   C     0.78829   0.12878   0.19239   0.00000  Uiso   1.00
C529   C     0.68946   0.36788   0.80131   0.00000  Uiso   1.00
C530   C     0.68030   0.38823   0.83861   0.00000  Uiso   1.00
C531   C     0.88151   0.32476   0.18332   0.00000  Uiso   1.00
C532   C     0.84877   0.29909   0.18208   0.00000  Uiso   1.00
C533   C     0.55192   0.10898   0.71999   0.00000  Uiso   1.00
C534   C     0.53182   0.08653   0.75063   0.00000  Uiso   1.00
C535   C     0.61478   0.05952   0.70386   0.00000  Uiso   1.00
C536   C     0.62202   0.07037   0.66178   0.00000  Uiso   1.00
C537   C     0.82942   0.38816   0.18007   0.00000  Uiso   1.00
C538   C     0.99982   0.21504   0.45775   0.00000  Uiso   1.00
C539   C     0.78896   0.37943   0.18574   0.00000  Uiso   1.00
C540   C     0.64189   0.30263   0.78305   0.00000  Uiso   1.00
C541   C     0.63011   0.29624   0.82472   0.00000  Uiso   1.00
C542   C     0.88696   0.17018   0.17985   0.00000  Uiso   1.00
C543   C     0.85938   0.20118   0.17697   0.00000  Uiso   1.00
C544   C     0.83105   0.38804   0.81964   0.00000  Uiso   1.00
C545   C     0.85237   0.41164   0.84819   0.00000  Uiso   1.00
C546   C     0.61300   0.05750   0.29387   0.00000  Uiso   1.00
C547   C     0.59130   0.03368   0.26586   0.00000  Uiso   1.00
C548   C     0.89773   0.15629   0.82377   0.00000  Uiso   1.00
C549   C     0.71593   0.49499   0.54216   0.00000  Uiso   1.00
C550   C     0.92678   0.13100   0.84116   0.00000  Uiso   1.00
C551   C     0.63640   0.30492   0.20985   0.00000  Uiso   1.00
C552   C     0.65623   0.27590   0.23373   0.00000  Uiso   1.00
C553   C     0.91641   0.14203   0.67782   0.00000  Uiso   1.00
C554   C     0.95746   0.13417   0.68024   0.00000  Uiso   1.00
C555   C     0.55207   0.39159   0.28185   0.00000  Uiso   1.00
C556   C     0.54781   0.38325   0.32490   0.00000  Uiso   1.00
C557   C     0.86373   0.42117   0.67959   0.00000  Uiso   1.00
C558   C     0.89321   0.45023   0.67519   0.00000  Uiso   1.00
C559   C     0.68900   0.13463   0.20090   0.00000  Uiso   1.00
C560   C     0.77390   0.48106   0.45952   0.00000  Uiso   1.00
C561   C     0.71068   0.16626   0.21825   0.00000  Uiso   1.00
C562   C     0.55442   0.38918   0.71418   0.00000  Uiso   1.00
C563   C     0.53145   0.40778   0.74548   0.00000  Uiso   1.00
C564   C     0.91929   0.13727   0.32025   0.00000  Uiso   1.00
C565   C     0.89950   0.16402   0.34690   0.00000  Uiso   1.00
C566   C     0.69333   0.13547   0.79436   0.00000  Uiso   1.00
C567   C     0.72564   0.15236   0.77283   0.00000  Uiso   1.00
C568   C     0.87032   0.42742   0.31435   0.00000  Uiso   1.00
C569   C     0.89263   0.46119   0.30398   0.00000  Uiso   1.00
C570   C     0.92534   0.36757   0.31624   0.00000  Uiso   1.00
C571   C     0.73395   0.46919   0.08248   0.00000  Uiso   1.00
C572   C     0.90838   0.34487   0.34884   0.00000  Uiso   1.00
C573   C     0.64467   0.19929   0.77390   0.00000  Uiso   1.00
C574   C     0.66096   0.21701   0.73754   0.00000  Uiso   1.00
C575   C     0.87169   0.07043   0.31317   0.00000  Uiso   1.00
C576   C     0.84952   0.08052   0.34902   0.00000  Uiso   1.00
C577   C     0.62058   0.43456   0.69434   0.00000  Uiso   1.00
C578   C     0.60020   0.46870   0.70651   0.00000  Uiso   1.00
C579   C     0.62223   0.17942   0.18767   0.00000  Uiso   1.00
C580   C     0.60501   0.16012   0.15310   0.00000  Uiso   1.00
C581   C     0.92077   0.36238   0.68000   0.00000  Uiso   1.00
C582   C     0.74118   0.03184   0.91772   0.00000  Uiso   1.00
C583   C     0.96071   0.37292   0.68586   0.00000  Uiso   1.00
C584   C     0.61557   0.44251   0.29501   0.00000  Uiso   1.00
C585   C     0.63578   0.43810   0.33356   0.00000  Uiso   1.00
C586   C     0.86674   0.07659   0.68137   0.00000  Uiso   1.00
C587   C     0.90027   0.05201   0.67814   0.00000  Uiso   1.00
C588   C     0.71811   0.43674   0.10251   0.00000  Uiso   1.00
C589   C     0.73286   0.06738   0.89827   0.00000  Uiso   1.00
C590   C     0.57025   0.24450   0.10239   0.00000  Uiso   1.00
C591   C     0.55844   0.28777   0.90148   0.00000  Uiso   1.00
C592   C     0.77832   0.06239   0.10020   0.00000  Uiso   1.00
C593   C     0.53373   0.24514   0.08285   0.00000  Uiso   1.00
C594   C     0.76351   0.43084   0.89793   0.00000  Uiso   1.00
C595   C     0.93063   0.25863   0.10138   0.00000  Uiso   1.00
C596   C     0.93593   0.22291   0.89783   0.00000  Uiso   1.00
C597   C     0.95164   0.29793   0.59682   0.00000  Uiso   1.00
C598   C     0.50675   0.31857   0.39900   0.00000  Uiso   1.00
C599   C     0.81756   0.01563   0.60064   0.00000  Uiso   1.00
C600   C     0.69078   0.03938   0.39697   0.00000  Uiso   1.00
C601   C     0.54492   0.19455   0.60376   0.00000  Uiso   1.00
C602   C     0.99364   0.17937   0.39722   0.00000  Uiso   1.00
C603   C     0.68061   0.48690   0.60293   0.00000  Uiso   1.00
C604   C     0.74052   0.03068   0.95821   0.00000  Uiso   1.00
C605   C     0.52829   0.26664   0.91913   0.00000  Uiso   1.00
C606   C     0.80131   0.45535   0.40082   0.00000  Uiso   1.00
C607   C     0.76479   0.02869   0.08142   0.00000  Uiso   1.00
C608   C     0.75698   0.46649   0.91754   0.00000  Uiso   1.00
C609   C     0.96683   0.25324   0.08225   0.00000  Uiso   1.00
C610   C     0.97025   0.23355   0.91769   0.00000  Uiso   1.00
C611   C     0.97745   0.27151   0.57993   0.00000  Uiso   1.00
C612   C     0.50489   0.28199   0.41796   0.00000  Uiso   1.00
C613   C     0.78166   0.00856   0.58177   0.00000  Uiso   1.00
C614   C     0.72095   0.02006   0.41738   0.00000  Uiso   1.00
C615   C     0.52300   0.22252   0.58280   0.00000  Uiso   1.00
C616   C     0.53287   0.24194   0.04251   0.00000  Uiso   1.00
C617   C     0.99808   0.21513   0.41722   0.00000  Uiso   1.00
C618   C     0.71595   0.49415   0.58274   0.00000  Uiso   1.00
C619   C     0.77390   0.47914   0.41921   0.00000  Uiso   1.00
C620   C     0.74934   0.49850   0.02114   0.00000  Uiso   1.00
C621   C     0.74892   0.49866   0.97844   0.00000  Uiso   1.00
C622   C     0.50021   0.24556   0.02185   0.00000  Uiso   1.00
C623   C     0.50056   0.24557   0.97910   0.00000  Uiso   1.00
C624   C     0.50326   0.24734   0.52075   0.00000  Uiso   1.00
C625   C     0.50417   0.24745   0.47822   0.00000  Uiso   1.00
C626   C     0.74787   0.00252   0.52153   0.00000  Uiso   1.00
C627   C     0.52841   0.26380   0.95940   0.00000  Uiso   1.00
C628   C     0.74786   0.00188   0.47897   0.00000  Uiso   1.00
C629   C     0.74982   0.49983   0.35517   0.00000  Uiso   1.00
C630   C     0.74997   0.00012   0.64498   0.00000  Uiso   1.00
C631   C     0.50006   0.24979   0.35500   0.00000  Uiso   1.00
C632   C     0.99990   0.24980   0.64472   0.00000  Uiso   1.00
C633   C     0.50049   0.25009   0.85519   0.00000  Uiso   1.00
C634   C     0.99999   0.25005   0.14506   0.00000  Uiso   1.00
C635   C     0.74997   0.49997   0.85501   0.00000  Uiso   1.00
C636   C     0.74995   0.49969   0.14489   0.00000  Uiso   1.00
C637   C     0.67984   0.06990   0.25005   0.00000  Uiso   1.00
C638   C     0.76528   0.02745   0.04104   0.00000  Uiso   1.00
C639   C     0.82033   0.43039   0.74957   0.00000  Uiso   1.00
C640   C     0.92994   0.18007   0.25000   0.00000  Uiso   1.00
C641   C     0.57039   0.31959   0.75044   0.00000  Uiso   1.00
C642   C     0.82015   0.43018   0.25007   0.00000  Uiso   1.00
C643   C     0.68014   0.07009   0.75011   0.00000  Uiso   1.00
C644   C     0.56951   0.32045   0.25052   0.00000  Uiso   1.00
C645   C     0.92990   0.17997   0.75024   0.00000  Uiso   1.00
C646   C     0.68007   0.42998   0.75008   0.00000  Uiso   1.00
C647   C     0.82008   0.06985   0.24994   0.00000  Uiso   1.00
C648   C     0.92985   0.31980   0.75007   0.00000  Uiso   1.00
C649   C     0.75711   0.46692   0.95807   0.00000  Uiso   1.00
C650   C     0.56966   0.17983   0.25045   0.00000  Uiso   1.00
C651   C     0.82024   0.06967   0.74956   0.00000  Uiso   1.00
C652   C     0.68029   0.42968   0.24986   0.00000  Uiso   1.00
C653   C     0.57038   0.18036   0.75046   0.00000  Uiso   1.00
C654   C     0.92994   0.31995   0.24992   0.00000  Uiso   1.00
C655   C     0.65966   0.36708   0.23354   0.00000  Uiso   1.00
C656   C     0.85452   0.11749   0.78358   0.00000  Uiso   1.00
C657   C     0.59610   0.12340   0.27814   0.00000  Uiso   1.00
C658   C     0.87985   0.35267   0.78286   0.00000  Uiso   1.00
C659   C     0.85273   0.12001   0.21656   0.00000  Uiso   1.00
C660   C     0.96760   0.25162   0.04181   0.00000  Uiso   1.00
C661   C     0.65765   0.36981   0.77265   0.00000  Uiso   1.00
C662   C     0.87871   0.35181   0.21691   0.00000  Uiso   1.00
C663   C     0.59056   0.11804   0.73369   0.00000  Uiso   1.00
C664   C     0.61891   0.09217   0.73047   0.00000  Uiso   1.00
C665   C     0.85242   0.38015   0.21635   0.00000  Uiso   1.00
C666   C     0.63251   0.34081   0.76884   0.00000  Uiso   1.00
C667   C     0.88067   0.14660   0.21603   0.00000  Uiso   1.00
C668   C     0.85364   0.38086   0.78321   0.00000  Uiso   1.00
C669   C     0.62108   0.09418   0.27495   0.00000  Uiso   1.00
C670   C     0.88432   0.14169   0.78497   0.00000  Uiso   1.00
C671   C     0.97184   0.23015   0.95808   0.00000  Uiso   1.00
C672   C     0.63155   0.34067   0.23206   0.00000  Uiso   1.00
C673   C     0.89579   0.13174   0.71505   0.00000  Uiso   1.00
C674   C     0.59042   0.38270   0.26717   0.00000  Uiso   1.00
C675   C     0.86985   0.39712   0.71554   0.00000  Uiso   1.00
C676   C     0.65445   0.12804   0.22439   0.00000  Uiso   1.00
C677   C     0.59238   0.38040   0.72980   0.00000  Uiso   1.00
C678   C     0.89719   0.12968   0.28351   0.00000  Uiso   1.00
C679   C     0.65933   0.13159   0.76896   0.00000  Uiso   1.00
C680   C     0.87207   0.39912   0.28194   0.00000  Uiso   1.00
C681   C     0.89906   0.37162   0.28203   0.00000  Uiso   1.00
C682   C     0.97993   0.27134   0.53972   0.00000  Uiso   1.00
C683   C     0.63366   0.16015   0.76527   0.00000  Uiso   1.00
C684   C     0.87198   0.10050   0.28218   0.00000  Uiso   1.00
C685   C     0.62125   0.40558   0.72602   0.00000  Uiso   1.00
C686   C     0.62528   0.15309   0.22198   0.00000  Uiso   1.00
C687   C     0.89718   0.36974   0.71581   0.00000  Uiso   1.00
C688   C     0.61901   0.40844   0.26989   0.00000  Uiso   1.00
C689   C     0.87009   0.10286   0.71559   0.00000  Uiso   1.00
C690   C     0.59759   0.34858   0.24967   0.00000  Uiso   1.00
C691   C     0.90262   0.15088   0.74996   0.00000  Uiso   1.00
C692   C     0.65146   0.09791   0.24989   0.00000  Uiso   1.00
H693   H     0.72104   0.44751   0.02624   0.00000  Uiso   1.00
H694   H     0.51031   0.30538   0.47474   0.00000  Uiso   1.00
H695   H     0.90595   0.12796   0.65197   0.00000  Uiso   1.00
H696   H     0.91193   0.17118   0.67080   0.00000  Uiso   1.00
H697   H     0.56480   0.40163   0.34269   0.00000  Uiso   1.00
H698   H     0.55565   0.35459   0.33105   0.00000  Uiso   1.00
H699   H     0.51886   0.38733   0.33332   0.00000  Uiso   1.00
H700   H     0.54448   0.42019   0.27537   0.00000  Uiso   1.00
H701   H     0.53084   0.37619   0.26611   0.00000  Uiso   1.00
H702   H     0.88759   0.46659   0.64877   0.00000  Uiso   1.00
H703   H     0.89308   0.46845   0.70078   0.00000  Uiso   1.00
H704   H     0.92065   0.43820   0.67196   0.00000  Uiso   1.00
H705   H     0.80481   0.01536   0.52485   0.00000  Uiso   1.00
H706   H     0.86122   0.40450   0.65305   0.00000  Uiso   1.00
H707   H     0.83756   0.43600   0.67988   0.00000  Uiso   1.00
H708   H     0.72985   0.17736   0.19636   0.00000  Uiso   1.00
H709   H     0.72621   0.15662   0.24397   0.00000  Uiso   1.00
H710   H     0.69271   0.18894   0.22753   0.00000  Uiso   1.00
H711   H     0.70701   0.11044   0.19977   0.00000  Uiso   1.00
H712   H     0.68230   0.14035   0.17014   0.00000  Uiso   1.00
H713   H     0.51783   0.38727   0.76418   0.00000  Uiso   1.00
H714   H     0.54850   0.42561   0.76407   0.00000  Uiso   1.00
H715   H     0.51023   0.42514   0.73186   0.00000  Uiso   1.00
H716   H     0.70117   0.03687   0.47337   0.00000  Uiso   1.00
H717   H     0.55521   0.40683   0.68818   0.00000  Uiso   1.00
H718   H     0.54032   0.36432   0.70390   0.00000  Uiso   1.00
H719   H     0.87033   0.15665   0.35027   0.00000  Uiso   1.00
H720   H     0.90075   0.19216   0.33539   0.00000  Uiso   1.00
H721   H     0.91261   0.16383   0.37590   0.00000  Uiso   1.00
H722   H     0.92533   0.11225   0.33692   0.00000  Uiso   1.00
H723   H     0.94675   0.14814   0.31319   0.00000  Uiso   1.00
H724   H     0.75091   0.14815   0.79000   0.00000  Uiso   1.00
H725   H     0.72935   0.13960   0.74402   0.00000  Uiso   1.00
H726   H     0.72192   0.18208   0.76915   0.00000  Uiso   1.00
H727   H     0.54226   0.20411   0.52711   0.00000  Uiso   1.00
H728   H     0.68722   0.15114   0.82098   0.00000  Uiso   1.00
H729   H     0.70202   0.10855   0.80584   0.00000  Uiso   1.00
H730   H     0.89147   0.48092   0.32822   0.00000  Uiso   1.00
H731   H     0.88147   0.47455   0.27760   0.00000  Uiso   1.00
H732   H     0.92159   0.45380   0.29874   0.00000  Uiso   1.00
H733   H     0.84193   0.43596   0.32029   0.00000  Uiso   1.00
H734   H     0.87977   0.41655   0.34255   0.00000  Uiso   1.00
H735   H     0.88125   0.35565   0.35728   0.00000  Uiso   1.00
H736   H     0.90499   0.31618   0.33960   0.00000  Uiso   1.00
H737   H     0.92643   0.34539   0.37465   0.00000  Uiso   1.00
H738   H     0.99733   0.18969   0.47371   0.00000  Uiso   1.00
H739   H     0.95151   0.35477   0.30760   0.00000  Uiso   1.00
H740   H     0.93395   0.39447   0.32740   0.00000  Uiso   1.00
H741   H     0.67859   0.19763   0.72150   0.00000  Uiso   1.00
H742   H     0.63906   0.22642   0.71770   0.00000  Uiso   1.00
H743   H     0.67796   0.24072   0.74566   0.00000  Uiso   1.00
H744   H     0.62120   0.21567   0.78423   0.00000  Uiso   1.00
H745   H     0.66469   0.20110   0.79777   0.00000  Uiso   1.00
H746   H     0.82440   0.09568   0.34089   0.00000  Uiso   1.00
H747   H     0.84138   0.05533   0.36472   0.00000  Uiso   1.00
H748   H     0.86611   0.09703   0.36919   0.00000  Uiso   1.00
H749   H     0.69097   0.48964   0.52634   0.00000  Uiso   1.00
H750   H     0.86029   0.04475   0.30147   0.00000  Uiso   1.00
H751   H     0.89977   0.06222   0.32138   0.00000  Uiso   1.00
H752   H     0.57110   0.46331   0.71254   0.00000  Uiso   1.00
H753   H     0.61299   0.48052   0.73274   0.00000  Uiso   1.00
H754   H     0.60136   0.48843   0.68217   0.00000  Uiso   1.00
H755   H     0.64862   0.44252   0.68570   0.00000  Uiso   1.00
H756   H     0.60873   0.42345   0.66726   0.00000  Uiso   1.00
H757   H     0.62065   0.13524   0.14557   0.00000  Uiso   1.00
H758   H     0.57643   0.15234   0.15985   0.00000  Uiso   1.00
H759   H     0.60494   0.17845   0.12755   0.00000  Uiso   1.00
H760   H     0.79377   0.46545   0.47594   0.00000  Uiso   1.00
H761   H     0.60562   0.20378   0.19456   0.00000  Uiso   1.00
H762   H     0.64898   0.19081   0.17903   0.00000  Uiso   1.00
H763   H     0.97481   0.37419   0.65742   0.00000  Uiso   1.00
H764   H     0.96254   0.39996   0.69972   0.00000  Uiso   1.00
H765   H     0.97526   0.35263   0.70395   0.00000  Uiso   1.00
H766   H     0.91889   0.33333   0.67201   0.00000  Uiso   1.00
H767   H     0.91139   0.37685   0.65385   0.00000  Uiso   1.00
H768   H     0.66571   0.43790   0.32928   0.00000  Uiso   1.00
H769   H     0.62903   0.46132   0.35278   0.00000  Uiso   1.00
H770   H     0.62770   0.41241   0.34827   0.00000  Uiso   1.00
H771   H     0.73856   0.36745   0.26498   0.00000  Uiso   1.00
H772   H     0.62655   0.46654   0.27946   0.00000  Uiso   1.00
H773   H     0.58712   0.44972   0.30193   0.00000  Uiso   1.00
H774   H     0.92427   0.06714   0.66732   0.00000  Uiso   1.00
H775   H     0.90678   0.03952   0.70670   0.00000  Uiso   1.00
H776   H     0.89477   0.02992   0.65727   0.00000  Uiso   1.00
H777   H     0.84316   0.05804   0.68394   0.00000  Uiso   1.00
H778   H     0.86139   0.09130   0.65385   0.00000  Uiso   1.00
H779   H     0.68429   0.39346   0.09946   0.00000  Uiso   1.00
H780   H     0.71111   0.11772   0.90283   0.00000  Uiso   1.00
H781   H     0.62484   0.23867   0.09675   0.00000  Uiso   1.00
H782   H     0.70612   0.33203   0.27603   0.00000  Uiso   1.00
H783   H     0.61174   0.30141   0.90428   0.00000  Uiso   1.00
H784   H     0.81076   0.10668   0.09632   0.00000  Uiso   1.00
H785   H     0.77852   0.37811   0.90324   0.00000  Uiso   1.00
H786   H     0.87747   0.27218   0.09508   0.00000  Uiso   1.00
H787   H     0.89889   0.23477   0.85653   0.00000  Uiso   1.00
H788   H     0.93311   0.34966   0.59635   0.00000  Uiso   1.00
H789   H     0.51849   0.37206   0.40461   0.00000  Uiso   1.00
H790   H     0.86808   0.03719   0.59545   0.00000  Uiso   1.00
H791   H     0.65445   0.08070   0.39739   0.00000  Uiso   1.00
H792   H     0.54921   0.15999   0.64907   0.00000  Uiso   1.00
H793   H     0.74196   0.32410   0.24166   0.00000  Uiso   1.00
H794   H     0.98047   0.12613   0.40174   0.00000  Uiso   1.00
H795   H     0.62940   0.46691   0.59946   0.00000  Uiso   1.00
H796   H     0.81135   0.40798   0.37341   0.00000  Uiso   1.00
H797   H     0.73361   0.05497   0.97430   0.00000  Uiso   1.00
H798   H     0.69847   0.33797   0.19596   0.00000  Uiso   1.00
H799   H     0.71068   0.38270   0.20540   0.00000  Uiso   1.00
H800   H     0.85814   0.10256   0.87023   0.00000  Uiso   1.00
H801   H     0.85478   0.06464   0.83709   0.00000  Uiso   1.00
H802   H     0.81619   0.07830   0.86582   0.00000  Uiso   1.00
H803   H     0.82132   0.14175   0.82954   0.00000  Uiso   1.00
H804   H     0.80035   0.10519   0.80715   0.00000  Uiso   1.00
H805   H     0.51112   0.11305   0.32248   0.00000  Uiso   1.00
H806   H     0.52172   0.11768   0.27175   0.00000  Uiso   1.00
H807   H     0.53476   0.07710   0.29833   0.00000  Uiso   1.00
H808   H     0.55796   0.23715   0.02679   0.00000  Uiso   1.00
H809   H     0.57889   0.11276   0.33797   0.00000  Uiso   1.00
H810   H     0.56256   0.15351   0.31918   0.00000  Uiso   1.00
H811   H     0.85357   0.27595   0.83491   0.00000  Uiso   1.00
H812   H     0.86458   0.27709   0.78393   0.00000  Uiso   1.00
H813   H     0.82731   0.30410   0.80254   0.00000  Uiso   1.00
H814   H     0.90932   0.31352   0.82027   0.00000  Uiso   1.00
H815   H     0.87574   0.33738   0.84455   0.00000  Uiso   1.00
H816   H     0.77262   0.10734   0.20770   0.00000  Uiso   1.00
H817   H     0.78966   0.15333   0.21097   0.00000  Uiso   1.00
H818   H     0.77332   0.13590   0.16542   0.00000  Uiso   1.00
H819   H     0.54973   0.27736   0.97564   0.00000  Uiso   1.00
H820   H     0.83498   0.13018   0.15602   0.00000  Uiso   1.00
H821   H     0.82569   0.08660   0.17308   0.00000  Uiso   1.00
H822   H     0.65317   0.37983   0.84981   0.00000  Uiso   1.00
H823   H     0.68013   0.41805   0.83368   0.00000  Uiso   1.00
H824   H     0.70107   0.38187   0.86106   0.00000  Uiso   1.00
H825   H     0.69690   0.33980   0.80966   0.00000  Uiso   1.00
H826   H     0.71472   0.37931   0.78833   0.00000  Uiso   1.00
H827   H     0.85344   0.27812   0.15974   0.00000  Uiso   1.00
H828   H     0.84510   0.28548   0.21062   0.00000  Uiso   1.00
H829   H     0.82339   0.31346   0.17412   0.00000  Uiso   1.00
H830   H     0.77741   0.04968   0.02481   0.00000  Uiso   1.00
H831   H     0.88526   0.33903   0.15524   0.00000  Uiso   1.00
H832   H     0.90584   0.30708   0.18516   0.00000  Uiso   1.00
H833   H     0.50450   0.07864   0.73967   0.00000  Uiso   1.00
H834   H     0.52821   0.10274   0.77743   0.00000  Uiso   1.00
H835   H     0.54717   0.06134   0.75788   0.00000  Uiso   1.00
H836   H     0.53553   0.13366   0.71377   0.00000  Uiso   1.00
H837   H     0.55201   0.09430   0.69205   0.00000  Uiso   1.00
H838   H     0.60380   0.09291   0.65245   0.00000  Uiso   1.00
H839   H     0.65083   0.07925   0.65837   0.00000  Uiso   1.00
H840   H     0.61721   0.04666   0.64262   0.00000  Uiso   1.00
H841   H     0.76355   0.44232   0.97411   0.00000  Uiso   1.00
H842   H     0.63412   0.03747   0.71133   0.00000  Uiso   1.00
H843   H     0.58741   0.04706   0.70669   0.00000  Uiso   1.00
H844   H     0.78558   0.35474   0.20391   0.00000  Uiso   1.00
H845   H     0.77446   0.40247   0.19950   0.00000  Uiso   1.00
H846   H     0.77592   0.37449   0.15721   0.00000  Uiso   1.00
H847   H     0.83256   0.41709   0.17136   0.00000  Uiso   1.00
H848   H     0.83870   0.37321   0.15426   0.00000  Uiso   1.00
H849   H     0.60012   0.29915   0.82687   0.00000  Uiso   1.00
H850   H     0.63769   0.26821   0.83384   0.00000  Uiso   1.00
H851   H     0.64357   0.31581   0.84440   0.00000  Uiso   1.00
H852   H     0.94259   0.25542   0.02558   0.00000  Uiso   1.00
H853   H     0.62862   0.28188   0.76475   0.00000  Uiso   1.00
H854   H     0.67134   0.29672   0.77954   0.00000  Uiso   1.00
H855   H     0.83093   0.19121   0.17730   0.00000  Uiso   1.00
H856   H     0.86329   0.22015   0.20156   0.00000  Uiso   1.00
H857   H     0.86367   0.21604   0.14931   0.00000  Uiso   1.00
H858   H     0.91419   0.18284   0.17867   0.00000  Uiso   1.00
H859   H     0.88707   0.15343   0.15324   0.00000  Uiso   1.00
H860   H     0.87921   0.39929   0.85524   0.00000  Uiso   1.00
H861   H     0.85713   0.43916   0.83580   0.00000  Uiso   1.00
H862   H     0.83674   0.41460   0.87546   0.00000  Uiso   1.00
H863   H     0.94981   0.21668   0.97337   0.00000  Uiso   1.00
H864   H     0.80476   0.40154   0.81294   0.00000  Uiso   1.00
H865   H     0.82234   0.36239   0.83389   0.00000  Uiso   1.00
H866   H     0.56979   0.04962   0.25076   0.00000  Uiso   1.00
H867   H     0.60961   0.02191   0.24361   0.00000  Uiso   1.00
H868   H     0.57780   0.01133   0.28206   0.00000  Uiso   1.00
H869   H     0.63841   0.04311   0.30240   0.00000  Uiso   1.00
H870   H     0.59744   0.06001   0.32113   0.00000  Uiso   1.00
H871   H     0.91623   0.10286   0.84424   0.00000  Uiso   1.00
H872   H     0.95142   0.12980   0.82264   0.00000  Uiso   1.00
H873   H     0.93502   0.14092   0.87017   0.00000  Uiso   1.00
H874   H     0.96278   0.28957   0.52287   0.00000  Uiso   1.00
H875   H     0.90905   0.18400   0.82060   0.00000  Uiso   1.00
H876   H     0.87556   0.15986   0.84509   0.00000  Uiso   1.00
H877   H     0.68564   0.28217   0.23622   0.00000  Uiso   1.00
H878   H     0.64416   0.27356   0.26313   0.00000  Uiso   1.00
H879   H     0.65374   0.24917   0.21915   0.00000  Uiso   1.00
H880   H     0.60977   0.29338   0.20085   0.00000  Uiso   1.00
H881   H     0.65022   0.30936   0.18169   0.00000  Uiso   1.00
H882   H     0.97230   0.15686   0.69423   0.00000  Uiso   1.00
H883   H     0.96280   0.10873   0.69669   0.00000  Uiso   1.00
H884   H     0.96881   0.13114   0.65060   0.00000  Uiso   1.00
O885   O     0.75000   0.00000   0.25000   0.00000  Uiso   1.00
O886   O     0.75000   0.46964   0.66317   0.00000  Uiso   1.00
O887   O     0.96964   0.25000   0.33683   0.00000  Uiso   1.00
O888   O     0.53036   0.25000   0.66317   0.00000  Uiso   1.00
O889   O     0.50000   0.21964   0.83683   0.00000  Uiso   1.00
O890   O     0.50000   0.28036   0.16317   0.00000  Uiso   1.00
O891   O     0.78036   0.00000   0.83683   0.00000  Uiso   1.00
O892   O     0.71964   0.00000   0.16317   0.00000  Uiso   1.00
O893   O     0.50000   0.28036   0.83683   0.00000  Uiso   1.00
O894   O     0.50000   0.21964   0.16317   0.00000  Uiso   1.00
O895   O     0.71964   0.00000   0.83683   0.00000  Uiso   1.00
O896   O     0.75000   0.00000   0.75000   0.00000  Uiso   1.00
O897   O     0.78036   0.00000   0.16317   0.00000  Uiso   1.00
O898   O     0.70726   0.07307   0.27282   0.00000  Uiso   1.00
O899   O     0.79275   0.42693   0.72718   0.00000  Uiso   1.00
O900   O     0.92693   0.20726   0.27282   0.00000  Uiso   1.00
O901   O     0.57307   0.29275   0.72718   0.00000  Uiso   1.00
O902   O     0.79275   0.42693   0.27282   0.00000  Uiso   1.00
O903   O     0.70726   0.07307   0.72718   0.00000  Uiso   1.00
O904   O     0.57307   0.29275   0.27282   0.00000  Uiso   1.00
O905   O     0.92693   0.20726   0.72718   0.00000  Uiso   1.00
O906   O     0.70726   0.42693   0.72718   0.00000  Uiso   1.00
O907   O     0.50000   0.25000   0.25000   0.00000  Uiso   1.00
O908   O     0.79275   0.07307   0.27282   0.00000  Uiso   1.00
O909   O     0.92693   0.29275   0.72718   0.00000  Uiso   1.00
O910   O     0.57307   0.20726   0.27282   0.00000  Uiso   1.00
O911   O     0.79275   0.07307   0.72718   0.00000  Uiso   1.00
O912   O     0.70726   0.42693   0.27282   0.00000  Uiso   1.00
O913   O     0.57307   0.20726   0.72718   0.00000  Uiso   1.00
O914   O     0.92693   0.29275   0.27282   0.00000  Uiso   1.00
O915   O     0.95726   0.32307   0.77282   0.00000  Uiso   1.00
O916   O     0.54275   0.17693   0.22718   0.00000  Uiso   1.00
O917   O     0.67693   0.45726   0.77282   0.00000  Uiso   1.00
O918   O     0.50000   0.25000   0.75000   0.00000  Uiso   1.00
O919   O     0.82307   0.04275   0.22718   0.00000  Uiso   1.00
O920   O     0.54275   0.17693   0.77282   0.00000  Uiso   1.00
O921   O     0.95726   0.32307   0.22718   0.00000  Uiso   1.00
O922   O     0.82307   0.04275   0.77282   0.00000  Uiso   1.00
O923   O     0.67693   0.45726   0.22718   0.00000  Uiso   1.00
O924   O     0.95726   0.17693   0.22718   0.00000  Uiso   1.00
O925   O     0.54275   0.32307   0.77282   0.00000  Uiso   1.00
O926   O     0.67693   0.04275   0.22718   0.00000  Uiso   1.00
O927   O     0.82307   0.45726   0.77282   0.00000  Uiso   1.00
O928   O     0.54275   0.32307   0.22718   0.00000  Uiso   1.00
O929   O     0.75000   0.46964   0.33683   0.00000  Uiso   1.00
O930   O     0.95726   0.17693   0.77282   0.00000  Uiso   1.00
O931   O     0.82307   0.45726   0.22718   0.00000  Uiso   1.00
O932   O     0.67693   0.04275   0.77282   0.00000  Uiso   1.00
O933   O     0.72743   0.42858   0.13543   0.00000  Uiso   1.00
O934   O     0.69291   0.41478   0.08309   0.00000  Uiso   1.00
O935   O     0.74175   0.07303   0.86464   0.00000  Uiso   1.00
O936   O     0.71516   0.09490   0.91893   0.00000  Uiso   1.00
O937   O     0.57328   0.25065   0.13702   0.00000  Uiso   1.00
O938   O     0.60173   0.23772   0.08061   0.00000  Uiso   1.00
O939   O     0.55213   0.31092   0.87685   0.00000  Uiso   1.00
O940   O     0.75000   0.03036   0.66317   0.00000  Uiso   1.00
O941   O     0.59388   0.28335   0.91581   0.00000  Uiso   1.00
O942   O     0.76519   0.07259   0.13081   0.00000  Uiso   1.00
O943   O     0.80493   0.08353   0.08173   0.00000  Uiso   1.00
O944   O     0.75800   0.42726   0.86325   0.00000  Uiso   1.00
O945   O     0.77538   0.40077   0.91959   0.00000  Uiso   1.00
O946   O     0.92665   0.25302   0.13605   0.00000  Uiso   1.00
O947   O     0.90060   0.26976   0.07923   0.00000  Uiso   1.00
O948   O     0.91673   0.19879   0.91140   0.00000  Uiso   1.00
O949   O     0.92420   0.24222   0.86513   0.00000  Uiso   1.00
O950   O     0.92668   0.28747   0.61750   0.00000  Uiso   1.00
O951   O     0.53036   0.25000   0.33683   0.00000  Uiso   1.00
O952   O     0.95392   0.33453   0.58579   0.00000  Uiso   1.00
O953   O     0.99674   0.32292   0.36552   0.00000  Uiso   1.00
O954   O     0.51929   0.34854   0.42005   0.00000  Uiso   1.00
O955   O     0.82390   0.00459   0.63342   0.00000  Uiso   1.00
O956   O     0.84466   0.03441   0.58018   0.00000  Uiso   1.00
O957   O     0.67895   0.02792   0.36623   0.00000  Uiso   1.00
O958   O     0.67491   0.07016   0.41375   0.00000  Uiso   1.00
O959   O     0.57412   0.18445   0.59041   0.00000  Uiso   1.00
O960   O     0.53180   0.17878   0.63796   0.00000  Uiso   1.00
O961   O     0.99988   0.17632   0.36261   0.00000  Uiso   1.00
O962   O     0.96964   0.25000   0.66317   0.00000  Uiso   1.00
O963   O     0.98260   0.14871   0.41838   0.00000  Uiso   1.00
O964   O     0.67604   0.49594   0.63662   0.00000  Uiso   1.00
O965   O     0.65200   0.47022   0.58287   0.00000  Uiso   1.00
O966   O     0.83374   0.46276   0.40336   0.00000  Uiso   1.00
O967   O     0.79010   0.42334   0.38260   0.00000  Uiso   1.00
O968   O     0.75000   0.03036   0.33683   0.00000  Uiso   1.00
Zn969  Zn    0.70660   0.00000   0.21760   0.00000  Uiso   1.00
Zn970  Zn    0.54340   0.25000   0.28240   0.00000  Uiso   1.00
Zn971  Zn    0.75000   0.45660   0.71760   0.00000  Uiso   1.00
Zn972  Zn    0.75000   0.04340   0.28240   0.00000  Uiso   1.00
Zn973  Zn    0.54340   0.25000   0.71760   0.00000  Uiso   1.00
Zn974  Zn    0.95660   0.25000   0.28240   0.00000  Uiso   1.00
Zn975  Zn    0.75000   0.04340   0.71760   0.00000  Uiso   1.00
Zn976  Zn    0.75000   0.45660   0.28240   0.00000  Uiso   1.00
Zn977  Zn    0.79340   0.00000   0.78240   0.00000  Uiso   1.00
Zn978  Zn    0.50000   0.20660   0.21760   0.00000  Uiso   1.00
Zn979  Zn    0.50000   0.29340   0.78240   0.00000  Uiso   1.00
Zn980  Zn    0.79340   0.00000   0.21760   0.00000  Uiso   1.00
Zn981  Zn    0.70660   0.00000   0.78240   0.00000  Uiso   1.00
Zn982  Zn    0.50000   0.29340   0.21760   0.00000  Uiso   1.00
Zn983  Zn    0.50000   0.20660   0.78240   0.00000  Uiso   1.00
Zn984  Zn    0.95660   0.25000   0.71760   0.00000  Uiso   1.00
C985   C     0.23356   0.96974   0.04191   0.00000  Uiso   1.00
C986   C     0.00702   0.78051   0.45832   0.00000  Uiso   1.00
C987   C     0.34857   0.90240   0.74945   0.00000  Uiso   1.00
C988   C     0.40187   0.65184   0.24999   0.00000  Uiso   1.00
C989   C     0.09876   0.84752   0.75007   0.00000  Uiso   1.00
C990   C     0.34845   0.90230   0.24964   0.00000  Uiso   1.00
C991   C     0.15215   0.59829   0.75017   0.00000  Uiso   1.00
C992   C     0.09857   0.65232   0.75008   0.00000  Uiso   1.00
C993   C     0.40185   0.84811   0.24972   0.00000  Uiso   1.00
C994   C     0.15226   0.90158   0.75004   0.00000  Uiso   1.00
C995   C     0.34866   0.59749   0.24969   0.00000  Uiso   1.00
C996   C     0.40187   0.84804   0.74959   0.00000  Uiso   1.00
C997   C     0.28031   0.50952   0.54133   0.00000  Uiso   1.00
C998   C     0.09773   0.65185   0.25048   0.00000  Uiso   1.00
C999   C     0.34849   0.59751   0.74929   0.00000  Uiso   1.00
C1000  C     0.15240   0.90126   0.25087   0.00000  Uiso   1.00
C1001  C     0.24968   0.99908   0.10249   0.00000  Uiso   1.00
C1002  C     0.24973   0.99949   0.89722   0.00000  Uiso   1.00
C1003  C     0.00022   0.74989   0.10292   0.00000  Uiso   1.00
C1004  C     0.49951   0.75050   0.89774   0.00000  Uiso   1.00
C1005  C     0.49964   0.74751   0.60213   0.00000  Uiso   1.00
C1006  C     0.00049   0.74899   0.39720   0.00000  Uiso   1.00
C1007  C     0.24925   0.50062   0.60270   0.00000  Uiso   1.00
C1008  C     0.22154   0.52121   0.45793   0.00000  Uiso   1.00
C1009  C     0.24789   0.99934   0.39767   0.00000  Uiso   1.00
C1010  C     0.19815   0.85844   0.21926   0.00000  Uiso   1.00
C1011  C     0.22247   0.84482   0.25253   0.00000  Uiso   1.00
C1012  C     0.32746   0.61453   0.81737   0.00000  Uiso   1.00
C1013  C     0.34016   0.58843   0.84935   0.00000  Uiso   1.00
C1014  C     0.06803   0.62490   0.31086   0.00000  Uiso   1.00
C1015  C     0.03183   0.60705   0.29993   0.00000  Uiso   1.00
C1016  C     0.38165   0.82496   0.81611   0.00000  Uiso   1.00
C1017  C     0.35513   0.79365   0.80884   0.00000  Uiso   1.00
C1018  C     0.32656   0.61543   0.18235   0.00000  Uiso   1.00
C1019  C     0.02459   0.72300   0.54220   0.00000  Uiso   1.00
C1020  C     0.28829   0.62878   0.19239   0.00000  Uiso   1.00
C1021  C     0.18946   0.86788   0.80131   0.00000  Uiso   1.00
C1022  C     0.18030   0.88823   0.83861   0.00000  Uiso   1.00
C1023  C     0.38151   0.82476   0.18332   0.00000  Uiso   1.00
C1024  C     0.34877   0.79909   0.18208   0.00000  Uiso   1.00
C1025  C     0.05192   0.60898   0.71999   0.00000  Uiso   1.00
C1026  C     0.03182   0.58653   0.75063   0.00000  Uiso   1.00
C1027  C     0.11478   0.55952   0.70386   0.00000  Uiso   1.00
C1028  C     0.12202   0.57037   0.66178   0.00000  Uiso   1.00
C1029  C     0.32942   0.88816   0.18007   0.00000  Uiso   1.00
C1030  C     0.49982   0.71504   0.45775   0.00000  Uiso   1.00
C1031  C     0.28896   0.87943   0.18574   0.00000  Uiso   1.00
C1032  C     0.14189   0.80263   0.78305   0.00000  Uiso   1.00
C1033  C     0.13011   0.79624   0.82472   0.00000  Uiso   1.00
C1034  C     0.38696   0.67018   0.17985   0.00000  Uiso   1.00
C1035  C     0.35938   0.70118   0.17697   0.00000  Uiso   1.00
C1036  C     0.33105   0.88804   0.81964   0.00000  Uiso   1.00
C1037  C     0.35237   0.91164   0.84819   0.00000  Uiso   1.00
C1038  C     0.11300   0.55750   0.29387   0.00000  Uiso   1.00
C1039  C     0.09130   0.53368   0.26586   0.00000  Uiso   1.00
C1040  C     0.39773   0.65629   0.82377   0.00000  Uiso   1.00
C1041  C     0.21593   0.99499   0.54216   0.00000  Uiso   1.00
C1042  C     0.42678   0.63100   0.84116   0.00000  Uiso   1.00
C1043  C     0.13640   0.80492   0.20985   0.00000  Uiso   1.00
C1044  C     0.15623   0.77590   0.23373   0.00000  Uiso   1.00
C1045  C     0.41641   0.64203   0.67782   0.00000  Uiso   1.00
C1046  C     0.45746   0.63417   0.68024   0.00000  Uiso   1.00
C1047  C     0.05207   0.89159   0.28185   0.00000  Uiso   1.00
C1048  C     0.04781   0.88325   0.32490   0.00000  Uiso   1.00
C1049  C     0.36373   0.92117   0.67959   0.00000  Uiso   1.00
C1050  C     0.39321   0.95023   0.67519   0.00000  Uiso   1.00
C1051  C     0.18900   0.63463   0.20090   0.00000  Uiso   1.00
C1052  C     0.27390   0.98106   0.45952   0.00000  Uiso   1.00
C1053  C     0.21068   0.66626   0.21825   0.00000  Uiso   1.00
C1054  C     0.05442   0.88918   0.71418   0.00000  Uiso   1.00
C1055  C     0.03145   0.90778   0.74548   0.00000  Uiso   1.00
C1056  C     0.41929   0.63727   0.32025   0.00000  Uiso   1.00
C1057  C     0.39950   0.66402   0.34690   0.00000  Uiso   1.00
C1058  C     0.19333   0.63547   0.79436   0.00000  Uiso   1.00
C1059  C     0.22564   0.65236   0.77283   0.00000  Uiso   1.00
C1060  C     0.37032   0.92742   0.31435   0.00000  Uiso   1.00
C1061  C     0.39263   0.96119   0.30398   0.00000  Uiso   1.00
C1062  C     0.42534   0.86757   0.31624   0.00000  Uiso   1.00
C1063  C     0.23395   0.96919   0.08248   0.00000  Uiso   1.00
C1064  C     0.40838   0.84487   0.34884   0.00000  Uiso   1.00
C1065  C     0.14467   0.69929   0.77390   0.00000  Uiso   1.00
C1066  C     0.16096   0.71701   0.73754   0.00000  Uiso   1.00
C1067  C     0.37169   0.57043   0.31317   0.00000  Uiso   1.00
C1068  C     0.34952   0.58052   0.34902   0.00000  Uiso   1.00
C1069  C     0.12058   0.93456   0.69434   0.00000  Uiso   1.00
C1070  C     0.10020   0.96870   0.70651   0.00000  Uiso   1.00
C1071  C     0.12223   0.67942   0.18767   0.00000  Uiso   1.00
C1072  C     0.10501   0.66012   0.15310   0.00000  Uiso   1.00
C1073  C     0.42077   0.86238   0.68000   0.00000  Uiso   1.00
C1074  C     0.24118   0.53184   0.91772   0.00000  Uiso   1.00
C1075  C     0.46071   0.87292   0.68586   0.00000  Uiso   1.00
C1076  C     0.11557   0.94251   0.29501   0.00000  Uiso   1.00
C1077  C     0.13578   0.93810   0.33356   0.00000  Uiso   1.00
C1078  C     0.36674   0.57659   0.68137   0.00000  Uiso   1.00
C1079  C     0.40027   0.55201   0.67814   0.00000  Uiso   1.00
C1080  C     0.21811   0.93674   0.10251   0.00000  Uiso   1.00
C1081  C     0.23286   0.56738   0.89827   0.00000  Uiso   1.00
C1082  C     0.07025   0.74450   0.10239   0.00000  Uiso   1.00
C1083  C     0.05844   0.78777   0.90148   0.00000  Uiso   1.00
C1084  C     0.27832   0.56239   0.10020   0.00000  Uiso   1.00
C1085  C     0.03373   0.74514   0.08285   0.00000  Uiso   1.00
C1086  C     0.26351   0.93084   0.89793   0.00000  Uiso   1.00
C1087  C     0.43063   0.75863   0.10138   0.00000  Uiso   1.00
C1088  C     0.43593   0.72291   0.89783   0.00000  Uiso   1.00
C1089  C     0.45164   0.79793   0.59682   0.00000  Uiso   1.00
C1090  C     0.00675   0.81857   0.39900   0.00000  Uiso   1.00
C1091  C     0.31756   0.51563   0.60064   0.00000  Uiso   1.00
C1092  C     0.19078   0.53938   0.39697   0.00000  Uiso   1.00
C1093  C     0.04492   0.69455   0.60376   0.00000  Uiso   1.00
C1094  C     0.49364   0.67937   0.39722   0.00000  Uiso   1.00
C1095  C     0.18061   0.98690   0.60293   0.00000  Uiso   1.00
C1096  C     0.24052   0.53068   0.95821   0.00000  Uiso   1.00
C1097  C     0.02829   0.76664   0.91913   0.00000  Uiso   1.00
C1098  C     0.30131   0.95535   0.40082   0.00000  Uiso   1.00
C1099  C     0.26479   0.52869   0.08142   0.00000  Uiso   1.00
C1100  C     0.25698   0.96649   0.91754   0.00000  Uiso   1.00
C1101  C     0.46683   0.75324   0.08225   0.00000  Uiso   1.00
C1102  C     0.47025   0.73355   0.91769   0.00000  Uiso   1.00
C1103  C     0.47745   0.77151   0.57993   0.00000  Uiso   1.00
C1104  C     0.00489   0.78199   0.41796   0.00000  Uiso   1.00
C1105  C     0.28166   0.50856   0.58177   0.00000  Uiso   1.00
C1106  C     0.22095   0.52006   0.41738   0.00000  Uiso   1.00
C1107  C     0.02300   0.72252   0.58280   0.00000  Uiso   1.00
C1108  C     0.03287   0.74194   0.04251   0.00000  Uiso   1.00
C1109  C     0.49808   0.71513   0.41722   0.00000  Uiso   1.00
C1110  C     0.21595   0.99415   0.58274   0.00000  Uiso   1.00
C1111  C     0.27390   0.97914   0.41921   0.00000  Uiso   1.00
C1112  C     0.24934   0.99850   0.02114   0.00000  Uiso   1.00
C1113  C     0.24892   0.99866   0.97844   0.00000  Uiso   1.00
C1114  C     0.00021   0.74556   0.02185   0.00000  Uiso   1.00
C1115  C     0.00056   0.74557   0.97910   0.00000  Uiso   1.00
C1116  C     0.00326   0.74734   0.52075   0.00000  Uiso   1.00
C1117  C     0.00417   0.74745   0.47822   0.00000  Uiso   1.00
C1118  C     0.24787   0.50252   0.52153   0.00000  Uiso   1.00
C1119  C     0.02841   0.76380   0.95940   0.00000  Uiso   1.00
C1120  C     0.24786   0.50188   0.47897   0.00000  Uiso   1.00
C1121  C     0.24982   0.99983   0.35517   0.00000  Uiso   1.00
C1122  C     0.24997   0.50012   0.64498   0.00000  Uiso   1.00
C1123  C     0.00006   0.74979   0.35500   0.00000  Uiso   1.00
C1124  C     0.49990   0.74980   0.64472   0.00000  Uiso   1.00
C1125  C     0.00049   0.75009   0.85519   0.00000  Uiso   1.00
C1126  C     0.49999   0.75005   0.14506   0.00000  Uiso   1.00
C1127  C     0.24997   0.99997   0.85501   0.00000  Uiso   1.00
C1128  C     0.24995   0.99969   0.14489   0.00000  Uiso   1.00
C1129  C     0.17984   0.56990   0.25005   0.00000  Uiso   1.00
C1130  C     0.26528   0.52745   0.04104   0.00000  Uiso   1.00
C1131  C     0.32033   0.93039   0.74957   0.00000  Uiso   1.00
C1132  C     0.42994   0.68007   0.25000   0.00000  Uiso   1.00
C1133  C     0.07039   0.81959   0.75044   0.00000  Uiso   1.00
C1134  C     0.32015   0.93018   0.25007   0.00000  Uiso   1.00
C1135  C     0.18014   0.57009   0.75011   0.00000  Uiso   1.00
C1136  C     0.06951   0.82045   0.25052   0.00000  Uiso   1.00
C1137  C     0.42990   0.67997   0.75024   0.00000  Uiso   1.00
C1138  C     0.18007   0.92998   0.75008   0.00000  Uiso   1.00
C1139  C     0.32008   0.56985   0.24994   0.00000  Uiso   1.00
C1140  C     0.42985   0.81980   0.75007   0.00000  Uiso   1.00
C1141  C     0.25711   0.96692   0.95807   0.00000  Uiso   1.00
C1142  C     0.06966   0.67983   0.25045   0.00000  Uiso   1.00
C1143  C     0.32024   0.56967   0.74956   0.00000  Uiso   1.00
C1144  C     0.18029   0.92968   0.24986   0.00000  Uiso   1.00
C1145  C     0.07038   0.68036   0.75046   0.00000  Uiso   1.00
C1146  C     0.42994   0.81995   0.24992   0.00000  Uiso   1.00
C1147  C     0.15966   0.86708   0.23354   0.00000  Uiso   1.00
C1148  C     0.35452   0.61749   0.78358   0.00000  Uiso   1.00
C1149  C     0.09610   0.62340   0.27814   0.00000  Uiso   1.00
C1150  C     0.37985   0.85267   0.78286   0.00000  Uiso   1.00
C1151  C     0.35273   0.62001   0.21656   0.00000  Uiso   1.00
C1152  C     0.46760   0.75162   0.04181   0.00000  Uiso   1.00
C1153  C     0.15765   0.86981   0.77265   0.00000  Uiso   1.00
C1154  C     0.37871   0.85181   0.21691   0.00000  Uiso   1.00
C1155  C     0.09056   0.61804   0.73369   0.00000  Uiso   1.00
C1156  C     0.11891   0.59217   0.73047   0.00000  Uiso   1.00
C1157  C     0.35242   0.88015   0.21635   0.00000  Uiso   1.00
C1158  C     0.13251   0.84081   0.76884   0.00000  Uiso   1.00
C1159  C     0.38067   0.64660   0.21603   0.00000  Uiso   1.00
C1160  C     0.35364   0.88086   0.78321   0.00000  Uiso   1.00
C1161  C     0.12108   0.59418   0.27495   0.00000  Uiso   1.00
C1162  C     0.38432   0.64169   0.78497   0.00000  Uiso   1.00
C1163  C     0.47184   0.73015   0.95808   0.00000  Uiso   1.00
C1164  C     0.13155   0.84067   0.23206   0.00000  Uiso   1.00
C1165  C     0.39579   0.63174   0.71505   0.00000  Uiso   1.00
C1166  C     0.09042   0.88270   0.26717   0.00000  Uiso   1.00
C1167  C     0.36985   0.89712   0.71554   0.00000  Uiso   1.00
C1168  C     0.15445   0.62804   0.22439   0.00000  Uiso   1.00
C1169  C     0.09238   0.88040   0.72980   0.00000  Uiso   1.00
C1170  C     0.39719   0.62968   0.28351   0.00000  Uiso   1.00
C1171  C     0.15933   0.63159   0.76896   0.00000  Uiso   1.00
C1172  C     0.37207   0.89912   0.28194   0.00000  Uiso   1.00
C1173  C     0.39906   0.87162   0.28203   0.00000  Uiso   1.00
C1174  C     0.47993   0.77134   0.53972   0.00000  Uiso   1.00
C1175  C     0.13366   0.66015   0.76527   0.00000  Uiso   1.00
C1176  C     0.37198   0.60050   0.28218   0.00000  Uiso   1.00
C1177  C     0.12125   0.90558   0.72602   0.00000  Uiso   1.00
C1178  C     0.12528   0.65309   0.22198   0.00000  Uiso   1.00
C1179  C     0.39718   0.86974   0.71581   0.00000  Uiso   1.00
C1180  C     0.11901   0.90844   0.26989   0.00000  Uiso   1.00
C1181  C     0.37009   0.60286   0.71559   0.00000  Uiso   1.00
C1182  C     0.09759   0.84858   0.24967   0.00000  Uiso   1.00
C1183  C     0.40262   0.65088   0.74996   0.00000  Uiso   1.00
C1184  C     0.15146   0.59791   0.24989   0.00000  Uiso   1.00
H1185  H     0.22104   0.94751   0.02624   0.00000  Uiso   1.00
H1186  H     0.01031   0.80538   0.47474   0.00000  Uiso   1.00
H1187  H     0.40595   0.62796   0.65197   0.00000  Uiso   1.00
H1188  H     0.41193   0.67118   0.67080   0.00000  Uiso   1.00
H1189  H     0.06480   0.90163   0.34269   0.00000  Uiso   1.00
H1190  H     0.05565   0.85459   0.33105   0.00000  Uiso   1.00
H1191  H     0.01886   0.88733   0.33332   0.00000  Uiso   1.00
H1192  H     0.04448   0.92019   0.27537   0.00000  Uiso   1.00
H1193  H     0.03084   0.87619   0.26611   0.00000  Uiso   1.00
H1194  H     0.38759   0.96659   0.64877   0.00000  Uiso   1.00
H1195  H     0.39308   0.96845   0.70078   0.00000  Uiso   1.00
H1196  H     0.42065   0.93820   0.67196   0.00000  Uiso   1.00
H1197  H     0.30481   0.51536   0.52485   0.00000  Uiso   1.00
H1198  H     0.36122   0.90450   0.65305   0.00000  Uiso   1.00
H1199  H     0.33756   0.93600   0.67988   0.00000  Uiso   1.00
H1200  H     0.22985   0.67736   0.19636   0.00000  Uiso   1.00
H1201  H     0.22621   0.65662   0.24397   0.00000  Uiso   1.00
H1202  H     0.19271   0.68894   0.22753   0.00000  Uiso   1.00
H1203  H     0.20701   0.61044   0.19977   0.00000  Uiso   1.00
H1204  H     0.18230   0.64035   0.17014   0.00000  Uiso   1.00
H1205  H     0.01783   0.88727   0.76418   0.00000  Uiso   1.00
H1206  H     0.04850   0.92561   0.76407   0.00000  Uiso   1.00
H1207  H     0.01023   0.92514   0.73186   0.00000  Uiso   1.00
H1208  H     0.20117   0.53687   0.47337   0.00000  Uiso   1.00
H1209  H     0.05521   0.90683   0.68818   0.00000  Uiso   1.00
H1210  H     0.04032   0.86432   0.70390   0.00000  Uiso   1.00
H1211  H     0.37033   0.65665   0.35027   0.00000  Uiso   1.00
H1212  H     0.40075   0.69216   0.33539   0.00000  Uiso   1.00
H1213  H     0.41261   0.66383   0.37590   0.00000  Uiso   1.00
H1214  H     0.42533   0.61225   0.33692   0.00000  Uiso   1.00
H1215  H     0.44675   0.64814   0.31319   0.00000  Uiso   1.00
H1216  H     0.25091   0.64815   0.79000   0.00000  Uiso   1.00
H1217  H     0.22935   0.63960   0.74402   0.00000  Uiso   1.00
H1218  H     0.22192   0.68208   0.76915   0.00000  Uiso   1.00
H1219  H     0.04226   0.70411   0.52711   0.00000  Uiso   1.00
H1220  H     0.18722   0.65114   0.82098   0.00000  Uiso   1.00
H1221  H     0.20202   0.60855   0.80584   0.00000  Uiso   1.00
H1222  H     0.39147   0.98092   0.32822   0.00000  Uiso   1.00
H1223  H     0.38147   0.97455   0.27760   0.00000  Uiso   1.00
H1224  H     0.42159   0.95380   0.29874   0.00000  Uiso   1.00
H1225  H     0.34193   0.93596   0.32029   0.00000  Uiso   1.00
H1226  H     0.37977   0.91655   0.34255   0.00000  Uiso   1.00
H1227  H     0.38125   0.85565   0.35728   0.00000  Uiso   1.00
H1228  H     0.40499   0.81618   0.33960   0.00000  Uiso   1.00
H1229  H     0.42643   0.84539   0.37465   0.00000  Uiso   1.00
H1230  H     0.49733   0.68969   0.47371   0.00000  Uiso   1.00
H1231  H     0.45151   0.85477   0.30760   0.00000  Uiso   1.00
H1232  H     0.43395   0.89447   0.32740   0.00000  Uiso   1.00
H1233  H     0.17859   0.69763   0.72150   0.00000  Uiso   1.00
H1234  H     0.13906   0.72642   0.71770   0.00000  Uiso   1.00
H1235  H     0.17796   0.74072   0.74566   0.00000  Uiso   1.00
H1236  H     0.12120   0.71567   0.78423   0.00000  Uiso   1.00
H1237  H     0.16469   0.70110   0.79777   0.00000  Uiso   1.00
H1238  H     0.32440   0.59568   0.34089   0.00000  Uiso   1.00
H1239  H     0.34138   0.55533   0.36472   0.00000  Uiso   1.00
H1240  H     0.36611   0.59703   0.36919   0.00000  Uiso   1.00
H1241  H     0.19097   0.98964   0.52634   0.00000  Uiso   1.00
H1242  H     0.36029   0.54475   0.30147   0.00000  Uiso   1.00
H1243  H     0.39977   0.56222   0.32138   0.00000  Uiso   1.00
H1244  H     0.07110   0.96331   0.71254   0.00000  Uiso   1.00
H1245  H     0.11299   0.98052   0.73274   0.00000  Uiso   1.00
H1246  H     0.10136   0.98843   0.68217   0.00000  Uiso   1.00
H1247  H     0.14862   0.94252   0.68570   0.00000  Uiso   1.00
H1248  H     0.10873   0.92345   0.66726   0.00000  Uiso   1.00
H1249  H     0.12065   0.63524   0.14557   0.00000  Uiso   1.00
H1250  H     0.07643   0.65234   0.15985   0.00000  Uiso   1.00
H1251  H     0.10494   0.67845   0.12755   0.00000  Uiso   1.00
H1252  H     0.29377   0.96545   0.47594   0.00000  Uiso   1.00
H1253  H     0.10562   0.70378   0.19456   0.00000  Uiso   1.00
H1254  H     0.14898   0.69081   0.17903   0.00000  Uiso   1.00
H1255  H     0.47481   0.87419   0.65742   0.00000  Uiso   1.00
H1256  H     0.46254   0.89996   0.69972   0.00000  Uiso   1.00
H1257  H     0.47526   0.85263   0.70395   0.00000  Uiso   1.00
H1258  H     0.41889   0.83333   0.67201   0.00000  Uiso   1.00
H1259  H     0.41139   0.87685   0.65385   0.00000  Uiso   1.00
H1260  H     0.16571   0.93790   0.32928   0.00000  Uiso   1.00
H1261  H     0.12903   0.96132   0.35278   0.00000  Uiso   1.00
H1262  H     0.12770   0.91241   0.34827   0.00000  Uiso   1.00
H1263  H     0.23856   0.86745   0.26498   0.00000  Uiso   1.00
H1264  H     0.12655   0.96654   0.27946   0.00000  Uiso   1.00
H1265  H     0.08712   0.94972   0.30193   0.00000  Uiso   1.00
H1266  H     0.42427   0.56714   0.66732   0.00000  Uiso   1.00
H1267  H     0.40678   0.53952   0.70670   0.00000  Uiso   1.00
H1268  H     0.39477   0.52992   0.65727   0.00000  Uiso   1.00
H1269  H     0.34316   0.55804   0.68394   0.00000  Uiso   1.00
H1270  H     0.36139   0.59130   0.65385   0.00000  Uiso   1.00
H1271  H     0.18429   0.89346   0.09946   0.00000  Uiso   1.00
H1272  H     0.21111   0.61772   0.90283   0.00000  Uiso   1.00
H1273  H     0.12484   0.73867   0.09675   0.00000  Uiso   1.00
H1274  H     0.20612   0.83203   0.27603   0.00000  Uiso   1.00
H1275  H     0.11174   0.80141   0.90428   0.00000  Uiso   1.00
H1276  H     0.31076   0.60668   0.09632   0.00000  Uiso   1.00
H1277  H     0.27852   0.87811   0.90324   0.00000  Uiso   1.00
H1278  H     0.37747   0.77218   0.09508   0.00000  Uiso   1.00
H1279  H     0.39889   0.73477   0.85653   0.00000  Uiso   1.00
H1280  H     0.43311   0.84966   0.59635   0.00000  Uiso   1.00
H1281  H     0.01849   0.87206   0.40461   0.00000  Uiso   1.00
H1282  H     0.36808   0.53719   0.59545   0.00000  Uiso   1.00
H1283  H     0.15445   0.58070   0.39739   0.00000  Uiso   1.00
H1284  H     0.04921   0.65999   0.64907   0.00000  Uiso   1.00
H1285  H     0.24196   0.82410   0.24166   0.00000  Uiso   1.00
H1286  H     0.48047   0.62613   0.40174   0.00000  Uiso   1.00
H1287  H     0.12940   0.96691   0.59946   0.00000  Uiso   1.00
H1288  H     0.31135   0.90798   0.37341   0.00000  Uiso   1.00
H1289  H     0.23361   0.55497   0.97430   0.00000  Uiso   1.00
H1290  H     0.19847   0.83797   0.19596   0.00000  Uiso   1.00
H1291  H     0.21068   0.88270   0.20540   0.00000  Uiso   1.00
H1292  H     0.35814   0.60256   0.87023   0.00000  Uiso   1.00
H1293  H     0.35478   0.56464   0.83709   0.00000  Uiso   1.00
H1294  H     0.31619   0.57830   0.86582   0.00000  Uiso   1.00
H1295  H     0.32132   0.64175   0.82954   0.00000  Uiso   1.00
H1296  H     0.30035   0.60519   0.80715   0.00000  Uiso   1.00
H1297  H     0.01112   0.61305   0.32248   0.00000  Uiso   1.00
H1298  H     0.02172   0.61768   0.27175   0.00000  Uiso   1.00
H1299  H     0.03476   0.57710   0.29833   0.00000  Uiso   1.00
H1300  H     0.05796   0.73715   0.02679   0.00000  Uiso   1.00
H1301  H     0.07889   0.61276   0.33797   0.00000  Uiso   1.00
H1302  H     0.06256   0.65351   0.31918   0.00000  Uiso   1.00
H1303  H     0.35357   0.77595   0.83491   0.00000  Uiso   1.00
H1304  H     0.36458   0.77709   0.78393   0.00000  Uiso   1.00
H1305  H     0.32731   0.80410   0.80254   0.00000  Uiso   1.00
H1306  H     0.40932   0.81352   0.82027   0.00000  Uiso   1.00
H1307  H     0.37574   0.83738   0.84455   0.00000  Uiso   1.00
H1308  H     0.27262   0.60734   0.20770   0.00000  Uiso   1.00
H1309  H     0.28966   0.65333   0.21097   0.00000  Uiso   1.00
H1310  H     0.27332   0.63590   0.16542   0.00000  Uiso   1.00
H1311  H     0.04973   0.77736   0.97564   0.00000  Uiso   1.00
H1312  H     0.33498   0.63018   0.15602   0.00000  Uiso   1.00
H1313  H     0.32569   0.58660   0.17308   0.00000  Uiso   1.00
H1314  H     0.15317   0.87983   0.84981   0.00000  Uiso   1.00
H1315  H     0.18013   0.91805   0.83368   0.00000  Uiso   1.00
H1316  H     0.20107   0.88187   0.86106   0.00000  Uiso   1.00
H1317  H     0.19690   0.83980   0.80966   0.00000  Uiso   1.00
H1318  H     0.21472   0.87931   0.78833   0.00000  Uiso   1.00
H1319  H     0.35344   0.77812   0.15974   0.00000  Uiso   1.00
H1320  H     0.34510   0.78548   0.21062   0.00000  Uiso   1.00
H1321  H     0.32339   0.81346   0.17412   0.00000  Uiso   1.00
H1322  H     0.27741   0.54968   0.02481   0.00000  Uiso   1.00
H1323  H     0.38526   0.83903   0.15524   0.00000  Uiso   1.00
H1324  H     0.40584   0.80708   0.18516   0.00000  Uiso   1.00
H1325  H     0.00450   0.57864   0.73967   0.00000  Uiso   1.00
H1326  H     0.02821   0.60274   0.77743   0.00000  Uiso   1.00
H1327  H     0.04717   0.56134   0.75788   0.00000  Uiso   1.00
H1328  H     0.03553   0.63366   0.71377   0.00000  Uiso   1.00
H1329  H     0.05201   0.59430   0.69205   0.00000  Uiso   1.00
H1330  H     0.10380   0.59291   0.65245   0.00000  Uiso   1.00
H1331  H     0.15083   0.57925   0.65837   0.00000  Uiso   1.00
H1332  H     0.11721   0.54666   0.64262   0.00000  Uiso   1.00
H1333  H     0.26355   0.94232   0.97411   0.00000  Uiso   1.00
H1334  H     0.13412   0.53747   0.71133   0.00000  Uiso   1.00
H1335  H     0.08741   0.54706   0.70669   0.00000  Uiso   1.00
H1336  H     0.28558   0.85474   0.20391   0.00000  Uiso   1.00
H1337  H     0.27446   0.90247   0.19950   0.00000  Uiso   1.00
H1338  H     0.27592   0.87449   0.15721   0.00000  Uiso   1.00
H1339  H     0.33256   0.91709   0.17136   0.00000  Uiso   1.00
H1340  H     0.33870   0.87321   0.15426   0.00000  Uiso   1.00
H1341  H     0.10012   0.79915   0.82687   0.00000  Uiso   1.00
H1342  H     0.13769   0.76821   0.83384   0.00000  Uiso   1.00
H1343  H     0.14357   0.81581   0.84440   0.00000  Uiso   1.00
H1344  H     0.44259   0.75542   0.02558   0.00000  Uiso   1.00
H1345  H     0.12862   0.78188   0.76475   0.00000  Uiso   1.00
H1346  H     0.17134   0.79672   0.77954   0.00000  Uiso   1.00
H1347  H     0.33093   0.69121   0.17730   0.00000  Uiso   1.00
H1348  H     0.36329   0.72015   0.20156   0.00000  Uiso   1.00
H1349  H     0.36367   0.71604   0.14931   0.00000  Uiso   1.00
H1350  H     0.41419   0.68284   0.17867   0.00000  Uiso   1.00
H1351  H     0.38707   0.65343   0.15324   0.00000  Uiso   1.00
H1352  H     0.37921   0.89929   0.85524   0.00000  Uiso   1.00
H1353  H     0.35713   0.93916   0.83580   0.00000  Uiso   1.00
H1354  H     0.33674   0.91460   0.87546   0.00000  Uiso   1.00
H1355  H     0.44981   0.71668   0.97337   0.00000  Uiso   1.00
H1356  H     0.30476   0.90154   0.81294   0.00000  Uiso   1.00
H1357  H     0.32234   0.86239   0.83389   0.00000  Uiso   1.00
H1358  H     0.06979   0.54962   0.25076   0.00000  Uiso   1.00
H1359  H     0.10961   0.52191   0.24361   0.00000  Uiso   1.00
H1360  H     0.07780   0.51133   0.28206   0.00000  Uiso   1.00
H1361  H     0.13841   0.54311   0.30240   0.00000  Uiso   1.00
H1362  H     0.09744   0.56001   0.32113   0.00000  Uiso   1.00
H1363  H     0.41623   0.60286   0.84424   0.00000  Uiso   1.00
H1364  H     0.45142   0.62980   0.82264   0.00000  Uiso   1.00
H1365  H     0.43502   0.64092   0.87017   0.00000  Uiso   1.00
H1366  H     0.46278   0.78957   0.52287   0.00000  Uiso   1.00
H1367  H     0.40905   0.68400   0.82060   0.00000  Uiso   1.00
H1368  H     0.37556   0.65986   0.84509   0.00000  Uiso   1.00
H1369  H     0.18564   0.78217   0.23622   0.00000  Uiso   1.00
H1370  H     0.14416   0.77356   0.26313   0.00000  Uiso   1.00
H1371  H     0.15374   0.74917   0.21915   0.00000  Uiso   1.00
H1372  H     0.10977   0.79338   0.20085   0.00000  Uiso   1.00
H1373  H     0.15022   0.80936   0.18169   0.00000  Uiso   1.00
H1374  H     0.47230   0.65686   0.69423   0.00000  Uiso   1.00
H1375  H     0.46280   0.60873   0.69669   0.00000  Uiso   1.00
H1376  H     0.46881   0.63114   0.65060   0.00000  Uiso   1.00
O1377  O     0.25000   0.50000   0.25000   0.00000  Uiso   1.00
O1378  O     0.25000   0.96964   0.66317   0.00000  Uiso   1.00
O1379  O     0.46964   0.75000   0.33683   0.00000  Uiso   1.00
O1380  O     0.03036   0.75000   0.66317   0.00000  Uiso   1.00
O1381  O     0.00000   0.71964   0.83683   0.00000  Uiso   1.00
O1382  O     0.00000   0.78036   0.16317   0.00000  Uiso   1.00
O1383  O     0.28036   0.50000   0.83683   0.00000  Uiso   1.00
O1384  O     0.21964   0.50000   0.16317   0.00000  Uiso   1.00
O1385  O     0.00000   0.78036   0.83683   0.00000  Uiso   1.00
O1386  O     0.00000   0.71964   0.16317   0.00000  Uiso   1.00
O1387  O     0.21964   0.50000   0.83683   0.00000  Uiso   1.00
O1388  O     0.25000   0.50000   0.75000   0.00000  Uiso   1.00
O1389  O     0.28036   0.50000   0.16317   0.00000  Uiso   1.00
O1390  O     0.20726   0.57307   0.27282   0.00000  Uiso   1.00
O1391  O     0.29275   0.92693   0.72718   0.00000  Uiso   1.00
O1392  O     0.42693   0.70726   0.27282   0.00000  Uiso   1.00
O1393  O     0.07307   0.79275   0.72718   0.00000  Uiso   1.00
O1394  O     0.29275   0.92693   0.27282   0.00000  Uiso   1.00
O1395  O     0.20726   0.57307   0.72718   0.00000  Uiso   1.00
O1396  O     0.07307   0.79275   0.27282   0.00000  Uiso   1.00
O1397  O     0.42693   0.70726   0.72718   0.00000  Uiso   1.00
O1398  O     0.20726   0.92693   0.72718   0.00000  Uiso   1.00
O1399  O     0.00000   0.75000   0.25000   0.00000  Uiso   1.00
O1400  O     0.29275   0.57307   0.27282   0.00000  Uiso   1.00
O1401  O     0.42693   0.79275   0.72718   0.00000  Uiso   1.00
O1402  O     0.07307   0.70726   0.27282   0.00000  Uiso   1.00
O1403  O     0.29275   0.57307   0.72718   0.00000  Uiso   1.00
O1404  O     0.20726   0.92693   0.27282   0.00000  Uiso   1.00
O1405  O     0.07307   0.70726   0.72718   0.00000  Uiso   1.00
O1406  O     0.42693   0.79275   0.27282   0.00000  Uiso   1.00
O1407  O     0.45726   0.82307   0.77282   0.00000  Uiso   1.00
O1408  O     0.04275   0.67693   0.22718   0.00000  Uiso   1.00
O1409  O     0.17693   0.95726   0.77282   0.00000  Uiso   1.00
O1410  O     0.00000   0.75000   0.75000   0.00000  Uiso   1.00
O1411  O     0.32307   0.54275   0.22718   0.00000  Uiso   1.00
O1412  O     0.04275   0.67693   0.77282   0.00000  Uiso   1.00
O1413  O     0.45726   0.82307   0.22718   0.00000  Uiso   1.00
O1414  O     0.32307   0.54275   0.77282   0.00000  Uiso   1.00
O1415  O     0.17693   0.95726   0.22718   0.00000  Uiso   1.00
O1416  O     0.45726   0.67693   0.22718   0.00000  Uiso   1.00
O1417  O     0.04275   0.82307   0.77282   0.00000  Uiso   1.00
O1418  O     0.17693   0.54275   0.22718   0.00000  Uiso   1.00
O1419  O     0.32307   0.95726   0.77282   0.00000  Uiso   1.00
O1420  O     0.04275   0.82307   0.22718   0.00000  Uiso   1.00
O1421  O     0.25000   0.96964   0.33683   0.00000  Uiso   1.00
O1422  O     0.45726   0.67693   0.77282   0.00000  Uiso   1.00
O1423  O     0.32307   0.95726   0.22718   0.00000  Uiso   1.00
O1424  O     0.17693   0.54275   0.77282   0.00000  Uiso   1.00
O1425  O     0.22743   0.92858   0.13543   0.00000  Uiso   1.00
O1426  O     0.19291   0.91478   0.08309   0.00000  Uiso   1.00
O1427  O     0.24175   0.57303   0.86464   0.00000  Uiso   1.00
O1428  O     0.21516   0.59490   0.91893   0.00000  Uiso   1.00
O1429  O     0.07328   0.75065   0.13702   0.00000  Uiso   1.00
O1430  O     0.10173   0.73772   0.08061   0.00000  Uiso   1.00
O1431  O     0.05213   0.81092   0.87685   0.00000  Uiso   1.00
O1432  O     0.25000   0.53036   0.66317   0.00000  Uiso   1.00
O1433  O     0.09388   0.78335   0.91581   0.00000  Uiso   1.00
O1434  O     0.26519   0.57259   0.13081   0.00000  Uiso   1.00
O1435  O     0.30493   0.58353   0.08173   0.00000  Uiso   1.00
O1436  O     0.25800   0.92726   0.86325   0.00000  Uiso   1.00
O1437  O     0.27538   0.90077   0.91959   0.00000  Uiso   1.00
O1438  O     0.42665   0.75302   0.13605   0.00000  Uiso   1.00
O1439  O     0.40060   0.76976   0.07923   0.00000  Uiso   1.00
O1440  O     0.41673   0.69879   0.91140   0.00000  Uiso   1.00
O1441  O     0.42420   0.74222   0.86513   0.00000  Uiso   1.00
O1442  O     0.42668   0.78747   0.61750   0.00000  Uiso   1.00
O1443  O     0.03036   0.75000   0.33683   0.00000  Uiso   1.00
O1444  O     0.45392   0.83453   0.58579   0.00000  Uiso   1.00
O1445  O     0.49674   0.82292   0.36552   0.00000  Uiso   1.00
O1446  O     0.01929   0.84854   0.42005   0.00000  Uiso   1.00
O1447  O     0.32390   0.50459   0.63342   0.00000  Uiso   1.00
O1448  O     0.34466   0.53441   0.58018   0.00000  Uiso   1.00
O1449  O     0.17895   0.52792   0.36623   0.00000  Uiso   1.00
O1450  O     0.17491   0.57016   0.41375   0.00000  Uiso   1.00
O1451  O     0.07412   0.68445   0.59041   0.00000  Uiso   1.00
O1452  O     0.03180   0.67878   0.63796   0.00000  Uiso   1.00
O1453  O     0.49988   0.67632   0.36261   0.00000  Uiso   1.00
O1454  O     0.46964   0.75000   0.66317   0.00000  Uiso   1.00
O1455  O     0.48260   0.64871   0.41838   0.00000  Uiso   1.00
O1456  O     0.17604   0.99594   0.63662   0.00000  Uiso   1.00
O1457  O     0.15200   0.97022   0.58287   0.00000  Uiso   1.00
O1458  O     0.33374   0.96276   0.40336   0.00000  Uiso   1.00
O1459  O     0.29010   0.92334   0.38260   0.00000  Uiso   1.00
O1460  O     0.25000   0.53036   0.33683   0.00000  Uiso   1.00
Zn1461 Zn    0.20660   0.50000   0.21760   0.00000  Uiso   1.00
Zn1462 Zn    0.04340   0.75000   0.28240   0.00000  Uiso   1.00
Zn1463 Zn    0.25000   0.95660   0.71760   0.00000  Uiso   1.00
Zn1464 Zn    0.25000   0.54340   0.28240   0.00000  Uiso   1.00
Zn1465 Zn    0.04340   0.75000   0.71760   0.00000  Uiso   1.00
Zn1466 Zn    0.45660   0.75000   0.28240   0.00000  Uiso   1.00
Zn1467 Zn    0.25000   0.54340   0.71760   0.00000  Uiso   1.00
Zn1468 Zn    0.25000   0.95660   0.28240   0.00000  Uiso   1.00
Zn1469 Zn    0.29340   0.50000   0.78240   0.00000  Uiso   1.00
Zn1470 Zn    0.00000   0.70660   0.21760   0.00000  Uiso   1.00
Zn1471 Zn    0.00000   0.79340   0.78240   0.00000  Uiso   1.00
Zn1472 Zn    0.29340   0.50000   0.21760   0.00000  Uiso   1.00
Zn1473 Zn    0.20660   0.50000   0.78240   0.00000  Uiso   1.00
Zn1474 Zn    0.00000   0.79340   0.21760   0.00000  Uiso   1.00
Zn1475 Zn    0.00000   0.70660   0.78240   0.00000  Uiso   1.00
Zn1476 Zn    0.45660   0.75000   0.71760   0.00000  Uiso   1.00
C1477  C     0.73356   0.96974   0.04191   0.00000  Uiso   1.00
C1478  C     0.50702   0.78051   0.45832   0.00000  Uiso   1.00
C1479  C     0.84857   0.90240   0.74945   0.00000  Uiso   1.00
C1480  C     0.90187   0.65184   0.24999   0.00000  Uiso   1.00
C1481  C     0.59876   0.84752   0.75007   0.00000  Uiso   1.00
C1482  C     0.84845   0.90230   0.24964   0.00000  Uiso   1.00
C1483  C     0.65215   0.59829   0.75017   0.00000  Uiso   1.00
C1484  C     0.59857   0.65232   0.75008   0.00000  Uiso   1.00
C1485  C     0.90185   0.84811   0.24972   0.00000  Uiso   1.00
C1486  C     0.65226   0.90158   0.75004   0.00000  Uiso   1.00
C1487  C     0.84866   0.59749   0.24969   0.00000  Uiso   1.00
C1488  C     0.90187   0.84804   0.74959   0.00000  Uiso   1.00
C1489  C     0.78031   0.50952   0.54133   0.00000  Uiso   1.00
C1490  C     0.59773   0.65185   0.25048   0.00000  Uiso   1.00
C1491  C     0.84849   0.59751   0.74929   0.00000  Uiso   1.00
C1492  C     0.65240   0.90126   0.25087   0.00000  Uiso   1.00
C1493  C     0.74968   0.99908   0.10249   0.00000  Uiso   1.00
C1494  C     0.74973   0.99949   0.89722   0.00000  Uiso   1.00
C1495  C     0.50022   0.74989   0.10292   0.00000  Uiso   1.00
C1496  C     0.99951   0.75050   0.89774   0.00000  Uiso   1.00
C1497  C     0.99964   0.74751   0.60213   0.00000  Uiso   1.00
C1498  C     0.50049   0.74899   0.39720   0.00000  Uiso   1.00
C1499  C     0.74925   0.50062   0.60270   0.00000  Uiso   1.00
C1500  C     0.72154   0.52121   0.45793   0.00000  Uiso   1.00
C1501  C     0.74789   0.99934   0.39767   0.00000  Uiso   1.00
C1502  C     0.69815   0.85844   0.21926   0.00000  Uiso   1.00
C1503  C     0.72247   0.84482   0.25253   0.00000  Uiso   1.00
C1504  C     0.82746   0.61453   0.81737   0.00000  Uiso   1.00
C1505  C     0.84016   0.58843   0.84935   0.00000  Uiso   1.00
C1506  C     0.56803   0.62490   0.31086   0.00000  Uiso   1.00
C1507  C     0.53183   0.60705   0.29993   0.00000  Uiso   1.00
C1508  C     0.88165   0.82496   0.81611   0.00000  Uiso   1.00
C1509  C     0.85513   0.79365   0.80884   0.00000  Uiso   1.00
C1510  C     0.82656   0.61543   0.18235   0.00000  Uiso   1.00
C1511  C     0.52459   0.72300   0.54220   0.00000  Uiso   1.00
C1512  C     0.78829   0.62878   0.19239   0.00000  Uiso   1.00
C1513  C     0.68946   0.86788   0.80131   0.00000  Uiso   1.00
C1514  C     0.68030   0.88823   0.83861   0.00000  Uiso   1.00
C1515  C     0.88151   0.82476   0.18332   0.00000  Uiso   1.00
C1516  C     0.84877   0.79909   0.18208   0.00000  Uiso   1.00
C1517  C     0.55192   0.60898   0.71999   0.00000  Uiso   1.00
C1518  C     0.53182   0.58653   0.75063   0.00000  Uiso   1.00
C1519  C     0.61478   0.55952   0.70386   0.00000  Uiso   1.00
C1520  C     0.62202   0.57037   0.66178   0.00000  Uiso   1.00
C1521  C     0.82942   0.88816   0.18007   0.00000  Uiso   1.00
C1522  C     0.99982   0.71504   0.45775   0.00000  Uiso   1.00
C1523  C     0.78896   0.87943   0.18574   0.00000  Uiso   1.00
C1524  C     0.64189   0.80263   0.78305   0.00000  Uiso   1.00
C1525  C     0.63011   0.79624   0.82472   0.00000  Uiso   1.00
C1526  C     0.88696   0.67018   0.17985   0.00000  Uiso   1.00
C1527  C     0.85938   0.70118   0.17697   0.00000  Uiso   1.00
C1528  C     0.83105   0.88804   0.81964   0.00000  Uiso   1.00
C1529  C     0.85237   0.91164   0.84819   0.00000  Uiso   1.00
C1530  C     0.61300   0.55750   0.29387   0.00000  Uiso   1.00
C1531  C     0.59130   0.53368   0.26586   0.00000  Uiso   1.00
C1532  C     0.89773   0.65629   0.82377   0.00000  Uiso   1.00
C1533  C     0.71593   0.99499   0.54216   0.00000  Uiso   1.00
C1534  C     0.92678   0.63100   0.84116   0.00000  Uiso   1.00
C1535  C     0.63640   0.80492   0.20985   0.00000  Uiso   1.00
C1536  C     0.65623   0.77590   0.23373   0.00000  Uiso   1.00
C1537  C     0.91641   0.64203   0.67782   0.00000  Uiso   1.00
C1538  C     0.95746   0.63417   0.68024   0.00000  Uiso   1.00
C1539  C     0.55207   0.89159   0.28185   0.00000  Uiso   1.00
C1540  C     0.54781   0.88325   0.32490   0.00000  Uiso   1.00
C1541  C     0.86373   0.92117   0.67959   0.00000  Uiso   1.00
C1542  C     0.89321   0.95023   0.67519   0.00000  Uiso   1.00
C1543  C     0.68900   0.63463   0.20090   0.00000  Uiso   1.00
C1544  C     0.77390   0.98106   0.45952   0.00000  Uiso   1.00
C1545  C     0.71068   0.66626   0.21825   0.00000  Uiso   1.00
C1546  C     0.55442   0.88918   0.71418   0.00000  Uiso   1.00
C1547  C     0.53145   0.90778   0.74548   0.00000  Uiso   1.00
C1548  C     0.91929   0.63727   0.32025   0.00000  Uiso   1.00
C1549  C     0.89950   0.66402   0.34690   0.00000  Uiso   1.00
C1550  C     0.69333   0.63547   0.79436   0.00000  Uiso   1.00
C1551  C     0.72564   0.65236   0.77283   0.00000  Uiso   1.00
C1552  C     0.87032   0.92742   0.31435   0.00000  Uiso   1.00
C1553  C     0.89263   0.96119   0.30398   0.00000  Uiso   1.00
C1554  C     0.92534   0.86757   0.31624   0.00000  Uiso   1.00
C1555  C     0.73395   0.96919   0.08248   0.00000  Uiso   1.00
C1556  C     0.90838   0.84487   0.34884   0.00000  Uiso   1.00
C1557  C     0.64467   0.69929   0.77390   0.00000  Uiso   1.00
C1558  C     0.66096   0.71701   0.73754   0.00000  Uiso   1.00
C1559  C     0.87169   0.57043   0.31317   0.00000  Uiso   1.00
C1560  C     0.84952   0.58052   0.34902   0.00000  Uiso   1.00
C1561  C     0.62058   0.93456   0.69434   0.00000  Uiso   1.00
C1562  C     0.60020   0.96870   0.70651   0.00000  Uiso   1.00
C1563  C     0.62223   0.67942   0.18767   0.00000  Uiso   1.00
C1564  C     0.60501   0.66012   0.15310   0.00000  Uiso   1.00
C1565  C     0.92077   0.86238   0.68000   0.00000  Uiso   1.00
C1566  C     0.74118   0.53184   0.91772   0.00000  Uiso   1.00
C1567  C     0.96071   0.87292   0.68586   0.00000  Uiso   1.00
C1568  C     0.61557   0.94251   0.29501   0.00000  Uiso   1.00
C1569  C     0.63578   0.93810   0.33356   0.00000  Uiso   1.00
C1570  C     0.86674   0.57659   0.68137   0.00000  Uiso   1.00
C1571  C     0.90027   0.55201   0.67814   0.00000  Uiso   1.00
C1572  C     0.71811   0.93674   0.10251   0.00000  Uiso   1.00
C1573  C     0.73286   0.56738   0.89827   0.00000  Uiso   1.00
C1574  C     0.57025   0.74450   0.10239   0.00000  Uiso   1.00
C1575  C     0.55844   0.78777   0.90148   0.00000  Uiso   1.00
C1576  C     0.77832   0.56239   0.10020   0.00000  Uiso   1.00
C1577  C     0.53373   0.74514   0.08285   0.00000  Uiso   1.00
C1578  C     0.76351   0.93084   0.89793   0.00000  Uiso   1.00
C1579  C     0.93063   0.75863   0.10138   0.00000  Uiso   1.00
C1580  C     0.93593   0.72291   0.89783   0.00000  Uiso   1.00
C1581  C     0.95164   0.79793   0.59682   0.00000  Uiso   1.00
C1582  C     0.50675   0.81857   0.39900   0.00000  Uiso   1.00
C1583  C     0.81756   0.51563   0.60064   0.00000  Uiso   1.00
C1584  C     0.69078   0.53938   0.39697   0.00000  Uiso   1.00
C1585  C     0.54492   0.69455   0.60376   0.00000  Uiso   1.00
C1586  C     0.99364   0.67937   0.39722   0.00000  Uiso   1.00
C1587  C     0.68061   0.98690   0.60293   0.00000  Uiso   1.00
C1588  C     0.74052   0.53068   0.95821   0.00000  Uiso   1.00
C1589  C     0.52829   0.76664   0.91913   0.00000  Uiso   1.00
C1590  C     0.80131   0.95535   0.40082   0.00000  Uiso   1.00
C1591  C     0.76479   0.52869   0.08142   0.00000  Uiso   1.00
C1592  C     0.75698   0.96649   0.91754   0.00000  Uiso   1.00
C1593  C     0.96683   0.75324   0.08225   0.00000  Uiso   1.00
C1594  C     0.97025   0.73355   0.91769   0.00000  Uiso   1.00
C1595  C     0.97745   0.77151   0.57993   0.00000  Uiso   1.00
C1596  C     0.50489   0.78199   0.41796   0.00000  Uiso   1.00
C1597  C     0.78166   0.50856   0.58177   0.00000  Uiso   1.00
C1598  C     0.72095   0.52006   0.41738   0.00000  Uiso   1.00
C1599  C     0.52300   0.72252   0.58280   0.00000  Uiso   1.00
C1600  C     0.53287   0.74194   0.04251   0.00000  Uiso   1.00
C1601  C     0.99808   0.71513   0.41722   0.00000  Uiso   1.00
C1602  C     0.71595   0.99415   0.58274   0.00000  Uiso   1.00
C1603  C     0.77390   0.97914   0.41921   0.00000  Uiso   1.00
C1604  C     0.74934   0.99850   0.02114   0.00000  Uiso   1.00
C1605  C     0.74892   0.99866   0.97844   0.00000  Uiso   1.00
C1606  C     0.50021   0.74556   0.02185   0.00000  Uiso   1.00
C1607  C     0.50056   0.74557   0.97910   0.00000  Uiso   1.00
C1608  C     0.50326   0.74734   0.52075   0.00000  Uiso   1.00
C1609  C     0.50417   0.74745   0.47822   0.00000  Uiso   1.00
C1610  C     0.74787   0.50252   0.52153   0.00000  Uiso   1.00
C1611  C     0.52841   0.76380   0.95940   0.00000  Uiso   1.00
C1612  C     0.74786   0.50188   0.47897   0.00000  Uiso   1.00
C1613  C     0.74982   0.99983   0.35517   0.00000  Uiso   1.00
C1614  C     0.74997   0.50012   0.64498   0.00000  Uiso   1.00
C1615  C     0.50006   0.74979   0.35500   0.00000  Uiso   1.00
C1616  C     0.99990   0.74980   0.64472   0.00000  Uiso   1.00
C1617  C     0.50049   0.75009   0.85519   0.00000  Uiso   1.00
C1618  C     0.99999   0.75005   0.14506   0.00000  Uiso   1.00
C1619  C     0.74997   0.99997   0.85501   0.00000  Uiso   1.00
C1620  C     0.74995   0.99969   0.14489   0.00000  Uiso   1.00
C1621  C     0.67984   0.56990   0.25005   0.00000  Uiso   1.00
C1622  C     0.76528   0.52745   0.04104   0.00000  Uiso   1.00
C1623  C     0.82033   0.93039   0.74957   0.00000  Uiso   1.00
C1624  C     0.92994   0.68007   0.25000   0.00000  Uiso   1.00
C1625  C     0.57039   0.81959   0.75044   0.00000  Uiso   1.00
C1626  C     0.82015   0.93018   0.25007   0.00000  Uiso   1.00
C1627  C     0.68014   0.57009   0.75011   0.00000  Uiso   1.00
C1628  C     0.56951   0.82045   0.25052   0.00000  Uiso   1.00
C1629  C     0.92990   0.67997   0.75024   0.00000  Uiso   1.00
C1630  C     0.68007   0.92998   0.75008   0.00000  Uiso   1.00
C1631  C     0.82008   0.56985   0.24994   0.00000  Uiso   1.00
C1632  C     0.92985   0.81980   0.75007   0.00000  Uiso   1.00
C1633  C     0.75711   0.96692   0.95807   0.00000  Uiso   1.00
C1634  C     0.56966   0.67983   0.25045   0.00000  Uiso   1.00
C1635  C     0.82024   0.56967   0.74956   0.00000  Uiso   1.00
C1636  C     0.68029   0.92968   0.24986   0.00000  Uiso   1.00
C1637  C     0.57038   0.68036   0.75046   0.00000  Uiso   1.00
C1638  C     0.92994   0.81995   0.24992   0.00000  Uiso   1.00
C1639  C     0.65966   0.86708   0.23354   0.00000  Uiso   1.00
C1640  C     0.85452   0.61749   0.78358   0.00000  Uiso   1.00
C1641  C     0.59610   0.62340   0.27814   0.00000  Uiso   1.00
C1642  C     0.87985   0.85267   0.78286   0.00000  Uiso   1.00
C1643  C     0.85273   0.62001   0.21656   0.00000  Uiso   1.00
C1644  C     0.96760   0.75162   0.04181   0.00000  Uiso   1.00
C1645  C     0.65765   0.86981   0.77265   0.00000  Uiso   1.00
C1646  C     0.87871   0.85181   0.21691   0.00000  Uiso   1.00
C1647  C     0.59056   0.61804   0.73369   0.00000  Uiso   1.00
C1648  C     0.61891   0.59217   0.73047   0.00000  Uiso   1.00
C1649  C     0.85242   0.88015   0.21635   0.00000  Uiso   1.00
C1650  C     0.63251   0.84081   0.76884   0.00000  Uiso   1.00
C1651  C     0.88067   0.64660   0.21603   0.00000  Uiso   1.00
C1652  C     0.85364   0.88086   0.78321   0.00000  Uiso   1.00
C1653  C     0.62108   0.59418   0.27495   0.00000  Uiso   1.00
C1654  C     0.88432   0.64169   0.78497   0.00000  Uiso   1.00
C1655  C     0.97184   0.73015   0.95808   0.00000  Uiso   1.00
C1656  C     0.63155   0.84067   0.23206   0.00000  Uiso   1.00
C1657  C     0.89579   0.63174   0.71505   0.00000  Uiso   1.00
C1658  C     0.59042   0.88270   0.26717   0.00000  Uiso   1.00
C1659  C     0.86985   0.89712   0.71554   0.00000  Uiso   1.00
C1660  C     0.65445   0.62804   0.22439   0.00000  Uiso   1.00
C1661  C     0.59238   0.88040   0.72980   0.00000  Uiso   1.00
C1662  C     0.89719   0.62968   0.28351   0.00000  Uiso   1.00
C1663  C     0.65933   0.63159   0.76896   0.00000  Uiso   1.00
C1664  C     0.87207   0.89912   0.28194   0.00000  Uiso   1.00
C1665  C     0.89906   0.87162   0.28203   0.00000  Uiso   1.00
C1666  C     0.97993   0.77134   0.53972   0.00000  Uiso   1.00
C1667  C     0.63366   0.66015   0.76527   0.00000  Uiso   1.00
C1668  C     0.87198   0.60050   0.28218   0.00000  Uiso   1.00
C1669  C     0.62125   0.90558   0.72602   0.00000  Uiso   1.00
C1670  C     0.62528   0.65309   0.22198   0.00000  Uiso   1.00
C1671  C     0.89718   0.86974   0.71581   0.00000  Uiso   1.00
C1672  C     0.61901   0.90844   0.26989   0.00000  Uiso   1.00
C1673  C     0.87009   0.60286   0.71559   0.00000  Uiso   1.00
C1674  C     0.59759   0.84858   0.24967   0.00000  Uiso   1.00
C1675  C     0.90262   0.65088   0.74996   0.00000  Uiso   1.00
C1676  C     0.65146   0.59791   0.24989   0.00000  Uiso   1.00
H1677  H     0.72104   0.94751   0.02624   0.00000  Uiso   1.00
H1678  H     0.51031   0.80538   0.47474   0.00000  Uiso   1.00
H1679  H     0.90595   0.62796   0.65197   0.00000  Uiso   1.00
H1680  H     0.91193   0.67118   0.67080   0.00000  Uiso   1.00
H1681  H     0.56480   0.90163   0.34269   0.00000  Uiso   1.00
H1682  H     0.55565   0.85459   0.33105   0.00000  Uiso   1.00
H1683  H     0.51886   0.88733   0.33332   0.00000  Uiso   1.00
H1684  H     0.54448   0.92019   0.27537   0.00000  Uiso   1.00
H1685  H     0.53084   0.87619   0.26611   0.00000  Uiso   1.00
H1686  H     0.88759   0.96659   0.64877   0.00000  Uiso   1.00
H1687  H     0.89308   0.96845   0.70078   0.00000  Uiso   1.00
H1688  H     0.92065   0.93820   0.67196   0.00000  Uiso   1.00
H1689  H     0.80481   0.51536   0.52485   0.00000  Uiso   1.00
H1690  H     0.86122   0.90450   0.65305   0.00000  Uiso   1.00
H1691  H     0.83756   0.93600   0.67988   0.00000  Uiso   1.00
H1692  H     0.72985   0.67736   0.19636   0.00000  Uiso   1.00
H1693  H     0.72621   0.65662   0.24397   0.00000  Uiso   1.00
H1694  H     0.69271   0.68894   0.22753   0.00000  Uiso   1.00
H1695  H     0.70701   0.61044   0.19977   0.00000  Uiso   1.00
H1696  H     0.68230   0.64035   0.17014   0.00000  Uiso   1.00
H1697  H     0.51783   0.88727   0.76418   0.00000  Uiso   1.00
H1698  H     0.54850   0.92561   0.76407   0.00000  Uiso   1.00
H1699  H     0.51023   0.92514   0.73186   0.00000  Uiso   1.00
H1700  H     0.70117   0.53687   0.47337   0.00000  Uiso   1.00
H1701  H     0.55521   0.90683   0.68818   0.00000  Uiso   1.00
H1702  H     0.54032   0.86432   0.70390   0.00000  Uiso   1.00
H1703  H     0.87033   0.65665   0.35027   0.00000  Uiso   1.00
H1704  H     0.90075   0.69216   0.33539   0.00000  Uiso   1.00
H1705  H     0.91261   0.66383   0.37590   0.00000  Uiso   1.00
H1706  H     0.92533   0.61225   0.33692   0.00000  Uiso   1.00
H1707  H     0.94675   0.64814   0.31319   0.00000  Uiso   1.00
H1708  H     0.75091   0.64815   0.79000   0.00000  Uiso   1.00
H1709  H     0.72935   0.63960   0.74402   0.00000  Uiso   1.00
H1710  H     0.72192   0.68208   0.76915   0.00000  Uiso   1.00
H1711  H     0.54226   0.70411   0.52711   0.00000  Uiso   1.00
H1712  H     0.68722   0.65114   0.82098   0.00000  Uiso   1.00
H1713  H     0.70202   0.60855   0.80584   0.00000  Uiso   1.00
H1714  H     0.89147   0.98092   0.32822   0.00000  Uiso   1.00
H1715  H     0.88147   0.97455   0.27760   0.00000  Uiso   1.00
H1716  H     0.92159   0.95380   0.29874   0.00000  Uiso   1.00
H1717  H     0.84193   0.93596   0.32029   0.00000  Uiso   1.00
H1718  H     0.87977   0.91655   0.34255   0.00000  Uiso   1.00
H1719  H     0.88125   0.85565   0.35728   0.00000  Uiso   1.00
H1720  H     0.90499   0.81618   0.33960   0.00000  Uiso   1.00
H1721  H     0.92643   0.84539   0.37465   0.00000  Uiso   1.00
H1722  H     0.99733   0.68969   0.47371   0.00000  Uiso   1.00
H1723  H     0.95151   0.85477   0.30760   0.00000  Uiso   1.00
H1724  H     0.93395   0.89447   0.32740   0.00000  Uiso   1.00
H1725  H     0.67859   0.69763   0.72150   0.00000  Uiso   1.00
H1726  H     0.63906   0.72642   0.71770   0.00000  Uiso   1.00
H1727  H     0.67796   0.74072   0.74566   0.00000  Uiso   1.00
H1728  H     0.62120   0.71567   0.78423   0.00000  Uiso   1.00
H1729  H     0.66469   0.70110   0.79777   0.00000  Uiso   1.00
H1730  H     0.82440   0.59568   0.34089   0.00000  Uiso   1.00
H1731  H     0.84138   0.55533   0.36472   0.00000  Uiso   1.00
H1732  H     0.86611   0.59703   0.36919   0.00000  Uiso   1.00
H1733  H     0.69097   0.98964   0.52634   0.00000  Uiso   1.00
H1734  H     0.86029   0.54475   0.30147   0.00000  Uiso   1.00
H1735  H     0.89977   0.56222   0.32138   0.00000  Uiso   1.00
H1736  H     0.57110   0.96331   0.71254   0.00000  Uiso   1.00
H1737  H     0.61299   0.98052   0.73274   0.00000  Uiso   1.00
H1738  H     0.60136   0.98843   0.68217   0.00000  Uiso   1.00
H1739  H     0.64862   0.94252   0.68570   0.00000  Uiso   1.00
H1740  H     0.60873   0.92345   0.66726   0.00000  Uiso   1.00
H1741  H     0.62065   0.63524   0.14557   0.00000  Uiso   1.00
H1742  H     0.57643   0.65234   0.15985   0.00000  Uiso   1.00
H1743  H     0.60494   0.67845   0.12755   0.00000  Uiso   1.00
H1744  H     0.79377   0.96545   0.47594   0.00000  Uiso   1.00
H1745  H     0.60562   0.70378   0.19456   0.00000  Uiso   1.00
H1746  H     0.64898   0.69081   0.17903   0.00000  Uiso   1.00
H1747  H     0.97481   0.87419   0.65742   0.00000  Uiso   1.00
H1748  H     0.96254   0.89996   0.69972   0.00000  Uiso   1.00
H1749  H     0.97526   0.85263   0.70395   0.00000  Uiso   1.00
H1750  H     0.91889   0.83333   0.67201   0.00000  Uiso   1.00
H1751  H     0.91139   0.87685   0.65385   0.00000  Uiso   1.00
H1752  H     0.66571   0.93790   0.32928   0.00000  Uiso   1.00
H1753  H     0.62903   0.96132   0.35278   0.00000  Uiso   1.00
H1754  H     0.62770   0.91241   0.34827   0.00000  Uiso   1.00
H1755  H     0.73856   0.86745   0.26498   0.00000  Uiso   1.00
H1756  H     0.62655   0.96654   0.27946   0.00000  Uiso   1.00
H1757  H     0.58712   0.94972   0.30193   0.00000  Uiso   1.00
H1758  H     0.92427   0.56714   0.66732   0.00000  Uiso   1.00
H1759  H     0.90678   0.53952   0.70670   0.00000  Uiso   1.00
H1760  H     0.89477   0.52992   0.65727   0.00000  Uiso   1.00
H1761  H     0.84316   0.55804   0.68394   0.00000  Uiso   1.00
H1762  H     0.86139   0.59130   0.65385   0.00000  Uiso   1.00
H1763  H     0.68429   0.89346   0.09946   0.00000  Uiso   1.00
H1764  H     0.71111   0.61772   0.90283   0.00000  Uiso   1.00
H1765  H     0.62484   0.73867   0.09675   0.00000  Uiso   1.00
H1766  H     0.70612   0.83203   0.27603   0.00000  Uiso   1.00
H1767  H     0.61174   0.80141   0.90428   0.00000  Uiso   1.00
H1768  H     0.81076   0.60668   0.09632   0.00000  Uiso   1.00
H1769  H     0.77852   0.87811   0.90324   0.00000  Uiso   1.00
H1770  H     0.87747   0.77218   0.09508   0.00000  Uiso   1.00
H1771  H     0.89889   0.73477   0.85653   0.00000  Uiso   1.00
H1772  H     0.93311   0.84966   0.59635   0.00000  Uiso   1.00
H1773  H     0.51849   0.87206   0.40461   0.00000  Uiso   1.00
H1774  H     0.86808   0.53719   0.59545   0.00000  Uiso   1.00
H1775  H     0.65445   0.58070   0.39739   0.00000  Uiso   1.00
H1776  H     0.54921   0.65999   0.64907   0.00000  Uiso   1.00
H1777  H     0.74196   0.82410   0.24166   0.00000  Uiso   1.00
H1778  H     0.98047   0.62613   0.40174   0.00000  Uiso   1.00
H1779  H     0.62940   0.96691   0.59946   0.00000  Uiso   1.00
H1780  H     0.81135   0.90798   0.37341   0.00000  Uiso   1.00
H1781  H     0.73361   0.55497   0.97430   0.00000  Uiso   1.00
H1782  H     0.69847   0.83797   0.19596   0.00000  Uiso   1.00
H1783  H     0.71068   0.88270   0.20540   0.00000  Uiso   1.00
H1784  H     0.85814   0.60256   0.87023   0.00000  Uiso   1.00
H1785  H     0.85478   0.56464   0.83709   0.00000  Uiso   1.00
H1786  H     0.81619   0.57830   0.86582   0.00000  Uiso   1.00
H1787  H     0.82132   0.64175   0.82954   0.00000  Uiso   1.00
H1788  H     0.80035   0.60519   0.80715   0.00000  Uiso   1.00
H1789  H     0.51112   0.61305   0.32248   0.00000  Uiso   1.00
H1790  H     0.52172   0.61768   0.27175   0.00000  Uiso   1.00
H1791  H     0.53476   0.57710   0.29833   0.00000  Uiso   1.00
H1792  H     0.55796   0.73715   0.02679   0.00000  Uiso   1.00
H1793  H     0.57889   0.61276   0.33797   0.00000  Uiso   1.00
H1794  H     0.56256   0.65351   0.31918   0.00000  Uiso   1.00
H1795  H     0.85357   0.77595   0.83491   0.00000  Uiso   1.00
H1796  H     0.86458   0.77709   0.78393   0.00000  Uiso   1.00
H1797  H     0.82731   0.80410   0.80254   0.00000  Uiso   1.00
H1798  H     0.90932   0.81352   0.82027   0.00000  Uiso   1.00
H1799  H     0.87574   0.83738   0.84455   0.00000  Uiso   1.00
H1800  H     0.77262   0.60734   0.20770   0.00000  Uiso   1.00
H1801  H     0.78966   0.65333   0.21097   0.00000  Uiso   1.00
H1802  H     0.77332   0.63590   0.16542   0.00000  Uiso   1.00
H1803  H     0.54973   0.77736   0.97564   0.00000  Uiso   1.00
H1804  H     0.83498   0.63018   0.15602   0.00000  Uiso   1.00
H1805  H     0.82569   0.58660   0.17308   0.00000  Uiso   1.00
H1806  H     0.65317   0.87983   0.84981   0.00000  Uiso   1.00
H1807  H     0.68013   0.91805   0.83368   0.00000  Uiso   1.00
H1808  H     0.70107   0.88187   0.86106   0.00000  Uiso   1.00
H1809  H     0.69690   0.83980   0.80966   0.00000  Uiso   1.00
H1810  H     0.71472   0.87931   0.78833   0.00000  Uiso   1.00
H1811  H     0.85344   0.77812   0.15974   0.00000  Uiso   1.00
H1812  H     0.84510   0.78548   0.21062   0.00000  Uiso   1.00
H1813  H     0.82339   0.81346   0.17412   0.00000  Uiso   1.00
H1814  H     0.77741   0.54968   0.02481   0.00000  Uiso   1.00
H1815  H     0.88526   0.83903   0.15524   0.00000  Uiso   1.00
H1816  H     0.90584   0.80708   0.18516   0.00000  Uiso   1.00
H1817  H     0.50450   0.57864   0.73967   0.00000  Uiso   1.00
H1818  H     0.52821   0.60274   0.77743   0.00000  Uiso   1.00
H1819  H     0.54717   0.56134   0.75788   0.00000  Uiso   1.00
H1820  H     0.53553   0.63366   0.71377   0.00000  Uiso   1.00
H1821  H     0.55201   0.59430   0.69205   0.00000  Uiso   1.00
H1822  H     0.60380   0.59291   0.65245   0.00000  Uiso   1.00
H1823  H     0.65083   0.57925   0.65837   0.00000  Uiso   1.00
H1824  H     0.61721   0.54666   0.64262   0.00000  Uiso   1.00
H1825  H     0.76355   0.94232   0.97411   0.00000  Uiso   1.00
H1826  H     0.63412   0.53747   0.71133   0.00000  Uiso   1.00
H1827  H     0.58741   0.54706   0.70669   0.00000  Uiso   1.00
H1828  H     0.78558   0.85474   0.20391   0.00000  Uiso   1.00
H1829  H     0.77446   0.90247   0.19950   0.00000  Uiso   1.00
H1830  H     0.77592   0.87449   0.15721   0.00000  Uiso   1.00
H1831  H     0.83256   0.91709   0.17136   0.00000  Uiso   1.00
H1832  H     0.83870   0.87321   0.15426   0.00000  Uiso   1.00
H1833  H     0.60012   0.79915   0.82687   0.00000  Uiso   1.00
H1834  H     0.63769   0.76821   0.83384   0.00000  Uiso   1.00
H1835  H     0.64357   0.81581   0.84440   0.00000  Uiso   1.00
H1836  H     0.94259   0.75542   0.02558   0.00000  Uiso   1.00
H1837  H     0.62862   0.78188   0.76475   0.00000  Uiso   1.00
H1838  H     0.67134   0.79672   0.77954   0.00000  Uiso   1.00
H1839  H     0.83093   0.69121   0.17730   0.00000  Uiso   1.00
H1840  H     0.86329   0.72015   0.20156   0.00000  Uiso   1.00
H1841  H     0.86367   0.71604   0.14931   0.00000  Uiso   1.00
H1842  H     0.91419   0.68284   0.17867   0.00000  Uiso   1.00
H1843  H     0.88707   0.65343   0.15324   0.00000  Uiso   1.00
H1844  H     0.87921   0.89929   0.85524   0.00000  Uiso   1.00
H1845  H     0.85713   0.93916   0.83580   0.00000  Uiso   1.00
H1846  H     0.83674   0.91460   0.87546   0.00000  Uiso   1.00
H1847  H     0.94981   0.71668   0.97337   0.00000  Uiso   1.00
H1848  H     0.80476   0.90154   0.81294   0.00000  Uiso   1.00
H1849  H     0.82234   0.86239   0.83389   0.00000  Uiso   1.00
H1850  H     0.56979   0.54962   0.25076   0.00000  Uiso   1.00
H1851  H     0.60961   0.52191   0.24361   0.00000  Uiso   1.00
H1852  H     0.57780   0.51133   0.28206   0.00000  Uiso   1.00
H1853  H     0.63841   0.54311   0.30240   0.00000  Uiso   1.00
H1854  H     0.59744   0.56001   0.32113   0.00000  Uiso   1.00
H1855  H     0.91623   0.60286   0.84424   0.00000  Uiso   1.00
H1856  H     0.95142   0.62980   0.82264   0.00000  Uiso   1.00
H1857  H     0.93502   0.64092   0.87017   0.00000  Uiso   1.00
H1858  H     0.96278   0.78957   0.52287   0.00000  Uiso   1.00
H1859  H     0.90905   0.68400   0.82060   0.00000  Uiso   1.00
H1860  H     0.87556   0.65986   0.84509   0.00000  Uiso   1.00
H1861  H     0.68564   0.78217   0.23622   0.00000  Uiso   1.00
H1862  H     0.64416   0.77356   0.26313   0.00000  Uiso   1.00
H1863  H     0.65374   0.74917   0.21915   0.00000  Uiso   1.00
H1864  H     0.60977   0.79338   0.20085   0.00000  Uiso   1.00
H1865  H     0.65022   0.80936   0.18169   0.00000  Uiso   1.00
H1866  H     0.97230   0.65686   0.69423   0.00000  Uiso   1.00
H1867  H     0.96280   0.60873   0.69669   0.00000  Uiso   1.00
H1868  H     0.96881   0.63114   0.65060   0.00000  Uiso   1.00
O1869  O     0.75000   0.50000   0.25000   0.00000  Uiso   1.00
O1870  O     0.75000   0.96964   0.66317   0.00000  Uiso   1.00
O1871  O     0.96964   0.75000   0.33683   0.00000  Uiso   1.00
O1872  O     0.53036   0.75000   0.66317   0.00000  Uiso   1.00
O1873  O     0.50000   0.71964   0.83683   0.00000  Uiso   1.00
O1874  O     0.50000   0.78036   0.16317   0.00000  Uiso   1.00
O1875  O     0.78036   0.50000   0.83683   0.00000  Uiso   1.00
O1876  O     0.71964   0.50000   0.16317   0.00000  Uiso   1.00
O1877  O     0.50000   0.78036   0.83683   0.00000  Uiso   1.00
O1878  O     0.50000   0.71964   0.16317   0.00000  Uiso   1.00
O1879  O     0.71964   0.50000   0.83683   0.00000  Uiso   1.00
O1880  O     0.75000   0.50000   0.75000   0.00000  Uiso   1.00
O1881  O     0.78036   0.50000   0.16317   0.00000  Uiso   1.00
O1882  O     0.70726   0.57307   0.27282   0.00000  Uiso   1.00
O1883  O     0.79275   0.92693   0.72718   0.00000  Uiso   1.00
O1884  O     0.92693   0.70726   0.27282   0.00000  Uiso   1.00
O1885  O     0.57307   0.79275   0.72718   0.00000  Uiso   1.00
O1886  O     0.79275   0.92693   0.27282   0.00000  Uiso   1.00
O1887  O     0.70726   0.57307   0.72718   0.00000  Uiso   1.00
O1888  O     0.57307   0.79275   0.27282   0.00000  Uiso   1.00
O1889  O     0.92693   0.70726   0.72718   0.00000  Uiso   1.00
O1890  O     0.70726   0.92693   0.72718   0.00000  Uiso   1.00
O1891  O     0.50000   0.75000   0.25000   0.00000  Uiso   1.00
O1892  O     0.79275   0.57307   0.27282   0.00000  Uiso   1.00
O1893  O     0.92693   0.79275   0.72718   0.00000  Uiso   1.00
O1894  O     0.57307   0.70726   0.27282   0.00000  Uiso   1.00
O1895  O     0.79275   0.57307   0.72718   0.00000  Uiso   1.00
O1896  O     0.70726   0.92693   0.27282   0.00000  Uiso   1.00
O1897  O     0.57307   0.70726   0.72718   0.00000  Uiso   1.00
O1898  O     0.92693   0.79275   0.27282   0.00000  Uiso   1.00
O1899  O     0.95726   0.82307   0.77282   0.00000  Uiso   1.00
O1900  O     0.54275   0.67693   0.22718   0.00000  Uiso   1.00
O1901  O     0.67693   0.95726   0.77282   0.00000  Uiso   1.00
O1902  O     0.50000   0.75000   0.75000   0.00000  Uiso   1.00
O1903  O     0.82307   0.54275   0.22718   0.00000  Uiso   1.00
O1904  O     0.54275   0.67693   0.77282   0.00000  Uiso   1.00
O1905  O     0.95726   0.82307   0.22718   0.00000  Uiso   1.00
O1906  O     0.82307   0.54275   0.77282   0.00000  Uiso   1.00
O1907  O     0.67693   0.95726   0.22718   0.00000  Uiso   1.00
O1908  O     0.95726   0.67693   0.22718   0.00000  Uiso   1.00
O1909  O     0.54275   0.82307   0.77282   0.00000  Uiso   1.00
O1910  O     0.67693   0.54275   0.22718   0.00000  Uiso   1.00
O1911  O     0.82307   0.95726   0.77282   0.00000  Uiso   1.00
O1912  O     0.54275   0.82307   0.22718   0.00000  Uiso   1.00
O1913  O     0.75000   0.96964   0.33683   0.00000  Uiso   1.00
O1914  O     0.95726   0.67693   0.77282   0.00000  Uiso   1.00
O1915  O     0.82307   0.95726   0.22718   0.00000  Uiso   1.00
O1916  O     0.67693   0.54275   0.77282   0.00000  Uiso   1.00
O1917  O     0.72743   0.92858   0.13543   0.00000  Uiso   1.00
O1918  O     0.69291   0.91478   0.08309   0.00000  Uiso   1.00
O1919  O     0.74175   0.57303   0.86464   0.00000  Uiso   1.00
O1920  O     0.71516   0.59490   0.91893   0.00000  Uiso   1.00
O1921  O     0.57328   0.75065   0.13702   0.00000  Uiso   1.00
O1922  O     0.60173   0.73772   0.08061   0.00000  Uiso   1.00
O1923  O     0.55213   0.81092   0.87685   0.00000  Uiso   1.00
O1924  O     0.75000   0.53036   0.66317   0.00000  Uiso   1.00
O1925  O     0.59388   0.78335   0.91581   0.00000  Uiso   1.00
O1926  O     0.76519   0.57259   0.13081   0.00000  Uiso   1.00
O1927  O     0.80493   0.58353   0.08173   0.00000  Uiso   1.00
O1928  O     0.75800   0.92726   0.86325   0.00000  Uiso   1.00
O1929  O     0.77538   0.90077   0.91959   0.00000  Uiso   1.00
O1930  O     0.92665   0.75302   0.13605   0.00000  Uiso   1.00
O1931  O     0.90060   0.76976   0.07923   0.00000  Uiso   1.00
O1932  O     0.91673   0.69879   0.91140   0.00000  Uiso   1.00
O1933  O     0.92420   0.74222   0.86513   0.00000  Uiso   1.00
O1934  O     0.92668   0.78747   0.61750   0.00000  Uiso   1.00
O1935  O     0.53036   0.75000   0.33683   0.00000  Uiso   1.00
O1936  O     0.95392   0.83453   0.58579   0.00000  Uiso   1.00
O1937  O     0.99674   0.82292   0.36552   0.00000  Uiso   1.00
O1938  O     0.51929   0.84854   0.42005   0.00000  Uiso   1.00
O1939  O     0.82390   0.50459   0.63342   0.00000  Uiso   1.00
O1940  O     0.84466   0.53441   0.58018   0.00000  Uiso   1.00
O1941  O     0.67895   0.52792   0.36623   0.00000  Uiso   1.00
O1942  O     0.67491   0.57016   0.41375   0.00000  Uiso   1.00
O1943  O     0.57412   0.68445   0.59041   0.00000  Uiso   1.00
O1944  O     0.53180   0.67878   0.63796   0.00000  Uiso   1.00
O1945  O     0.99988   0.67632   0.36261   0.00000  Uiso   1.00
O1946  O     0.96964   0.75000   0.66317   0.00000  Uiso   1.00
O1947  O     0.98260   0.64871   0.41838   0.00000  Uiso   1.00
O1948  O     0.67604   0.99594   0.63662   0.00000  Uiso   1.00
O1949  O     0.65200   0.97022   0.58287   0.00000  Uiso   1.00
O1950  O     0.83374   0.96276   0.40336   0.00000  Uiso   1.00
O1951  O     0.79010   0.92334   0.38260   0.00000  Uiso   1.00
O1952  O     0.75000   0.53036   0.33683   0.00000  Uiso   1.00
Zn1953 Zn    0.70660   0.50000   0.21760   0.00000  Uiso   1.00
Zn1954 Zn    0.54340   0.75000   0.28240   0.00000  Uiso   1.00
Zn1955 Zn    0.75000   0.95660   0.71760   0.00000  Uiso   1.00
Zn1956 Zn    0.75000   0.54340   0.28240   0.00000  Uiso   1.00
Zn1957 Zn    0.54340   0.75000   0.71760   0.00000  Uiso   1.00
Zn1958 Zn    0.95660   0.75000   0.28240   0.00000  Uiso   1.00
Zn1959 Zn    0.75000   0.54340   0.71760   0.00000  Uiso   1.00
Zn1960 Zn    0.75000   0.95660   0.28240   0.00000  Uiso   1.00
Zn1961 Zn    0.79340   0.50000   0.78240   0.00000  Uiso   1.00
Zn1962 Zn    0.50000   0.70660   0.21760   0.00000  Uiso   1.00
Zn1963 Zn    0.50000   0.79340   0.78240   0.00000  Uiso   1.00
Zn1964 Zn    0.79340   0.50000   0.21760   0.00000  Uiso   1.00
Zn1965 Zn    0.70660   0.50000   0.78240   0.00000  Uiso   1.00
Zn1966 Zn    0.50000   0.79340   0.21760   0.00000  Uiso   1.00
Zn1967 Zn    0.50000   0.70660   0.78240   0.00000  Uiso   1.00
Zn1968 Zn    0.95660   0.75000   0.71760   0.00000  Uiso   1.00
loop_
_geom_bond_atom_site_label_1
_geom_bond_atom_site_label_2
_geom_bond_distance
_geom_bond_site_symmetry_2
_ccdc_geom_bond_type
C1     C79     1.400   .     A
C1     C128    1.399   .     A
C1     H201    1.083   .     S
C2     H202    1.084   .     S
C2     C120    1.396   .     A
C2     C133    1.396   .     A
C3     C176    1.418   .     A
C3     C147    1.458   .     S
C3     C183    1.421   .     A
C4     C148    1.461   .     S
C4     C186    1.422   .     A
C4     C175    1.420   .     A
C5     C174    1.417   .     A
C5     C149    1.461   .     S
C5     C185    1.412   .     A
C6     C188    1.415   .     A
C6     C173    1.418   .     A
C6     C150    1.457   .     S
C7     C172    1.413   .     A
C7     C187    1.412   .     A
C7     C151    1.457   .     S
C8     C171    1.414   .     A
C8     C161    1.459   .     S
C8     C191    1.419   .     A
C9     C170    1.420   .     A
C9     C189    1.418   .     A
C9     C162    1.459   .     S
C10    C154    1.459   .     S
C10    C193    1.413   .     A
C10    C169    1.414   .     A
C11    C192    1.414   .     A
C11    C167    1.416   .     A
C11    C155    1.459   .     S
C12    C156    1.458   .     S
C12    C195    1.420   .     A
C12    C166    1.415   .     A
C13    H213    1.084   .     S
C13    C121    1.397   .     A
C13    C134    1.395   .     A
C14    C158    1.453   .     S
C14    C194    1.411   .     A
C14    C165    1.414   .     A
C15    C197    1.420   .     A
C15    C164    1.413   .     A
C15    C159    1.456   .     S
C16    C160    1.462   .     S
C16    C196    1.414   .     A
C16    C163    1.418   .     A
C17    C144    1.464   .     S
C17    C79     1.422   .     A
C17    C1099   1.418   .     S
C18    C116    1.422   .     A
C18    C143    1.457   .     S
C18    C1074   1.421   .     S
C19    C101    1.421   .     A
C19    C609    1.421   1_455 S
C19    C634    1.455   1_455 S
C20    C118    1.417   .     A
C20    C605    1.419   .     S
C20    C633    1.469   .     S
C21    C119    1.420   .     A
C21    C140    1.473   .     S
C21    C615    1.423   .     S
C22    C120    1.420   .     A
C22    C139    1.457   .     S
C22    C617    1.423   1_455 S
C23    C138    1.460   .     S
C23    C121    1.420   .     A
C23    C1110   1.422   1_545 S
C24    H224    1.084   .     S
C24    C136    1.398   .     A
C24    C122    1.401   .     A
C25    C137    1.469   .     S
C25    C127    1.416   .     A
C25    C1106   1.422   .     S
C26    C163    1.528   .     S
C26    H306    1.104   .     S
C26    C27     1.535   .     S
C26    H307    1.109   .     S
C27    H279    1.108   .     S
C27    H290    1.111   .     S
C27    H301    1.110   .     S
C28    H311    1.109   .     S
C28    C29     1.531   .     S
C28    H312    1.109   .     S
C28    C164    1.535   .     S
C29    H310    1.110   .     S
C29    H309    1.110   .     S
C29    H308    1.107   .     S
C30    H318    1.109   .     S
C30    C165    1.529   .     S
C30    C31     1.528   .     S
C30    H317    1.108   .     S
C31    H314    1.110   .     S
C31    H315    1.107   .     S
C31    H313    1.110   .     S
C32    C166    1.532   .     S
C32    H323    1.106   .     S
C32    H322    1.106   .     S
C32    C33     1.528   .     S
C33    H320    1.111   .     S
C33    H319    1.109   .     S
C33    H321    1.110   .     S
C34    H328    1.100   .     S
C34    C167    1.531   .     S
C34    C36     1.526   .     S
C34    H329    1.108   .     S
C35    C132    1.397   .     A
C35    H235    1.084   .     S
C35    C123    1.403   .     A
C36    H325    1.110   .     S
C36    H326    1.110   .     S
C36    H324    1.107   .     S
C37    C38     1.529   .     S
C37    H333    1.103   .     S
C37    C169    1.530   .     S
C37    H334    1.110   .     S
C38    H330    1.110   .     S
C38    H331    1.108   .     S
C38    H332    1.110   .     S
C39    H339    1.108   .     S
C39    C40     1.527   .     S
C39    C170    1.534   .     S
C39    H340    1.104   .     S
C40    H335    1.106   .     S
C40    H336    1.111   .     S
C40    H337    1.103   .     S
C41    C42     1.528   .     S
C41    C171    1.530   .     S
C41    H344    1.107   .     S
C41    H345    1.107   .     S
C42    H341    1.109   .     S
C42    H342    1.111   .     S
C42    H343    1.110   .     S
C43    C44     1.528   .     S
C43    H350    1.105   .     S
C43    H351    1.107   .     S
C43    C172    1.522   .     S
C44    H347    1.111   .     S
C44    H346    1.110   .     S
C44    H348    1.110   .     S
C45    C47     1.529   .     S
C45    C173    1.537   .     S
C45    H356    1.102   .     S
C45    H355    1.109   .     S
C46    C125    1.400   .     A
C46    H246    1.084   .     S
C46    C625    1.396   .     S
C47    H353    1.108   .     S
C47    H352    1.107   .     S
C47    H354    1.110   .     S
C48    H362    1.107   .     S
C48    C174    1.523   .     S
C48    C49     1.519   .     S
C48    H361    1.105   .     S
C49    H357    1.106   .     S
C49    H359    1.107   .     S
C49    H358    1.110   .     S
C50    C175    1.534   .     S
C50    H366    1.101   .     S
C50    C51     1.525   .     S
C50    H367    1.108   .     S
C51    H364    1.110   .     S
C51    H365    1.109   .     S
C51    H363    1.105   .     S
C52    H373    1.108   .     S
C52    C53     1.530   .     S
C52    C176    1.530   .     S
C52    H372    1.107   .     S
C53    H370    1.108   .     S
C53    H368    1.109   .     S
C53    H369    1.109   .     S
C54    H377    1.109   .     S
C54    C55     1.530   .     S
C54    H378    1.105   .     S
C54    C177    1.524   .     S
C55    H376    1.108   .     S
C55    H374    1.110   .     S
C55    H375    1.109   .     S
C56    C178    1.526   .     S
C56    H383    1.104   .     S
C56    C58     1.533   .     S
C56    H384    1.104   .     S
C57    H257    1.084   .     S
C57    C126    1.401   .     A
C57    C1118   1.398   .     S
C58    H380    1.108   .     S
C58    H381    1.109   .     S
C58    H379    1.108   .     S
C59    C60     1.528   .     S
C59    H389    1.108   .     S
C59    C180    1.534   .     S
C59    H388    1.109   .     S
C60    H386    1.110   .     S
C60    H385    1.106   .     S
C60    H387    1.109   .     S
C61    C181    1.537   .     S
C61    C62     1.534   .     S
C61    H204    1.109   .     S
C61    H203    1.102   .     S
C62    H391    1.108   .     S
C62    H392    1.111   .     S
C62    H390    1.108   .     S
C63    H208    1.108   .     S
C63    C64     1.524   .     S
C63    H209    1.106   .     S
C63    C182    1.530   .     S
C64    H205    1.107   .     S
C64    H207    1.110   .     S
C64    H206    1.110   .     S
C65    H215    1.102   .     S
C65    C183    1.536   .     S
C65    H214    1.108   .     S
C65    C66     1.526   .     S
C66    H212    1.104   .     S
C66    H210    1.109   .     S
C66    H211    1.111   .     S
C67    H220    1.109   .     S
C67    H219    1.107   .     S
C67    C69     1.532   .     S
C67    C184    1.523   .     S
C68    C127    1.393   .     A
C68    H268    1.085   .     S
C68    C1120   1.396   .     S
C69    H218    1.110   .     S
C69    H216    1.108   .     S
C69    H217    1.111   .     S
C70    C185    1.525   .     S
C70    H226    1.109   .     S
C70    C71     1.533   .     S
C70    H225    1.105   .     S
C71    H221    1.109   .     S
C71    H222    1.111   .     S
C71    H223    1.108   .     S
C72    H231    1.109   .     S
C72    C73     1.532   .     S
C72    H230    1.104   .     S
C72    C186    1.531   .     S
C73    H227    1.109   .     S
C73    H229    1.110   .     S
C73    H228    1.106   .     S
C74    C187    1.530   .     S
C74    C75     1.528   .     S
C74    H236    1.109   .     S
C74    H237    1.110   .     S
C75    H234    1.107   .     S
C75    H232    1.110   .     S
C75    H233    1.110   .     S
C76    C77     1.527   .     S
C76    H241    1.106   .     S
C76    C188    1.532   .     S
C76    H242    1.106   .     S
C77    H238    1.111   .     S
C77    H240    1.110   .     S
C77    H239    1.110   .     S
C78    C80     1.530   .     S
C78    H248    1.108   .     S
C78    C189    1.530   .     S
C78    H247    1.109   .     S
C79    C96     1.493   .     S
C80    H243    1.109   .     S
C80    H244    1.109   .     S
C80    H245    1.110   .     S
C81    H253    1.105   .     S
C81    C191    1.524   .     S
C81    H252    1.109   .     S
C81    C82     1.533   .     S
C82    H249    1.110   .     S
C82    H250    1.109   .     S
C82    H251    1.108   .     S
C83    C192    1.534   .     S
C83    H258    1.110   .     S
C83    C84     1.528   .     S
C83    H259    1.108   .     S
C84    H256    1.107   .     S
C84    H255    1.111   .     S
C84    H254    1.110   .     S
C85    H263    1.109   .     S
C85    C86     1.520   .     S
C85    C193    1.523   .     S
C85    H264    1.110   .     S
C86    H262    1.108   .     S
C86    H260    1.105   .     S
C86    H261    1.110   .     S
C87    H270    1.107   .     S
C87    C88     1.527   .     S
C87    C194    1.529   .     S
C87    H269    1.109   .     S
C88    H265    1.110   .     S
C88    H267    1.107   .     S
C88    H266    1.110   .     S
C89    H275    1.100   .     S
C89    C195    1.534   .     S
C89    C91     1.528   .     S
C89    H274    1.105   .     S
C90    C97     1.496   .     S
C90    C112    1.398   .     A
C90    C1002   1.421   1_545 S
C91    H272    1.106   .     S
C91    H271    1.110   .     S
C91    H273    1.106   .     S
C92    C196    1.531   .     S
C92    H280    1.107   .     S
C92    C93     1.530   .     S
C92    H281    1.102   .     S
C93    H277    1.111   .     S
C93    H276    1.107   .     S
C93    H278    1.110   .     S
C94    H285    1.104   .     S
C94    C197    1.534   .     S
C94    C95     1.529   .     S
C94    H286    1.108   .     S
C95    H283    1.111   .     S
C95    H284    1.106   .     S
C95    H282    1.105   .     S
C96    O442    1.399   .     S
C96    O441    1.222   .     D
C97    O443    1.223   .     D
C97    O444    1.399   .     S
C98    O445    1.223   .     D
C98    O446    1.400   .     S
C98    C101    1.499   .     S
C99    O447    1.221   .     D
C99    C113    1.480   .     S
C99    O449    1.399   .     S
C100   O451    1.399   .     S
C100   C115    1.485   .     S
C100   O450    1.222   .     D
C101   C124    1.398   .     A
C102   O452    1.222   .     D
C102   O453    1.400   .     S
C102   C116    1.496   .     S
C103   C117    1.496   .     S
C103   O455    1.400   .     S
C103   O454    1.222   .     D
C104   O457    1.398   .     S
C104   C118    1.485   .     S
C104   O456    1.223   .     D
C105   O458    1.222   .     D
C105   C119    1.477   .     S
C105   O460    1.398   .     S
C106   O462    1.400   .     S
C106   C120    1.494   .     S
C106   O953    1.222   1_455 S
C107   C121    1.491   .     S
C107   O463    1.222   .     D
C107   O464    1.399   .     S
C108   C122    1.489   .     S
C108   O465    1.223   .     D
C108   O466    1.399   .     S
C109   O468    1.398   .     S
C109   C123    1.488   .     S
C109   O467    1.223   .     D
C110   O471    1.399   .     S
C110   O469    1.222   .     D
C110   C125    1.495   .     S
C111   C126    1.494   .     S
C111   O473    1.399   .     S
C111   O472    1.223   .     D
C112   H305    1.083   .     S
C112   C1113   1.399   1_545 S
C113   C135    1.393   .     A
C113   C512    1.419   1_455 S
C114   O475    1.398   .     S
C114   C127    1.477   .     S
C114   O474    1.222   .     D
C115   C146    1.395   .     A
C115   C1001   1.418   1_545 S
C116   C157    1.399   .     A
C117   C168    1.398   .     A
C117   C511    1.421   .     S
C118   C179    1.400   .     A
C119   C190    1.391   .     A
C122   C1009   1.422   1_545 S
C123   C513    1.423   1_455 S
C124   C130    1.399   .     A
C124   H316    1.083   .     S
C125   C514    1.423   .     S
C126   C1007   1.422   .     S
C128   C129    1.474   1_554 S
C128   C1130   1.396   .     S
C129   C157    1.397   .     A
C129   C128    1.474   1_556 S
C129   C1096   1.399   .     S
C130   C131    1.476   1_554 S
C130   C660    1.398   1_455 S
C131   C135    1.396   .     A
C131   C130    1.476   1_556 S
C131   C671    1.400   1_455 S
C132   C133    1.468   .     S
C132   C682    1.393   1_455 S
C133   C538    1.396   1_455 S
C134   C136    1.469   .     S
C134   C1041   1.398   1_545 S
C135   H327    1.084   .     S
C136   C1052   1.396   1_545 S
C137   O437    1.279   .     A
C137   O1460   1.285   .     S
C138   O448    1.278   .     A
C138   O1378   1.281   1_545 S
C139   O459    1.276   .     A
C139   O887    1.279   1_455 S
C140   O470    1.279   .     A
C140   O888    1.285   .     S
C141   C512    1.469   1_455 S
C141   O397    1.288   .     S
C141   O401    1.277   .     S
C142   O890    1.279   .     A
C142   C511    1.455   .     S
C142   O894    1.277   .     S
C143   O1383   1.279   .     S
C143   O1387   1.276   .     S
C144   O1384   1.277   .     S
C144   O1389   1.281   .     S
C145   O434    1.279   .     A
C145   C200    1.463   .     S
C145   O406    1.281   .     A
C146   H338    1.084   .     S
C146   C1112   1.396   1_545 S
C147   O435    1.279   .     A
C147   O407    1.279   .     A
C148   O432    1.280   .     A
C148   O408    1.279   .     A
C149   O433    1.281   .     A
C149   O409    1.278   .     A
C150   O439    1.272   .     A
C150   O410    1.280   .     A
C151   O440    1.277   .     A
C151   O411    1.275   .     A
C152   O412    1.279   .     A
C152   O436    1.272   .     A
C152   C198    1.459   .     S
C153   O413    1.282   .     A
C153   O438    1.274   .     A
C153   C199    1.463   .     S
C154   O425    1.281   .     A
C154   O414    1.277   .     A
C155   O416    1.282   .     A
C155   O427    1.276   .     A
C156   O423    1.281   .     A
C156   O417    1.277   .     A
C157   H349    1.083   .     S
C158   O418    1.278   .     A
C158   O424    1.277   .     A
C159   O430    1.275   .     A
C159   O419    1.275   .     A
C160   O431    1.283   .     A
C160   O420    1.270   .     A
C161   O428    1.279   .     A
C161   O421    1.274   .     A
C162   O429    1.277   .     A
C162   O422    1.276   .     A
C163   C180    1.416   .     A
C164   C178    1.409   .     A
C165   C177    1.415   .     A
C166   C176    1.412   .     A
C167   C175    1.415   .     A
C168   H360    1.083   .     S
C168   C622    1.398   .     S
C169   C174    1.415   .     A
C170   C173    1.418   .     A
C171   C172    1.412   .     A
C177   C200    1.417   .     A
C178   C199    1.422   .     A
C179   H371    1.083   .     S
C179   C623    1.400   .     S
C180   C198    1.416   .     A
C181   C197    1.419   .     A
C181   C199    1.420   .     A
C182   C198    1.418   .     A
C182   C196    1.415   .     A
C183   C195    1.419   .     A
C184   C200    1.415   .     A
C184   C194    1.412   .     A
C185   C193    1.411   .     A
C186   C192    1.416   .     A
C187   C191    1.414   .     A
C188   C189    1.413   .     A
C190   H382    1.085   .     S
C190   C624    1.393   .     S
H287   O442    1.014   .     S
H288   O444    1.014   .     S
H289   O446    1.014   .     S
H291   O449    1.013   .     S
H292   O451    1.013   .     S
H293   O453    1.014   .     S
H294   O455    1.013   .     S
H295   O457    1.012   .     S
H296   O460    1.012   .     S
H297   O462    1.013   .     S
H298   O464    1.013   .     S
H299   O466    1.014   .     S
H300   O468    1.014   .     S
H302   O471    1.014   .     S
H303   O473    1.014   .     S
H304   O475    1.013   .     S
O393   Zn480   1.951   .     S
O393   Zn488   1.945   .     S
O393   Zn477   1.944   .     S
O393   Zn1468  1.943   1_545 S
O394   Zn479   1.937   .     S
O394   C1122   1.281   .     S
O395   Zn482   1.938   .     S
O395   C631    1.279   .     S
O396   Zn481   1.938   .     S
O396   C632    1.285   1_455 S
O397   Zn491   1.941   .     S
O398   Zn490   1.941   .     S
O398   C634    1.279   1_455 A
O399   Zn485   1.939   .     S
O399   C1127   1.279   1_545 S
O400   Zn477   1.939   .     S
O400   C1128   1.277   1_545 S
O401   Zn487   1.937   .     S
O402   C634    1.277   1_455 S
O402   Zn486   1.937   .     S
O403   Zn489   1.938   .     S
O403   C1127   1.276   1_545 S
O404   Zn483   1.943   .     S
O404   Zn485   1.944   .     S
O404   Zn489   1.945   .     S
O404   Zn1463  1.951   1_545 S
O405   Zn488   1.938   .     S
O405   C1128   1.281   1_545 S
O406   Zn480   1.935   .     S
O407   Zn479   1.935   .     S
O408   Zn482   1.940   .     S
O409   Zn481   1.940   .     S
O410   Zn484   1.937   .     S
O411   Zn483   1.937   .     S
O412   Zn478   1.937   .     S
O413   Zn492   1.937   .     S
O414   Zn479   1.936   .     S
O415   Zn486   1.951   .     S
O415   Zn490   1.943   .     S
O415   Zn974   1.945   1_455 S
O415   Zn478   1.944   .     S
O416   Zn480   1.936   .     S
O417   Zn492   1.939   .     S
O418   Zn478   1.939   .     S
O419   Zn483   1.938   .     S
O420   Zn484   1.938   .     S
O421   Zn481   1.936   .     S
O422   Zn482   1.936   .     S
O423   Zn979   1.935   .     S
O424   Zn486   1.935   .     S
O425   Zn1473  1.940   .     S
O426   Zn487   1.951   .     S
O426   Zn491   1.943   .     S
O426   Zn984   1.944   1_455 S
O426   Zn481   1.945   .     S
O427   Zn488   1.940   .     S
O428   Zn491   1.937   .     S
O429   Zn982   1.937   .     S
O430   Zn485   1.937   .     S
O431   Zn1461  1.937   .     S
O432   Zn978   1.936   .     S
O433   Zn487   1.936   .     S
O434   Zn477   1.939   .     S
O435   Zn1469  1.939   .     S
O436   Zn490   1.938   .     S
O437   Zn484   1.941   .     S
O438   Zn983   1.938   .     S
O439   Zn1472  1.936   .     S
O440   Zn489   1.936   .     S
O448   Zn483   1.941   .     S
O459   Zn478   1.939   .     S
O461   C598    1.222   .     S
O470   Zn492   1.939   .     S
O476   Zn480   1.937   .     S
O476   C1121   1.285   1_545 S
Zn477  O1415   1.937   1_545 S
Zn479  O1388   1.951   .     S
Zn482  O907    1.945   .     S
Zn484  O1377   1.943   .     S
Zn485  O1419   1.939   1_545 S
Zn486  O924    1.936   1_455 S
Zn487  O915    1.935   1_455 S
Zn488  O1423   1.936   1_545 S
Zn489  O1409   1.940   1_545 S
Zn490  O921    1.937   1_455 S
Zn491  O930    1.938   1_455 S
Zn492  O918    1.944   .     S
C493   C571    1.400   .     A
C493   C620    1.399   .     A
C493   H693    1.083   .     S
C494   H694    1.084   .     S
C494   C612    1.396   .     A
C494   C625    1.396   .     A
C495   C668    1.418   .     A
C495   C639    1.458   .     S
C495   C675    1.421   .     A
C496   C640    1.461   .     S
C496   C678    1.422   .     A
C496   C667    1.420   .     A
C497   C666    1.417   .     A
C497   C641    1.461   .     S
C497   C677    1.412   .     A
C498   C680    1.415   .     A
C498   C665    1.418   .     A
C498   C642    1.457   .     S
C499   C664    1.413   .     A
C499   C679    1.412   .     A
C499   C643    1.457   .     S
C500   C663    1.414   .     A
C500   C653    1.459   .     S
C500   C683    1.419   .     A
C501   C662    1.420   .     A
C501   C681    1.418   .     A
C501   C654    1.459   .     S
C502   C646    1.459   .     S
C502   C685    1.413   .     A
C502   C661    1.414   .     A
C503   C684    1.414   .     A
C503   C659    1.416   .     A
C503   C647    1.459   .     S
C504   C648    1.458   .     S
C504   C687    1.420   .     A
C504   C658    1.415   .     A
C505   H705    1.084   .     S
C505   C613    1.397   .     A
C505   C626    1.395   .     A
C506   C650    1.453   .     S
C506   C686    1.411   .     A
C506   C657    1.414   .     A
C507   C689    1.420   .     A
C507   C656    1.413   .     A
C507   C651    1.456   .     S
C508   C652    1.462   .     S
C508   C688    1.414   .     A
C508   C655    1.418   .     A
C509   C636    1.464   .     S
C509   C571    1.422   .     A
C509   C1591   1.418   .     S
C510   C608    1.422   .     A
C510   C635    1.457   .     S
C510   C1566   1.421   .     S
C511   C593    1.421   .     A
C512   C610    1.417   .     A
C512   C113    1.419   1_655 S
C512   C141    1.469   1_655 S
C513   C611    1.420   .     A
C513   C632    1.473   .     S
C513   C123    1.423   1_655 S
C514   C612    1.420   .     A
C514   C631    1.457   .     S
C515   C630    1.460   .     S
C515   C613    1.420   .     A
C515   C1602   1.422   1_545 S
C516   H716    1.084   .     S
C516   C628    1.398   .     A
C516   C614    1.401   .     A
C517   C629    1.469   .     S
C517   C619    1.416   .     A
C517   C1598   1.422   .     S
C518   C655    1.528   .     S
C518   H798    1.104   .     S
C518   C519    1.535   .     S
C518   H799    1.109   .     S
C519   H771    1.108   .     S
C519   H782    1.111   .     S
C519   H793    1.110   .     S
C520   H803    1.109   .     S
C520   C521    1.531   .     S
C520   H804    1.109   .     S
C520   C656    1.535   .     S
C521   H802    1.110   .     S
C521   H801    1.110   .     S
C521   H800    1.107   .     S
C522   H810    1.109   .     S
C522   C657    1.529   .     S
C522   C523    1.528   .     S
C522   H809    1.108   .     S
C523   H806    1.110   .     S
C523   H807    1.107   .     S
C523   H805    1.110   .     S
C524   C658    1.532   .     S
C524   H815    1.106   .     S
C524   H814    1.106   .     S
C524   C525    1.528   .     S
C525   H812    1.111   .     S
C525   H811    1.109   .     S
C525   H813    1.110   .     S
C526   H820    1.100   .     S
C526   C659    1.531   .     S
C526   C528    1.526   .     S
C526   H821    1.108   .     S
C527   C624    1.397   .     A
C527   H727    1.084   .     S
C527   C615    1.403   .     A
C528   H817    1.110   .     S
C528   H818    1.110   .     S
C528   H816    1.107   .     S
C529   C530    1.529   .     S
C529   H825    1.103   .     S
C529   C661    1.530   .     S
C529   H826    1.110   .     S
C530   H822    1.110   .     S
C530   H823    1.108   .     S
C530   H824    1.110   .     S
C531   H831    1.108   .     S
C531   C532    1.527   .     S
C531   C662    1.534   .     S
C531   H832    1.104   .     S
C532   H827    1.106   .     S
C532   H828    1.111   .     S
C532   H829    1.103   .     S
C533   C534    1.528   .     S
C533   C663    1.530   .     S
C533   H836    1.107   .     S
C533   H837    1.107   .     S
C534   H833    1.109   .     S
C534   H834    1.111   .     S
C534   H835    1.110   .     S
C535   C536    1.528   .     S
C535   H842    1.105   .     S
C535   H843    1.107   .     S
C535   C664    1.522   .     S
C536   H839    1.111   .     S
C536   H838    1.110   .     S
C536   H840    1.110   .     S
C537   C539    1.529   .     S
C537   C665    1.537   .     S
C537   H848    1.102   .     S
C537   H847    1.109   .     S
C538   C617    1.400   .     A
C538   H738    1.084   .     S
C538   C133    1.396   1_655 S
C539   H845    1.108   .     S
C539   H844    1.107   .     S
C539   H846    1.110   .     S
C540   H854    1.107   .     S
C540   C666    1.523   .     S
C540   C541    1.519   .     S
C540   H853    1.105   .     S
C541   H849    1.106   .     S
C541   H851    1.107   .     S
C541   H850    1.110   .     S
C542   C667    1.534   .     S
C542   H858    1.101   .     S
C542   C543    1.525   .     S
C542   H859    1.108   .     S
C543   H856    1.110   .     S
C543   H857    1.109   .     S
C543   H855    1.105   .     S
C544   H865    1.108   .     S
C544   C545    1.530   .     S
C544   C668    1.530   .     S
C544   H864    1.107   .     S
C545   H862    1.108   .     S
C545   H860    1.109   .     S
C545   H861    1.109   .     S
C546   H869    1.109   .     S
C546   C547    1.530   .     S
C546   H870    1.105   .     S
C546   C669    1.524   .     S
C547   H868    1.108   .     S
C547   H866    1.110   .     S
C547   H867    1.109   .     S
C548   C670    1.526   .     S
C548   H875    1.104   .     S
C548   C550    1.533   .     S
C548   H876    1.104   .     S
C549   H749    1.084   .     S
C549   C618    1.401   .     A
C549   C1610   1.398   .     S
C550   H872    1.108   .     S
C550   H873    1.109   .     S
C550   H871    1.108   .     S
C551   C552    1.528   .     S
C551   H881    1.108   .     S
C551   C672    1.534   .     S
C551   H880    1.109   .     S
C552   H878    1.110   .     S
C552   H877    1.106   .     S
C552   H879    1.109   .     S
C553   C673    1.537   .     S
C553   C554    1.534   .     S
C553   H696    1.109   .     S
C553   H695    1.102   .     S
C554   H883    1.108   .     S
C554   H884    1.111   .     S
C554   H882    1.108   .     S
C555   H700    1.108   .     S
C555   C556    1.524   .     S
C555   H701    1.106   .     S
C555   C674    1.530   .     S
C556   H697    1.107   .     S
C556   H699    1.110   .     S
C556   H698    1.110   .     S
C557   H707    1.102   .     S
C557   C675    1.536   .     S
C557   H706    1.108   .     S
C557   C558    1.526   .     S
C558   H704    1.104   .     S
C558   H702    1.109   .     S
C558   H703    1.111   .     S
C559   H712    1.109   .     S
C559   H711    1.107   .     S
C559   C561    1.532   .     S
C559   C676    1.523   .     S
C560   C619    1.393   .     A
C560   H760    1.085   .     S
C560   C1612   1.396   .     S
C561   H710    1.110   .     S
C561   H708    1.108   .     S
C561   H709    1.111   .     S
C562   C677    1.525   .     S
C562   H718    1.109   .     S
C562   C563    1.533   .     S
C562   H717    1.105   .     S
C563   H713    1.109   .     S
C563   H714    1.111   .     S
C563   H715    1.108   .     S
C564   H723    1.109   .     S
C564   C565    1.532   .     S
C564   H722    1.104   .     S
C564   C678    1.531   .     S
C565   H719    1.109   .     S
C565   H721    1.110   .     S
C565   H720    1.106   .     S
C566   C679    1.530   .     S
C566   C567    1.528   .     S
C566   H728    1.109   .     S
C566   H729    1.110   .     S
C567   H726    1.107   .     S
C567   H724    1.110   .     S
C567   H725    1.110   .     S
C568   C569    1.527   .     S
C568   H733    1.106   .     S
C568   C680    1.532   .     S
C568   H734    1.106   .     S
C569   H730    1.111   .     S
C569   H732    1.110   .     S
C569   H731    1.110   .     S
C570   C572    1.530   .     S
C570   H740    1.108   .     S
C570   C681    1.530   .     S
C570   H739    1.109   .     S
C571   C588    1.493   .     S
C572   H735    1.109   .     S
C572   H736    1.109   .     S
C572   H737    1.110   .     S
C573   H745    1.105   .     S
C573   C683    1.524   .     S
C573   H744    1.109   .     S
C573   C574    1.533   .     S
C574   H741    1.110   .     S
C574   H742    1.109   .     S
C574   H743    1.108   .     S
C575   C684    1.534   .     S
C575   H750    1.110   .     S
C575   C576    1.528   .     S
C575   H751    1.108   .     S
C576   H748    1.107   .     S
C576   H747    1.111   .     S
C576   H746    1.110   .     S
C577   H755    1.109   .     S
C577   C578    1.520   .     S
C577   C685    1.523   .     S
C577   H756    1.110   .     S
C578   H754    1.108   .     S
C578   H752    1.105   .     S
C578   H753    1.110   .     S
C579   H762    1.107   .     S
C579   C580    1.527   .     S
C579   C686    1.529   .     S
C579   H761    1.109   .     S
C580   H757    1.110   .     S
C580   H759    1.107   .     S
C580   H758    1.110   .     S
C581   H767    1.100   .     S
C581   C687    1.534   .     S
C581   C583    1.528   .     S
C581   H766    1.105   .     S
C582   C589    1.496   .     S
C582   C604    1.398   .     A
C582   C1494   1.421   1_545 S
C583   H764    1.106   .     S
C583   H763    1.110   .     S
C583   H765    1.106   .     S
C584   C688    1.531   .     S
C584   H772    1.107   .     S
C584   C585    1.530   .     S
C584   H773    1.102   .     S
C585   H769    1.111   .     S
C585   H768    1.107   .     S
C585   H770    1.110   .     S
C586   H777    1.104   .     S
C586   C689    1.534   .     S
C586   C587    1.529   .     S
C586   H778    1.108   .     S
C587   H775    1.111   .     S
C587   H776    1.106   .     S
C587   H774    1.105   .     S
C588   O934    1.399   .     S
C588   O933    1.222   .     D
C589   O935    1.223   .     D
C589   O936    1.399   .     S
C590   O937    1.223   .     D
C590   O938    1.400   .     S
C590   C593    1.499   .     S
C591   O939    1.221   .     D
C591   C605    1.480   .     S
C591   O941    1.399   .     S
C592   O943    1.399   .     S
C592   C607    1.485   .     S
C592   O942    1.222   .     D
C593   C616    1.398   .     A
C594   O944    1.222   .     D
C594   O945    1.400   .     S
C594   C608    1.496   .     S
C595   C609    1.496   .     S
C595   O947    1.400   .     S
C595   O946    1.222   .     D
C596   O949    1.398   .     S
C596   C610    1.485   .     S
C596   O948    1.223   .     D
C597   O950    1.222   .     D
C597   C611    1.477   .     S
C597   O952    1.398   .     S
C598   O954    1.400   .     S
C598   C612    1.494   .     S
C599   C613    1.491   .     S
C599   O955    1.222   .     D
C599   O956    1.399   .     S
C600   C614    1.489   .     S
C600   O957    1.223   .     D
C600   O958    1.399   .     S
C601   O960    1.398   .     S
C601   C615    1.488   .     S
C601   O959    1.223   .     D
C602   O963    1.399   .     S
C602   O961    1.222   .     D
C602   C617    1.495   .     S
C603   C618    1.494   .     S
C603   O965    1.399   .     S
C603   O964    1.223   .     D
C604   H797    1.083   .     S
C604   C1605   1.399   1_545 S
C605   C627    1.393   .     A
C606   O967    1.398   .     S
C606   C619    1.477   .     S
C606   O966    1.222   .     D
C607   C638    1.395   .     A
C607   C1493   1.418   1_545 S
C608   C649    1.399   .     A
C609   C660    1.398   .     A
C609   C19     1.421   1_655 S
C610   C671    1.400   .     A
C611   C682    1.391   .     A
C614   C1501   1.422   1_545 S
C616   C622    1.399   .     A
C616   H808    1.083   .     S
C617   C22     1.423   1_655 S
C618   C1499   1.422   .     S
C620   C621    1.474   1_554 S
C620   C1622   1.396   .     S
C621   C649    1.397   .     A
C621   C620    1.474   1_556 S
C621   C1588   1.399   .     S
C622   C623    1.476   1_554 S
C623   C627    1.396   .     A
C623   C622    1.476   1_556 S
C624   C625    1.468   .     S
C626   C628    1.469   .     S
C626   C1533   1.398   1_545 S
C627   H819    1.084   .     S
C628   C1544   1.396   1_545 S
C629   O929    1.279   .     A
C629   O1952   1.285   .     S
C630   O940    1.278   .     A
C630   O1870   1.281   1_545 S
C631   O951    1.276   .     A
C632   O962    1.279   .     A
C632   O396    1.285   1_655 S
C633   O889    1.288   .     S
C633   O893    1.277   .     S
C634   O398    1.279   1_655 A
C634   C19     1.455   1_655 S
C634   O402    1.277   1_655 S
C635   O1875   1.279   .     S
C635   O1879   1.276   .     S
C636   O1876   1.277   .     S
C636   O1881   1.281   .     S
C637   O926    1.279   .     A
C637   C692    1.463   .     S
C637   O898    1.281   .     A
C638   H830    1.084   .     S
C638   C1604   1.396   1_545 S
C639   O927    1.279   .     A
C639   O899    1.279   .     A
C640   O924    1.280   .     A
C640   O900    1.279   .     A
C641   O925    1.281   .     A
C641   O901    1.278   .     A
C642   O931    1.272   .     A
C642   O902    1.280   .     A
C643   O932    1.277   .     A
C643   O903    1.275   .     A
C644   O904    1.279   .     A
C644   O928    1.272   .     A
C644   C690    1.459   .     S
C645   O905    1.282   .     A
C645   O930    1.274   .     A
C645   C691    1.463   .     S
C646   O917    1.281   .     A
C646   O906    1.277   .     A
C647   O908    1.282   .     A
C647   O919    1.276   .     A
C648   O915    1.281   .     A
C648   O909    1.277   .     A
C649   H841    1.083   .     S
C650   O910    1.278   .     A
C650   O916    1.277   .     A
C651   O922    1.275   .     A
C651   O911    1.275   .     A
C652   O923    1.283   .     A
C652   O912    1.270   .     A
C653   O920    1.279   .     A
C653   O913    1.274   .     A
C654   O921    1.277   .     A
C654   O914    1.276   .     A
C655   C672    1.416   .     A
C656   C670    1.409   .     A
C657   C669    1.415   .     A
C658   C668    1.412   .     A
C659   C667    1.415   .     A
C660   H852    1.083   .     S
C660   C130    1.398   1_655 S
C661   C666    1.415   .     A
C662   C665    1.418   .     A
C663   C664    1.412   .     A
C669   C692    1.417   .     A
C670   C691    1.422   .     A
C671   H863    1.083   .     S
C671   C131    1.400   1_655 S
C672   C690    1.416   .     A
C673   C689    1.419   .     A
C673   C691    1.420   .     A
C674   C690    1.418   .     A
C674   C688    1.415   .     A
C675   C687    1.419   .     A
C676   C692    1.415   .     A
C676   C686    1.412   .     A
C677   C685    1.411   .     A
C678   C684    1.416   .     A
C679   C683    1.414   .     A
C680   C681    1.413   .     A
C682   H874    1.085   .     S
C682   C132    1.393   1_655 S
H779   O934    1.014   .     S
H780   O936    1.014   .     S
H781   O938    1.014   .     S
H783   O941    1.013   .     S
H784   O943    1.013   .     S
H785   O945    1.014   .     S
H786   O947    1.013   .     S
H787   O949    1.012   .     S
H788   O952    1.012   .     S
H789   O954    1.013   .     S
H790   O956    1.013   .     S
H791   O958    1.014   .     S
H792   O960    1.014   .     S
H794   O963    1.014   .     S
H795   O965    1.014   .     S
H796   O967    1.013   .     S
O885   Zn972   1.951   .     S
O885   Zn980   1.945   .     S
O885   Zn969   1.944   .     S
O885   Zn1960  1.943   1_545 S
O886   Zn971   1.937   .     S
O886   C1614   1.281   .     S
O887   Zn974   1.938   .     S
O887   C139    1.279   1_655 S
O888   Zn973   1.938   .     S
O889   Zn983   1.941   .     S
O890   Zn982   1.941   .     S
O891   Zn977   1.939   .     S
O891   C1619   1.279   1_545 S
O892   Zn969   1.939   .     S
O892   C1620   1.277   1_545 S
O893   Zn979   1.937   .     S
O894   Zn978   1.937   .     S
O895   Zn981   1.938   .     S
O895   C1619   1.276   1_545 S
O896   Zn975   1.943   .     S
O896   Zn977   1.944   .     S
O896   Zn981   1.945   .     S
O896   Zn1955  1.951   1_545 S
O897   Zn980   1.938   .     S
O897   C1620   1.281   1_545 S
O898   Zn972   1.935   .     S
O899   Zn971   1.935   .     S
O900   Zn974   1.940   .     S
O901   Zn973   1.940   .     S
O902   Zn976   1.937   .     S
O903   Zn975   1.937   .     S
O904   Zn970   1.937   .     S
O905   Zn984   1.937   .     S
O906   Zn971   1.936   .     S
O907   Zn978   1.951   .     S
O907   Zn982   1.943   .     S
O907   Zn970   1.944   .     S
O908   Zn972   1.936   .     S
O909   Zn984   1.939   .     S
O910   Zn970   1.939   .     S
O911   Zn975   1.938   .     S
O912   Zn976   1.938   .     S
O913   Zn973   1.936   .     S
O914   Zn974   1.936   .     S
O915   Zn487   1.935   1_655 S
O916   Zn978   1.935   .     S
O917   Zn1965  1.940   .     S
O918   Zn979   1.951   .     S
O918   Zn983   1.943   .     S
O918   Zn973   1.945   .     S
O919   Zn980   1.940   .     S
O920   Zn983   1.937   .     S
O921   Zn490   1.937   1_655 S
O922   Zn977   1.937   .     S
O923   Zn1953  1.937   .     S
O924   Zn486   1.936   1_655 S
O925   Zn979   1.936   .     S
O926   Zn969   1.939   .     S
O927   Zn1961  1.939   .     S
O928   Zn982   1.938   .     S
O929   Zn976   1.941   .     S
O930   Zn491   1.938   1_655 S
O931   Zn1964  1.936   .     S
O932   Zn981   1.936   .     S
O940   Zn975   1.941   .     S
O951   Zn970   1.939   .     S
O953   C106    1.222   1_655 S
O962   Zn984   1.939   .     S
O968   Zn972   1.937   .     S
O968   C1613   1.285   1_545 S
Zn969  O1907   1.937   1_545 S
Zn971  O1880   1.951   .     S
Zn974  O415    1.945   1_655 S
Zn976  O1869   1.943   .     S
Zn977  O1911   1.939   1_545 S
Zn980  O1915   1.936   1_545 S
Zn981  O1901   1.940   1_545 S
Zn984  O426    1.944   1_655 S
C985   C1063   1.400   .     A
C985   C1112   1.399   .     A
C985   H1185   1.083   .     S
C986   H1186   1.084   .     S
C986   C1104   1.396   .     A
C986   C1117   1.396   .     A
C987   C1160   1.418   .     A
C987   C1131   1.458   .     S
C987   C1167   1.421   .     A
C988   C1132   1.461   .     S
C988   C1170   1.422   .     A
C988   C1159   1.420   .     A
C989   C1158   1.417   .     A
C989   C1133   1.461   .     S
C989   C1169   1.412   .     A
C990   C1172   1.415   .     A
C990   C1157   1.418   .     A
C990   C1134   1.457   .     S
C991   C1156   1.413   .     A
C991   C1171   1.412   .     A
C991   C1135   1.457   .     S
C992   C1155   1.414   .     A
C992   C1145   1.459   .     S
C992   C1175   1.419   .     A
C993   C1154   1.420   .     A
C993   C1173   1.418   .     A
C993   C1146   1.459   .     S
C994   C1138   1.459   .     S
C994   C1177   1.413   .     A
C994   C1153   1.414   .     A
C995   C1176   1.414   .     A
C995   C1151   1.416   .     A
C995   C1139   1.459   .     S
C996   C1140   1.458   .     S
C996   C1179   1.420   .     A
C996   C1150   1.415   .     A
C997   H1197   1.084   .     S
C997   C1105   1.397   .     A
C997   C1118   1.395   .     A
C998   C1142   1.453   .     S
C998   C1178   1.411   .     A
C998   C1149   1.414   .     A
C999   C1181   1.420   .     A
C999   C1148   1.413   .     A
C999   C1143   1.456   .     S
C1000  C1144   1.462   .     S
C1000  C1180   1.414   .     A
C1000  C1147   1.418   .     A
C1001  C1128   1.464   .     S
C1001  C1063   1.422   .     A
C1001  C115    1.418   1_565 S
C1002  C1100   1.422   .     A
C1002  C1127   1.457   .     S
C1002  C90     1.421   1_565 S
C1003  C1085   1.421   .     A
C1003  C1593   1.421   1_455 S
C1003  C1618   1.455   1_455 S
C1004  C1102   1.417   .     A
C1004  C1589   1.419   .     S
C1004  C1617   1.469   .     S
C1005  C1103   1.420   .     A
C1005  C1124   1.473   .     S
C1005  C1599   1.423   .     S
C1006  C1104   1.420   .     A
C1006  C1123   1.457   .     S
C1006  C1601   1.423   1_455 S
C1007  C1122   1.460   .     S
C1007  C1105   1.420   .     A
C1008  H1208   1.084   .     S
C1008  C1120   1.398   .     A
C1008  C1106   1.401   .     A
C1009  C1121   1.469   .     S
C1009  C1111   1.416   .     A
C1009  C122    1.422   1_565 S
C1010  C1147   1.528   .     S
C1010  H1290   1.104   .     S
C1010  C1011   1.535   .     S
C1010  H1291   1.109   .     S
C1011  H1263   1.108   .     S
C1011  H1274   1.111   .     S
C1011  H1285   1.110   .     S
C1012  H1295   1.109   .     S
C1012  C1013   1.531   .     S
C1012  H1296   1.109   .     S
C1012  C1148   1.535   .     S
C1013  H1294   1.110   .     S
C1013  H1293   1.110   .     S
C1013  H1292   1.107   .     S
C1014  H1302   1.109   .     S
C1014  C1149   1.529   .     S
C1014  C1015   1.528   .     S
C1014  H1301   1.108   .     S
C1015  H1298   1.110   .     S
C1015  H1299   1.107   .     S
C1015  H1297   1.110   .     S
C1016  C1150   1.532   .     S
C1016  H1307   1.106   .     S
C1016  H1306   1.106   .     S
C1016  C1017   1.528   .     S
C1017  H1304   1.111   .     S
C1017  H1303   1.109   .     S
C1017  H1305   1.110   .     S
C1018  H1312   1.100   .     S
C1018  C1151   1.531   .     S
C1018  C1020   1.526   .     S
C1018  H1313   1.108   .     S
C1019  C1116   1.397   .     A
C1019  H1219   1.084   .     S
C1019  C1107   1.403   .     A
C1020  H1309   1.110   .     S
C1020  H1310   1.110   .     S
C1020  H1308   1.107   .     S
C1021  C1022   1.529   .     S
C1021  H1317   1.103   .     S
C1021  C1153   1.530   .     S
C1021  H1318   1.110   .     S
C1022  H1314   1.110   .     S
C1022  H1315   1.108   .     S
C1022  H1316   1.110   .     S
C1023  H1323   1.108   .     S
C1023  C1024   1.527   .     S
C1023  C1154   1.534   .     S
C1023  H1324   1.104   .     S
C1024  H1319   1.106   .     S
C1024  H1320   1.111   .     S
C1024  H1321   1.103   .     S
C1025  C1026   1.528   .     S
C1025  C1155   1.530   .     S
C1025  H1328   1.107   .     S
C1025  H1329   1.107   .     S
C1026  H1325   1.109   .     S
C1026  H1326   1.111   .     S
C1026  H1327   1.110   .     S
C1027  C1028   1.528   .     S
C1027  H1334   1.105   .     S
C1027  H1335   1.107   .     S
C1027  C1156   1.522   .     S
C1028  H1331   1.111   .     S
C1028  H1330   1.110   .     S
C1028  H1332   1.110   .     S
C1029  C1031   1.529   .     S
C1029  C1157   1.537   .     S
C1029  H1340   1.102   .     S
C1029  H1339   1.109   .     S
C1030  C1109   1.400   .     A
C1030  H1230   1.084   .     S
C1030  C1609   1.396   .     S
C1031  H1337   1.108   .     S
C1031  H1336   1.107   .     S
C1031  H1338   1.110   .     S
C1032  H1346   1.107   .     S
C1032  C1158   1.523   .     S
C1032  C1033   1.519   .     S
C1032  H1345   1.105   .     S
C1033  H1341   1.106   .     S
C1033  H1343   1.107   .     S
C1033  H1342   1.110   .     S
C1034  C1159   1.534   .     S
C1034  H1350   1.101   .     S
C1034  C1035   1.525   .     S
C1034  H1351   1.108   .     S
C1035  H1348   1.110   .     S
C1035  H1349   1.109   .     S
C1035  H1347   1.105   .     S
C1036  H1357   1.108   .     S
C1036  C1037   1.530   .     S
C1036  C1160   1.530   .     S
C1036  H1356   1.107   .     S
C1037  H1354   1.108   .     S
C1037  H1352   1.109   .     S
C1037  H1353   1.109   .     S
C1038  H1361   1.109   .     S
C1038  C1039   1.530   .     S
C1038  H1362   1.105   .     S
C1038  C1161   1.524   .     S
C1039  H1360   1.108   .     S
C1039  H1358   1.110   .     S
C1039  H1359   1.109   .     S
C1040  C1162   1.526   .     S
C1040  H1367   1.104   .     S
C1040  C1042   1.533   .     S
C1040  H1368   1.104   .     S
C1041  H1241   1.084   .     S
C1041  C1110   1.401   .     A
C1041  C134    1.398   1_565 S
C1042  H1364   1.108   .     S
C1042  H1365   1.109   .     S
C1042  H1363   1.108   .     S
C1043  C1044   1.528   .     S
C1043  H1373   1.108   .     S
C1043  C1164   1.534   .     S
C1043  H1372   1.109   .     S
C1044  H1370   1.110   .     S
C1044  H1369   1.106   .     S
C1044  H1371   1.109   .     S
C1045  C1165   1.537   .     S
C1045  C1046   1.534   .     S
C1045  H1188   1.109   .     S
C1045  H1187   1.102   .     S
C1046  H1375   1.108   .     S
C1046  H1376   1.111   .     S
C1046  H1374   1.108   .     S
C1047  H1192   1.108   .     S
C1047  C1048   1.524   .     S
C1047  H1193   1.106   .     S
C1047  C1166   1.530   .     S
C1048  H1189   1.107   .     S
C1048  H1191   1.110   .     S
C1048  H1190   1.110   .     S
C1049  H1199   1.102   .     S
C1049  C1167   1.536   .     S
C1049  H1198   1.108   .     S
C1049  C1050   1.526   .     S
C1050  H1196   1.104   .     S
C1050  H1194   1.109   .     S
C1050  H1195   1.111   .     S
C1051  H1204   1.109   .     S
C1051  H1203   1.107   .     S
C1051  C1053   1.532   .     S
C1051  C1168   1.523   .     S
C1052  C1111   1.393   .     A
C1052  H1252   1.085   .     S
C1052  C136    1.396   1_565 S
C1053  H1202   1.110   .     S
C1053  H1200   1.108   .     S
C1053  H1201   1.111   .     S
C1054  C1169   1.525   .     S
C1054  H1210   1.109   .     S
C1054  C1055   1.533   .     S
C1054  H1209   1.105   .     S
C1055  H1205   1.109   .     S
C1055  H1206   1.111   .     S
C1055  H1207   1.108   .     S
C1056  H1215   1.109   .     S
C1056  C1057   1.532   .     S
C1056  H1214   1.104   .     S
C1056  C1170   1.531   .     S
C1057  H1211   1.109   .     S
C1057  H1213   1.110   .     S
C1057  H1212   1.106   .     S
C1058  C1171   1.530   .     S
C1058  C1059   1.528   .     S
C1058  H1220   1.109   .     S
C1058  H1221   1.110   .     S
C1059  H1218   1.107   .     S
C1059  H1216   1.110   .     S
C1059  H1217   1.110   .     S
C1060  C1061   1.527   .     S
C1060  H1225   1.106   .     S
C1060  C1172   1.532   .     S
C1060  H1226   1.106   .     S
C1061  H1222   1.111   .     S
C1061  H1224   1.110   .     S
C1061  H1223   1.110   .     S
C1062  C1064   1.530   .     S
C1062  H1232   1.108   .     S
C1062  C1173   1.530   .     S
C1062  H1231   1.109   .     S
C1063  C1080   1.493   .     S
C1064  H1227   1.109   .     S
C1064  H1228   1.109   .     S
C1064  H1229   1.110   .     S
C1065  H1237   1.105   .     S
C1065  C1175   1.524   .     S
C1065  H1236   1.109   .     S
C1065  C1066   1.533   .     S
C1066  H1233   1.110   .     S
C1066  H1234   1.109   .     S
C1066  H1235   1.108   .     S
C1067  C1176   1.534   .     S
C1067  H1242   1.110   .     S
C1067  C1068   1.528   .     S
C1067  H1243   1.108   .     S
C1068  H1240   1.107   .     S
C1068  H1239   1.111   .     S
C1068  H1238   1.110   .     S
C1069  H1247   1.109   .     S
C1069  C1070   1.520   .     S
C1069  C1177   1.523   .     S
C1069  H1248   1.110   .     S
C1070  H1246   1.108   .     S
C1070  H1244   1.105   .     S
C1070  H1245   1.110   .     S
C1071  H1254   1.107   .     S
C1071  C1072   1.527   .     S
C1071  C1178   1.529   .     S
C1071  H1253   1.109   .     S
C1072  H1249   1.110   .     S
C1072  H1251   1.107   .     S
C1072  H1250   1.110   .     S
C1073  H1259   1.100   .     S
C1073  C1179   1.534   .     S
C1073  C1075   1.528   .     S
C1073  H1258   1.105   .     S
C1074  C1081   1.496   .     S
C1074  C1096   1.398   .     A
C1075  H1256   1.106   .     S
C1075  H1255   1.110   .     S
C1075  H1257   1.106   .     S
C1076  C1180   1.531   .     S
C1076  H1264   1.107   .     S
C1076  C1077   1.530   .     S
C1076  H1265   1.102   .     S
C1077  H1261   1.111   .     S
C1077  H1260   1.107   .     S
C1077  H1262   1.110   .     S
C1078  H1269   1.104   .     S
C1078  C1181   1.534   .     S
C1078  C1079   1.529   .     S
C1078  H1270   1.108   .     S
C1079  H1267   1.111   .     S
C1079  H1268   1.106   .     S
C1079  H1266   1.105   .     S
C1080  O1426   1.399   .     S
C1080  O1425   1.222   .     D
C1081  O1427   1.223   .     D
C1081  O1428   1.399   .     S
C1082  O1429   1.223   .     D
C1082  O1430   1.400   .     S
C1082  C1085   1.499   .     S
C1083  O1431   1.221   .     D
C1083  C1097   1.480   .     S
C1083  O1433   1.399   .     S
C1084  O1435   1.399   .     S
C1084  C1099   1.485   .     S
C1084  O1434   1.222   .     D
C1085  C1108   1.398   .     A
C1086  O1436   1.222   .     D
C1086  O1437   1.400   .     S
C1086  C1100   1.496   .     S
C1087  C1101   1.496   .     S
C1087  O1439   1.400   .     S
C1087  O1438   1.222   .     D
C1088  O1441   1.398   .     S
C1088  C1102   1.485   .     S
C1088  O1440   1.223   .     D
C1089  O1442   1.222   .     D
C1089  C1103   1.477   .     S
C1089  O1444   1.398   .     S
C1090  O1446   1.400   .     S
C1090  C1104   1.494   .     S
C1090  O1937   1.222   1_455 S
C1091  C1105   1.491   .     S
C1091  O1447   1.222   .     D
C1091  O1448   1.399   .     S
C1092  C1106   1.489   .     S
C1092  O1449   1.223   .     D
C1092  O1450   1.399   .     S
C1093  O1452   1.398   .     S
C1093  C1107   1.488   .     S
C1093  O1451   1.223   .     D
C1094  O1455   1.399   .     S
C1094  O1453   1.222   .     D
C1094  C1109   1.495   .     S
C1095  C1110   1.494   .     S
C1095  O1457   1.399   .     S
C1095  O1456   1.223   .     D
C1096  H1289   1.083   .     S
C1097  C1119   1.393   .     A
C1097  C1496   1.419   1_455 S
C1098  O1459   1.398   .     S
C1098  C1111   1.477   .     S
C1098  O1458   1.222   .     D
C1099  C1130   1.395   .     A
C1100  C1141   1.399   .     A
C1101  C1152   1.398   .     A
C1101  C1495   1.421   .     S
C1102  C1163   1.400   .     A
C1103  C1174   1.391   .     A
C1107  C1497   1.423   1_455 S
C1108  C1114   1.399   .     A
C1108  H1300   1.083   .     S
C1109  C1498   1.423   .     S
C1110  C23     1.422   1_565 S
C1112  C1113   1.474   1_554 S
C1112  C146    1.396   1_565 S
C1113  C1141   1.397   .     A
C1113  C1112   1.474   1_556 S
C1113  C112    1.399   1_565 S
C1114  C1115   1.476   1_554 S
C1114  C1644   1.398   1_455 S
C1115  C1119   1.396   .     A
C1115  C1114   1.476   1_556 S
C1115  C1655   1.400   1_455 S
C1116  C1117   1.468   .     S
C1116  C1666   1.393   1_455 S
C1117  C1522   1.396   1_455 S
C1118  C1120   1.469   .     S
C1119  H1311   1.084   .     S
C1121  O1421   1.279   .     A
C1121  O476    1.285   1_565 S
C1122  O1432   1.278   .     A
C1123  O1443   1.276   .     A
C1123  O1871   1.279   1_455 S
C1124  O1454   1.279   .     A
C1124  O1872   1.285   .     S
C1125  C1496   1.469   1_455 S
C1125  O1381   1.288   .     S
C1125  O1385   1.277   .     S
C1126  O1874   1.279   .     A
C1126  C1495   1.455   .     S
C1126  O1878   1.277   .     S
C1127  O399    1.279   1_565 S
C1127  O403    1.276   1_565 S
C1128  O400    1.277   1_565 S
C1128  O405    1.281   1_565 S
C1129  O1418   1.279   .     A
C1129  C1184   1.463   .     S
C1129  O1390   1.281   .     A
C1130  H1322   1.084   .     S
C1131  O1419   1.279   .     A
C1131  O1391   1.279   .     A
C1132  O1416   1.280   .     A
C1132  O1392   1.279   .     A
C1133  O1417   1.281   .     A
C1133  O1393   1.278   .     A
C1134  O1423   1.272   .     A
C1134  O1394   1.280   .     A
C1135  O1424   1.277   .     A
C1135  O1395   1.275   .     A
C1136  O1396   1.279   .     A
C1136  O1420   1.272   .     A
C1136  C1182   1.459   .     S
C1137  O1397   1.282   .     A
C1137  O1422   1.274   .     A
C1137  C1183   1.463   .     S
C1138  O1409   1.281   .     A
C1138  O1398   1.277   .     A
C1139  O1400   1.282   .     A
C1139  O1411   1.276   .     A
C1140  O1407   1.281   .     A
C1140  O1401   1.277   .     A
C1141  H1333   1.083   .     S
C1142  O1402   1.278   .     A
C1142  O1408   1.277   .     A
C1143  O1414   1.275   .     A
C1143  O1403   1.275   .     A
C1144  O1415   1.283   .     A
C1144  O1404   1.270   .     A
C1145  O1412   1.279   .     A
C1145  O1405   1.274   .     A
C1146  O1413   1.277   .     A
C1146  O1406   1.276   .     A
C1147  C1164   1.416   .     A
C1148  C1162   1.409   .     A
C1149  C1161   1.415   .     A
C1150  C1160   1.412   .     A
C1151  C1159   1.415   .     A
C1152  H1344   1.083   .     S
C1152  C1606   1.398   .     S
C1153  C1158   1.415   .     A
C1154  C1157   1.418   .     A
C1155  C1156   1.412   .     A
C1161  C1184   1.417   .     A
C1162  C1183   1.422   .     A
C1163  H1355   1.083   .     S
C1163  C1607   1.400   .     S
C1164  C1182   1.416   .     A
C1165  C1181   1.419   .     A
C1165  C1183   1.420   .     A
C1166  C1182   1.418   .     A
C1166  C1180   1.415   .     A
C1167  C1179   1.419   .     A
C1168  C1184   1.415   .     A
C1168  C1178   1.412   .     A
C1169  C1177   1.411   .     A
C1170  C1176   1.416   .     A
C1171  C1175   1.414   .     A
C1172  C1173   1.413   .     A
C1174  H1366   1.085   .     S
C1174  C1608   1.393   .     S
H1271  O1426   1.014   .     S
H1272  O1428   1.014   .     S
H1273  O1430   1.014   .     S
H1275  O1433   1.013   .     S
H1276  O1435   1.013   .     S
H1277  O1437   1.014   .     S
H1278  O1439   1.013   .     S
H1279  O1441   1.012   .     S
H1280  O1444   1.012   .     S
H1281  O1446   1.013   .     S
H1282  O1448   1.013   .     S
H1283  O1450   1.014   .     S
H1284  O1452   1.014   .     S
H1286  O1455   1.014   .     S
H1287  O1457   1.014   .     S
H1288  O1459   1.013   .     S
O1377  Zn1464  1.951   .     S
O1377  Zn1472  1.945   .     S
O1377  Zn1461  1.944   .     S
O1378  Zn1463  1.937   .     S
O1378  C138    1.281   1_565 S
O1379  Zn1466  1.938   .     S
O1379  C1615   1.279   .     S
O1380  Zn1465  1.938   .     S
O1380  C1616   1.285   1_455 S
O1381  Zn1475  1.941   .     S
O1382  Zn1474  1.941   .     S
O1382  C1618   1.279   1_455 A
O1383  Zn1469  1.939   .     S
O1384  Zn1461  1.939   .     S
O1385  Zn1471  1.937   .     S
O1386  C1618   1.277   1_455 S
O1386  Zn1470  1.937   .     S
O1387  Zn1473  1.938   .     S
O1388  Zn1467  1.943   .     S
O1388  Zn1469  1.944   .     S
O1388  Zn1473  1.945   .     S
O1389  Zn1472  1.938   .     S
O1390  Zn1464  1.935   .     S
O1391  Zn1463  1.935   .     S
O1392  Zn1466  1.940   .     S
O1393  Zn1465  1.940   .     S
O1394  Zn1468  1.937   .     S
O1395  Zn1467  1.937   .     S
O1396  Zn1462  1.937   .     S
O1397  Zn1476  1.937   .     S
O1398  Zn1463  1.936   .     S
O1399  Zn1470  1.951   .     S
O1399  Zn1474  1.943   .     S
O1399  Zn1958  1.945   1_455 S
O1399  Zn1462  1.944   .     S
O1400  Zn1464  1.936   .     S
O1401  Zn1476  1.939   .     S
O1402  Zn1462  1.939   .     S
O1403  Zn1467  1.938   .     S
O1404  Zn1468  1.938   .     S
O1405  Zn1465  1.936   .     S
O1406  Zn1466  1.936   .     S
O1407  Zn1963  1.935   .     S
O1408  Zn1470  1.935   .     S
O1409  Zn489   1.940   1_565 S
O1410  Zn1471  1.951   .     S
O1410  Zn1475  1.943   .     S
O1410  Zn1968  1.944   1_455 S
O1410  Zn1465  1.945   .     S
O1411  Zn1472  1.940   .     S
O1412  Zn1475  1.937   .     S
O1413  Zn1966  1.937   .     S
O1414  Zn1469  1.937   .     S
O1415  Zn477   1.937   1_565 S
O1416  Zn1962  1.936   .     S
O1417  Zn1471  1.936   .     S
O1418  Zn1461  1.939   .     S
O1419  Zn485   1.939   1_565 S
O1420  Zn1474  1.938   .     S
O1421  Zn1468  1.941   .     S
O1422  Zn1967  1.938   .     S
O1423  Zn488   1.936   1_565 S
O1424  Zn1473  1.936   .     S
O1432  Zn1467  1.941   .     S
O1443  Zn1462  1.939   .     S
O1445  C1582   1.222   .     S
O1454  Zn1476  1.939   .     S
O1460  Zn1464  1.937   .     S
Zn1463 O404    1.951   1_565 S
Zn1466 O1891   1.945   .     S
Zn1468 O393    1.943   1_565 S
Zn1470 O1908   1.936   1_455 S
Zn1471 O1899   1.935   1_455 S
Zn1474 O1905   1.937   1_455 S
Zn1475 O1914   1.938   1_455 S
Zn1476 O1902   1.944   .     S
C1477  C1555   1.400   .     A
C1477  C1604   1.399   .     A
C1477  H1677   1.083   .     S
C1478  H1678   1.084   .     S
C1478  C1596   1.396   .     A
C1478  C1609   1.396   .     A
C1479  C1652   1.418   .     A
C1479  C1623   1.458   .     S
C1479  C1659   1.421   .     A
C1480  C1624   1.461   .     S
C1480  C1662   1.422   .     A
C1480  C1651   1.420   .     A
C1481  C1650   1.417   .     A
C1481  C1625   1.461   .     S
C1481  C1661   1.412   .     A
C1482  C1664   1.415   .     A
C1482  C1649   1.418   .     A
C1482  C1626   1.457   .     S
C1483  C1648   1.413   .     A
C1483  C1663   1.412   .     A
C1483  C1627   1.457   .     S
C1484  C1647   1.414   .     A
C1484  C1637   1.459   .     S
C1484  C1667   1.419   .     A
C1485  C1646   1.420   .     A
C1485  C1665   1.418   .     A
C1485  C1638   1.459   .     S
C1486  C1630   1.459   .     S
C1486  C1669   1.413   .     A
C1486  C1645   1.414   .     A
C1487  C1668   1.414   .     A
C1487  C1643   1.416   .     A
C1487  C1631   1.459   .     S
C1488  C1632   1.458   .     S
C1488  C1671   1.420   .     A
C1488  C1642   1.415   .     A
C1489  H1689   1.084   .     S
C1489  C1597   1.397   .     A
C1489  C1610   1.395   .     A
C1490  C1634   1.453   .     S
C1490  C1670   1.411   .     A
C1490  C1641   1.414   .     A
C1491  C1673   1.420   .     A
C1491  C1640   1.413   .     A
C1491  C1635   1.456   .     S
C1492  C1636   1.462   .     S
C1492  C1672   1.414   .     A
C1492  C1639   1.418   .     A
C1493  C1620   1.464   .     S
C1493  C1555   1.422   .     A
C1493  C607    1.418   1_565 S
C1494  C1592   1.422   .     A
C1494  C1619   1.457   .     S
C1494  C582    1.421   1_565 S
C1495  C1577   1.421   .     A
C1496  C1594   1.417   .     A
C1496  C1097   1.419   1_655 S
C1496  C1125   1.469   1_655 S
C1497  C1595   1.420   .     A
C1497  C1616   1.473   .     S
C1497  C1107   1.423   1_655 S
C1498  C1596   1.420   .     A
C1498  C1615   1.457   .     S
C1499  C1614   1.460   .     S
C1499  C1597   1.420   .     A
C1500  H1700   1.084   .     S
C1500  C1612   1.398   .     A
C1500  C1598   1.401   .     A
C1501  C1613   1.469   .     S
C1501  C1603   1.416   .     A
C1501  C614    1.422   1_565 S
C1502  C1639   1.528   .     S
C1502  H1782   1.104   .     S
C1502  C1503   1.535   .     S
C1502  H1783   1.109   .     S
C1503  H1755   1.108   .     S
C1503  H1766   1.111   .     S
C1503  H1777   1.110   .     S
C1504  H1787   1.109   .     S
C1504  C1505   1.531   .     S
C1504  H1788   1.109   .     S
C1504  C1640   1.535   .     S
C1505  H1786   1.110   .     S
C1505  H1785   1.110   .     S
C1505  H1784   1.107   .     S
C1506  H1794   1.109   .     S
C1506  C1641   1.529   .     S
C1506  C1507   1.528   .     S
C1506  H1793   1.108   .     S
C1507  H1790   1.110   .     S
C1507  H1791   1.107   .     S
C1507  H1789   1.110   .     S
C1508  C1642   1.532   .     S
C1508  H1799   1.106   .     S
C1508  H1798   1.106   .     S
C1508  C1509   1.528   .     S
C1509  H1796   1.111   .     S
C1509  H1795   1.109   .     S
C1509  H1797   1.110   .     S
C1510  H1804   1.100   .     S
C1510  C1643   1.531   .     S
C1510  C1512   1.526   .     S
C1510  H1805   1.108   .     S
C1511  C1608   1.397   .     A
C1511  H1711   1.084   .     S
C1511  C1599   1.403   .     A
C1512  H1801   1.110   .     S
C1512  H1802   1.110   .     S
C1512  H1800   1.107   .     S
C1513  C1514   1.529   .     S
C1513  H1809   1.103   .     S
C1513  C1645   1.530   .     S
C1513  H1810   1.110   .     S
C1514  H1806   1.110   .     S
C1514  H1807   1.108   .     S
C1514  H1808   1.110   .     S
C1515  H1815   1.108   .     S
C1515  C1516   1.527   .     S
C1515  C1646   1.534   .     S
C1515  H1816   1.104   .     S
C1516  H1811   1.106   .     S
C1516  H1812   1.111   .     S
C1516  H1813   1.103   .     S
C1517  C1518   1.528   .     S
C1517  C1647   1.530   .     S
C1517  H1820   1.107   .     S
C1517  H1821   1.107   .     S
C1518  H1817   1.109   .     S
C1518  H1818   1.111   .     S
C1518  H1819   1.110   .     S
C1519  C1520   1.528   .     S
C1519  H1826   1.105   .     S
C1519  H1827   1.107   .     S
C1519  C1648   1.522   .     S
C1520  H1823   1.111   .     S
C1520  H1822   1.110   .     S
C1520  H1824   1.110   .     S
C1521  C1523   1.529   .     S
C1521  C1649   1.537   .     S
C1521  H1832   1.102   .     S
C1521  H1831   1.109   .     S
C1522  C1601   1.400   .     A
C1522  H1722   1.084   .     S
C1522  C1117   1.396   1_655 S
C1523  H1829   1.108   .     S
C1523  H1828   1.107   .     S
C1523  H1830   1.110   .     S
C1524  H1838   1.107   .     S
C1524  C1650   1.523   .     S
C1524  C1525   1.519   .     S
C1524  H1837   1.105   .     S
C1525  H1833   1.106   .     S
C1525  H1835   1.107   .     S
C1525  H1834   1.110   .     S
C1526  C1651   1.534   .     S
C1526  H1842   1.101   .     S
C1526  C1527   1.525   .     S
C1526  H1843   1.108   .     S
C1527  H1840   1.110   .     S
C1527  H1841   1.109   .     S
C1527  H1839   1.105   .     S
C1528  H1849   1.108   .     S
C1528  C1529   1.530   .     S
C1528  C1652   1.530   .     S
C1528  H1848   1.107   .     S
C1529  H1846   1.108   .     S
C1529  H1844   1.109   .     S
C1529  H1845   1.109   .     S
C1530  H1853   1.109   .     S
C1530  C1531   1.530   .     S
C1530  H1854   1.105   .     S
C1530  C1653   1.524   .     S
C1531  H1852   1.108   .     S
C1531  H1850   1.110   .     S
C1531  H1851   1.109   .     S
C1532  C1654   1.526   .     S
C1532  H1859   1.104   .     S
C1532  C1534   1.533   .     S
C1532  H1860   1.104   .     S
C1533  H1733   1.084   .     S
C1533  C1602   1.401   .     A
C1533  C626    1.398   1_565 S
C1534  H1856   1.108   .     S
C1534  H1857   1.109   .     S
C1534  H1855   1.108   .     S
C1535  C1536   1.528   .     S
C1535  H1865   1.108   .     S
C1535  C1656   1.534   .     S
C1535  H1864   1.109   .     S
C1536  H1862   1.110   .     S
C1536  H1861   1.106   .     S
C1536  H1863   1.109   .     S
C1537  C1657   1.537   .     S
C1537  C1538   1.534   .     S
C1537  H1680   1.109   .     S
C1537  H1679   1.102   .     S
C1538  H1867   1.108   .     S
C1538  H1868   1.111   .     S
C1538  H1866   1.108   .     S
C1539  H1684   1.108   .     S
C1539  C1540   1.524   .     S
C1539  H1685   1.106   .     S
C1539  C1658   1.530   .     S
C1540  H1681   1.107   .     S
C1540  H1683   1.110   .     S
C1540  H1682   1.110   .     S
C1541  H1691   1.102   .     S
C1541  C1659   1.536   .     S
C1541  H1690   1.108   .     S
C1541  C1542   1.526   .     S
C1542  H1688   1.104   .     S
C1542  H1686   1.109   .     S
C1542  H1687   1.111   .     S
C1543  H1696   1.109   .     S
C1543  H1695   1.107   .     S
C1543  C1545   1.532   .     S
C1543  C1660   1.523   .     S
C1544  C1603   1.393   .     A
C1544  H1744   1.085   .     S
C1544  C628    1.396   1_565 S
C1545  H1694   1.110   .     S
C1545  H1692   1.108   .     S
C1545  H1693   1.111   .     S
C1546  C1661   1.525   .     S
C1546  H1702   1.109   .     S
C1546  C1547   1.533   .     S
C1546  H1701   1.105   .     S
C1547  H1697   1.109   .     S
C1547  H1698   1.111   .     S
C1547  H1699   1.108   .     S
C1548  H1707   1.109   .     S
C1548  C1549   1.532   .     S
C1548  H1706   1.104   .     S
C1548  C1662   1.531   .     S
C1549  H1703   1.109   .     S
C1549  H1705   1.110   .     S
C1549  H1704   1.106   .     S
C1550  C1663   1.530   .     S
C1550  C1551   1.528   .     S
C1550  H1712   1.109   .     S
C1550  H1713   1.110   .     S
C1551  H1710   1.107   .     S
C1551  H1708   1.110   .     S
C1551  H1709   1.110   .     S
C1552  C1553   1.527   .     S
C1552  H1717   1.106   .     S
C1552  C1664   1.532   .     S
C1552  H1718   1.106   .     S
C1553  H1714   1.111   .     S
C1553  H1716   1.110   .     S
C1553  H1715   1.110   .     S
C1554  C1556   1.530   .     S
C1554  H1724   1.108   .     S
C1554  C1665   1.530   .     S
C1554  H1723   1.109   .     S
C1555  C1572   1.493   .     S
C1556  H1719   1.109   .     S
C1556  H1720   1.109   .     S
C1556  H1721   1.110   .     S
C1557  H1729   1.105   .     S
C1557  C1667   1.524   .     S
C1557  H1728   1.109   .     S
C1557  C1558   1.533   .     S
C1558  H1725   1.110   .     S
C1558  H1726   1.109   .     S
C1558  H1727   1.108   .     S
C1559  C1668   1.534   .     S
C1559  H1734   1.110   .     S
C1559  C1560   1.528   .     S
C1559  H1735   1.108   .     S
C1560  H1732   1.107   .     S
C1560  H1731   1.111   .     S
C1560  H1730   1.110   .     S
C1561  H1739   1.109   .     S
C1561  C1562   1.520   .     S
C1561  C1669   1.523   .     S
C1561  H1740   1.110   .     S
C1562  H1738   1.108   .     S
C1562  H1736   1.105   .     S
C1562  H1737   1.110   .     S
C1563  H1746   1.107   .     S
C1563  C1564   1.527   .     S
C1563  C1670   1.529   .     S
C1563  H1745   1.109   .     S
C1564  H1741   1.110   .     S
C1564  H1743   1.107   .     S
C1564  H1742   1.110   .     S
C1565  H1751   1.100   .     S
C1565  C1671   1.534   .     S
C1565  C1567   1.528   .     S
C1565  H1750   1.105   .     S
C1566  C1573   1.496   .     S
C1566  C1588   1.398   .     A
C1567  H1748   1.106   .     S
C1567  H1747   1.110   .     S
C1567  H1749   1.106   .     S
C1568  C1672   1.531   .     S
C1568  H1756   1.107   .     S
C1568  C1569   1.530   .     S
C1568  H1757   1.102   .     S
C1569  H1753   1.111   .     S
C1569  H1752   1.107   .     S
C1569  H1754   1.110   .     S
C1570  H1761   1.104   .     S
C1570  C1673   1.534   .     S
C1570  C1571   1.529   .     S
C1570  H1762   1.108   .     S
C1571  H1759   1.111   .     S
C1571  H1760   1.106   .     S
C1571  H1758   1.105   .     S
C1572  O1918   1.399   .     S
C1572  O1917   1.222   .     D
C1573  O1919   1.223   .     D
C1573  O1920   1.399   .     S
C1574  O1921   1.223   .     D
C1574  O1922   1.400   .     S
C1574  C1577   1.499   .     S
C1575  O1923   1.221   .     D
C1575  C1589   1.480   .     S
C1575  O1925   1.399   .     S
C1576  O1927   1.399   .     S
C1576  C1591   1.485   .     S
C1576  O1926   1.222   .     D
C1577  C1600   1.398   .     A
C1578  O1928   1.222   .     D
C1578  O1929   1.400   .     S
C1578  C1592   1.496   .     S
C1579  C1593   1.496   .     S
C1579  O1931   1.400   .     S
C1579  O1930   1.222   .     D
C1580  O1933   1.398   .     S
C1580  C1594   1.485   .     S
C1580  O1932   1.223   .     D
C1581  O1934   1.222   .     D
C1581  C1595   1.477   .     S
C1581  O1936   1.398   .     S
C1582  O1938   1.400   .     S
C1582  C1596   1.494   .     S
C1583  C1597   1.491   .     S
C1583  O1939   1.222   .     D
C1583  O1940   1.399   .     S
C1584  C1598   1.489   .     S
C1584  O1941   1.223   .     D
C1584  O1942   1.399   .     S
C1585  O1944   1.398   .     S
C1585  C1599   1.488   .     S
C1585  O1943   1.223   .     D
C1586  O1947   1.399   .     S
C1586  O1945   1.222   .     D
C1586  C1601   1.495   .     S
C1587  C1602   1.494   .     S
C1587  O1949   1.399   .     S
C1587  O1948   1.223   .     D
C1588  H1781   1.083   .     S
C1589  C1611   1.393   .     A
C1590  O1951   1.398   .     S
C1590  C1603   1.477   .     S
C1590  O1950   1.222   .     D
C1591  C1622   1.395   .     A
C1592  C1633   1.399   .     A
C1593  C1644   1.398   .     A
C1593  C1003   1.421   1_655 S
C1594  C1655   1.400   .     A
C1595  C1666   1.391   .     A
C1600  C1606   1.399   .     A
C1600  H1792   1.083   .     S
C1601  C1006   1.423   1_655 S
C1602  C515    1.422   1_565 S
C1604  C1605   1.474   1_554 S
C1604  C638    1.396   1_565 S
C1605  C1633   1.397   .     A
C1605  C1604   1.474   1_556 S
C1605  C604    1.399   1_565 S
C1606  C1607   1.476   1_554 S
C1607  C1611   1.396   .     A
C1607  C1606   1.476   1_556 S
C1608  C1609   1.468   .     S
C1610  C1612   1.469   .     S
C1611  H1803   1.084   .     S
C1613  O1913   1.279   .     A
C1613  O968    1.285   1_565 S
C1614  O1924   1.278   .     A
C1615  O1935   1.276   .     A
C1616  O1946   1.279   .     A
C1616  O1380   1.285   1_655 S
C1617  O1873   1.288   .     S
C1617  O1877   1.277   .     S
C1618  O1382   1.279   1_655 A
C1618  C1003   1.455   1_655 S
C1618  O1386   1.277   1_655 S
C1619  O891    1.279   1_565 S
C1619  O895    1.276   1_565 S
C1620  O892    1.277   1_565 S
C1620  O897    1.281   1_565 S
C1621  O1910   1.279   .     A
C1621  C1676   1.463   .     S
C1621  O1882   1.281   .     A
C1622  H1814   1.084   .     S
C1623  O1911   1.279   .     A
C1623  O1883   1.279   .     A
C1624  O1908   1.280   .     A
C1624  O1884   1.279   .     A
C1625  O1909   1.281   .     A
C1625  O1885   1.278   .     A
C1626  O1915   1.272   .     A
C1626  O1886   1.280   .     A
C1627  O1916   1.277   .     A
C1627  O1887   1.275   .     A
C1628  O1888   1.279   .     A
C1628  O1912   1.272   .     A
C1628  C1674   1.459   .     S
C1629  O1889   1.282   .     A
C1629  O1914   1.274   .     A
C1629  C1675   1.463   .     S
C1630  O1901   1.281   .     A
C1630  O1890   1.277   .     A
C1631  O1892   1.282   .     A
C1631  O1903   1.276   .     A
C1632  O1899   1.281   .     A
C1632  O1893   1.277   .     A
C1633  H1825   1.083   .     S
C1634  O1894   1.278   .     A
C1634  O1900   1.277   .     A
C1635  O1906   1.275   .     A
C1635  O1895   1.275   .     A
C1636  O1907   1.283   .     A
C1636  O1896   1.270   .     A
C1637  O1904   1.279   .     A
C1637  O1897   1.274   .     A
C1638  O1905   1.277   .     A
C1638  O1898   1.276   .     A
C1639  C1656   1.416   .     A
C1640  C1654   1.409   .     A
C1641  C1653   1.415   .     A
C1642  C1652   1.412   .     A
C1643  C1651   1.415   .     A
C1644  H1836   1.083   .     S
C1644  C1114   1.398   1_655 S
C1645  C1650   1.415   .     A
C1646  C1649   1.418   .     A
C1647  C1648   1.412   .     A
C1653  C1676   1.417   .     A
C1654  C1675   1.422   .     A
C1655  H1847   1.083   .     S
C1655  C1115   1.400   1_655 S
C1656  C1674   1.416   .     A
C1657  C1673   1.419   .     A
C1657  C1675   1.420   .     A
C1658  C1674   1.418   .     A
C1658  C1672   1.415   .     A
C1659  C1671   1.419   .     A
C1660  C1676   1.415   .     A
C1660  C1670   1.412   .     A
C1661  C1669   1.411   .     A
C1662  C1668   1.416   .     A
C1663  C1667   1.414   .     A
C1664  C1665   1.413   .     A
C1666  H1858   1.085   .     S
C1666  C1116   1.393   1_655 S
H1763  O1918   1.014   .     S
H1764  O1920   1.014   .     S
H1765  O1922   1.014   .     S
H1767  O1925   1.013   .     S
H1768  O1927   1.013   .     S
H1769  O1929   1.014   .     S
H1770  O1931   1.013   .     S
H1771  O1933   1.012   .     S
H1772  O1936   1.012   .     S
H1773  O1938   1.013   .     S
H1774  O1940   1.013   .     S
H1775  O1942   1.014   .     S
H1776  O1944   1.014   .     S
H1778  O1947   1.014   .     S
H1779  O1949   1.014   .     S
H1780  O1951   1.013   .     S
O1869  Zn1956  1.951   .     S
O1869  Zn1964  1.945   .     S
O1869  Zn1953  1.944   .     S
O1870  Zn1955  1.937   .     S
O1870  C630    1.281   1_565 S
O1871  Zn1958  1.938   .     S
O1871  C1123   1.279   1_655 S
O1872  Zn1957  1.938   .     S
O1873  Zn1967  1.941   .     S
O1874  Zn1966  1.941   .     S
O1875  Zn1961  1.939   .     S
O1876  Zn1953  1.939   .     S
O1877  Zn1963  1.937   .     S
O1878  Zn1962  1.937   .     S
O1879  Zn1965  1.938   .     S
O1880  Zn1959  1.943   .     S
O1880  Zn1961  1.944   .     S
O1880  Zn1965  1.945   .     S
O1881  Zn1964  1.938   .     S
O1882  Zn1956  1.935   .     S
O1883  Zn1955  1.935   .     S
O1884  Zn1958  1.940   .     S
O1885  Zn1957  1.940   .     S
O1886  Zn1960  1.937   .     S
O1887  Zn1959  1.937   .     S
O1888  Zn1954  1.937   .     S
O1889  Zn1968  1.937   .     S
O1890  Zn1955  1.936   .     S
O1891  Zn1962  1.951   .     S
O1891  Zn1966  1.943   .     S
O1891  Zn1954  1.944   .     S
O1892  Zn1956  1.936   .     S
O1893  Zn1968  1.939   .     S
O1894  Zn1954  1.939   .     S
O1895  Zn1959  1.938   .     S
O1896  Zn1960  1.938   .     S
O1897  Zn1957  1.936   .     S
O1898  Zn1958  1.936   .     S
O1899  Zn1471  1.935   1_655 S
O1900  Zn1962  1.935   .     S
O1901  Zn981   1.940   1_565 S
O1902  Zn1963  1.951   .     S
O1902  Zn1967  1.943   .     S
O1902  Zn1957  1.945   .     S
O1903  Zn1964  1.940   .     S
O1904  Zn1967  1.937   .     S
O1905  Zn1474  1.937   1_655 S
O1906  Zn1961  1.937   .     S
O1907  Zn969   1.937   1_565 S
O1908  Zn1470  1.936   1_655 S
O1909  Zn1963  1.936   .     S
O1910  Zn1953  1.939   .     S
O1911  Zn977   1.939   1_565 S
O1912  Zn1966  1.938   .     S
O1913  Zn1960  1.941   .     S
O1914  Zn1475  1.938   1_655 S
O1915  Zn980   1.936   1_565 S
O1916  Zn1965  1.936   .     S
O1924  Zn1959  1.941   .     S
O1935  Zn1954  1.939   .     S
O1937  C1090   1.222   1_655 S
O1946  Zn1968  1.939   .     S
O1952  Zn1956  1.937   .     S
Zn1955 O896    1.951   1_565 S
Zn1958 O1399   1.945   1_655 S
Zn1960 O885    1.943   1_565 S
Zn1968 O1410   1.944   1_655 S
