data_str_m1_o10_o16_pcu_sym.205
_audit_creation_date              2020-01-03
_audit_creation_method            'Materials Studio'
_symmetry_space_group_name_H-M    'P1'
_symmetry_Int_Tables_number       1
_symmetry_cell_setting            triclinic
loop_
_symmetry_equiv_pos_as_xyz
  x,y,z
_cell_length_a                    32.6205
_cell_length_b                    32.5401
_cell_length_c                    31.1159
_cell_angle_alpha                 96.9590
_cell_angle_beta                  74.3808
_cell_angle_gamma                 98.8847
loop_
_atom_site_label
_atom_site_type_symbol
_atom_site_fract_x
_atom_site_fract_y
_atom_site_fract_z
_atom_site_U_iso_or_equiv
_atom_site_adp_type
_atom_site_occupancy
C1     C     0.05258   0.15916   0.26063   0.00000  Uiso   1.00
C2     C     0.16432   0.16266   0.06223   0.00000  Uiso   1.00
C3     C     0.21457   0.11278   0.05596   0.00000  Uiso   1.00
C4     C     0.28090   0.17412   0.23984   0.00000  Uiso   1.00
C5     C     0.13930   0.19240   0.41997   0.00000  Uiso   1.00
C6     C     0.32719   0.17874   0.23571   0.00000  Uiso   1.00
C7     C     0.00776   0.15786   0.26275   0.00000  Uiso   1.00
C8     C     0.18056   0.32252   0.23660   0.00000  Uiso   1.00
C9     C     0.15150   0.01169   0.26347   0.00000  Uiso   1.00
C10    C     0.15604   0.05588   0.26006   0.00000  Uiso   1.00
C11    C     0.17657   0.27793   0.24016   0.00000  Uiso   1.00
C12    C     0.13408   0.24714   0.48049   0.00000  Uiso   1.00
C13    C     0.18535   0.14797   0.12935   0.00000  Uiso   1.00
C14    C     0.14760   0.18401   0.37097   0.00000  Uiso   1.00
C15    C     0.21204   0.09959   0.01233   0.00000  Uiso   1.00
C16    C     0.18962   0.14265   0.08138   0.00000  Uiso   1.00
C17    C     0.13008   0.23264   0.43796   0.00000  Uiso   1.00
C18    C     0.15324   0.02983   0.45728   0.00000  Uiso   1.00
C19    C     0.27489   0.08520   0.46465   0.00000  Uiso   1.00
C20    C     0.13006   0.18643   0.09159   0.00000  Uiso   1.00
C21    C     0.12783   0.09718   0.40127   0.00000  Uiso   1.00
C22    C     0.02285   0.20637   0.20187   0.00000  Uiso   1.00
C23    C     0.14774   0.22204   0.00539   0.00000  Uiso   1.00
C24    C     0.15245   0.17973   0.49073   0.00000  Uiso   1.00
C25    C     0.14672   0.16410   0.44778   0.00000  Uiso   1.00
C26    C     0.16683   0.15385   0.01586   0.00000  Uiso   1.00
C27    C     0.18505   0.11777   0.49332   0.00000  Uiso   1.00
C28    C     0.17370   0.09973   0.45382   0.00000  Uiso   1.00
C29    C     0.15062   0.12131   0.43365   0.00000  Uiso   1.00
H30    H     0.23379   0.09743   0.07106   0.00000  Uiso   1.00
H31    H     0.15407   0.02999   0.49279   0.00000  Uiso   1.00
H32    H     0.27143   0.10521   0.43955   0.00000  Uiso   1.00
H33    H     0.29304   0.05959   0.44607   0.00000  Uiso   1.00
H34    H     0.29401   0.10336   0.48696   0.00000  Uiso   1.00
H35    H     0.09995   0.18541   0.08264   0.00000  Uiso   1.00
H36    H     0.13999   0.06972   0.38155   0.00000  Uiso   1.00
H37    H     0.01014   0.21817   0.17761   0.00000  Uiso   1.00
H38    H     0.31894   0.13790   0.28665   0.00000  Uiso   1.00
H39    H     0.20746   0.00384   0.21193   0.00000  Uiso   1.00
H40    H     0.12413   0.33111   0.28809   0.00000  Uiso   1.00
H41    H     0.12313   0.25428   0.41780   0.00000  Uiso   1.00
H42    H     0.15637   0.23708   0.03514   0.00000  Uiso   1.00
H43    H     0.12938   0.27900   0.49312   0.00000  Uiso   1.00
H44    H     0.16072   0.33226   0.44025   0.00000  Uiso   1.00
H45    H     0.12030   0.03330   0.45565   0.00000  Uiso   1.00
O46    O     0.16667   0.16667   0.25000   0.00000  Uiso   1.00
O47    O     0.15451   0.12637   0.15459   0.00000  Uiso   1.00
O48    O     0.12940   0.20391   0.34968   0.00000  Uiso   1.00
O49    O     0.20824   0.17759   0.14606   0.00000  Uiso   1.00
O50    O     0.17451   0.15880   0.34968   0.00000  Uiso   1.00
O51    O     0.18426   0.06072   0.43501   0.00000  Uiso   1.00
O52    O     0.23457   0.06751   0.48956   0.00000  Uiso   1.00
O53    O     0.13560   0.20840   0.12475   0.00000  Uiso   1.00
O54    O     0.09423   0.10678   0.39766   0.00000  Uiso   1.00
O55    O     0.06060   0.21700   0.20095   0.00000  Uiso   1.00
O56    O     0.17930   0.08019   0.28214   0.00000  Uiso   1.00
O57    O     0.14632   0.26085   0.27014   0.00000  Uiso   1.00
O58    O     0.07412   0.13291   0.23413   0.00000  Uiso   1.00
O59    O     0.26693   0.19272   0.21361   0.00000  Uiso   1.00
O60    O     0.07071   0.18878   0.28213   0.00000  Uiso   1.00
O61    O     0.25491   0.15226   0.27014   0.00000  Uiso   1.00
O62    O     0.13760   0.06944   0.23413   0.00000  Uiso   1.00
O63    O     0.20345   0.25620   0.21361   0.00000  Uiso   1.00
Zn64   Zn    0.19338   0.13994   0.28734   0.00000  Uiso   1.00
Zn65   Zn    0.13379   0.12458   0.21876   0.00000  Uiso   1.00
Zn66   Zn    0.21056   0.19775   0.20657   0.00000  Uiso   1.00
Zn67   Zn    0.12893   0.20439   0.28734   0.00000  Uiso   1.00
C68    C     0.38592   0.15916   0.26063   0.00000  Uiso   1.00
C69    C     0.49766   0.16266   0.06223   0.00000  Uiso   1.00
C70    C     0.54791   0.11278   0.05596   0.00000  Uiso   1.00
C71    C     0.61424   0.17412   0.23984   0.00000  Uiso   1.00
C72    C     0.47263   0.19240   0.41997   0.00000  Uiso   1.00
C73    C     0.66052   0.17874   0.23571   0.00000  Uiso   1.00
C74    C     0.34109   0.15786   0.26275   0.00000  Uiso   1.00
C75    C     0.51390   0.32252   0.23660   0.00000  Uiso   1.00
C76    C     0.48484   0.01169   0.26347   0.00000  Uiso   1.00
C77    C     0.48938   0.05588   0.26006   0.00000  Uiso   1.00
C78    C     0.50990   0.27793   0.24016   0.00000  Uiso   1.00
C79    C     0.46741   0.24714   0.48049   0.00000  Uiso   1.00
C80    C     0.51869   0.14797   0.12935   0.00000  Uiso   1.00
C81    C     0.48093   0.18401   0.37097   0.00000  Uiso   1.00
C82    C     0.54538   0.09959   0.01233   0.00000  Uiso   1.00
C83    C     0.52295   0.14265   0.08138   0.00000  Uiso   1.00
C84    C     0.46341   0.23264   0.43796   0.00000  Uiso   1.00
C85    C     0.48657   0.02983   0.45728   0.00000  Uiso   1.00
C86    C     0.60822   0.08520   0.46465   0.00000  Uiso   1.00
C87    C     0.46340   0.18643   0.09159   0.00000  Uiso   1.00
C88    C     0.46116   0.09718   0.40127   0.00000  Uiso   1.00
C89    C     0.35618   0.20637   0.20187   0.00000  Uiso   1.00
C90    C     0.48107   0.22204   0.00539   0.00000  Uiso   1.00
C91    C     0.48579   0.17973   0.49073   0.00000  Uiso   1.00
C92    C     0.48006   0.16410   0.44778   0.00000  Uiso   1.00
C93    C     0.50016   0.15385   0.01586   0.00000  Uiso   1.00
C94    C     0.51838   0.11777   0.49332   0.00000  Uiso   1.00
C95    C     0.50703   0.09973   0.45382   0.00000  Uiso   1.00
C96    C     0.48395   0.12131   0.43365   0.00000  Uiso   1.00
H97    H     0.56712   0.09743   0.07106   0.00000  Uiso   1.00
H98    H     0.48741   0.02999   0.49279   0.00000  Uiso   1.00
H99    H     0.60477   0.10521   0.43955   0.00000  Uiso   1.00
H100   H     0.62637   0.05959   0.44607   0.00000  Uiso   1.00
H101   H     0.62734   0.10336   0.48696   0.00000  Uiso   1.00
H102   H     0.43328   0.18541   0.08264   0.00000  Uiso   1.00
H103   H     0.47332   0.06972   0.38155   0.00000  Uiso   1.00
H104   H     0.34347   0.21817   0.17761   0.00000  Uiso   1.00
H105   H     0.65227   0.13790   0.28665   0.00000  Uiso   1.00
H106   H     0.54079   0.00384   0.21193   0.00000  Uiso   1.00
H107   H     0.45746   0.33111   0.28809   0.00000  Uiso   1.00
H108   H     0.45646   0.25428   0.41780   0.00000  Uiso   1.00
H109   H     0.48971   0.23708   0.03514   0.00000  Uiso   1.00
H110   H     0.46272   0.27900   0.49312   0.00000  Uiso   1.00
H111   H     0.49405   0.33226   0.44025   0.00000  Uiso   1.00
H112   H     0.45363   0.03330   0.45565   0.00000  Uiso   1.00
O113   O     0.50000   0.16667   0.25000   0.00000  Uiso   1.00
O114   O     0.48784   0.12637   0.15459   0.00000  Uiso   1.00
O115   O     0.46274   0.20391   0.34968   0.00000  Uiso   1.00
O116   O     0.54157   0.17759   0.14606   0.00000  Uiso   1.00
O117   O     0.50785   0.15880   0.34968   0.00000  Uiso   1.00
O118   O     0.51760   0.06072   0.43501   0.00000  Uiso   1.00
O119   O     0.56790   0.06751   0.48956   0.00000  Uiso   1.00
O120   O     0.46893   0.20840   0.12475   0.00000  Uiso   1.00
O121   O     0.42757   0.10678   0.39766   0.00000  Uiso   1.00
O122   O     0.39394   0.21700   0.20095   0.00000  Uiso   1.00
O123   O     0.51264   0.08019   0.28214   0.00000  Uiso   1.00
O124   O     0.47965   0.26085   0.27014   0.00000  Uiso   1.00
O125   O     0.40745   0.13291   0.23413   0.00000  Uiso   1.00
O126   O     0.60026   0.19272   0.21361   0.00000  Uiso   1.00
O127   O     0.40405   0.18878   0.28213   0.00000  Uiso   1.00
O128   O     0.58824   0.15226   0.27014   0.00000  Uiso   1.00
O129   O     0.47093   0.06944   0.23413   0.00000  Uiso   1.00
O130   O     0.53678   0.25620   0.21361   0.00000  Uiso   1.00
Zn131  Zn    0.52672   0.13994   0.28734   0.00000  Uiso   1.00
Zn132  Zn    0.46713   0.12458   0.21876   0.00000  Uiso   1.00
Zn133  Zn    0.54389   0.19775   0.20657   0.00000  Uiso   1.00
Zn134  Zn    0.46226   0.20439   0.28734   0.00000  Uiso   1.00
C135   C     0.71925   0.15916   0.26063   0.00000  Uiso   1.00
C136   C     0.83099   0.16266   0.06223   0.00000  Uiso   1.00
C137   C     0.88124   0.11278   0.05596   0.00000  Uiso   1.00
C138   C     0.94757   0.17412   0.23984   0.00000  Uiso   1.00
C139   C     0.80597   0.19240   0.41997   0.00000  Uiso   1.00
C140   C     0.99386   0.17874   0.23571   0.00000  Uiso   1.00
C141   C     0.67443   0.15786   0.26275   0.00000  Uiso   1.00
C142   C     0.84723   0.32252   0.23660   0.00000  Uiso   1.00
C143   C     0.81817   0.01169   0.26347   0.00000  Uiso   1.00
C144   C     0.82271   0.05588   0.26006   0.00000  Uiso   1.00
C145   C     0.84324   0.27793   0.24016   0.00000  Uiso   1.00
C146   C     0.80075   0.24714   0.48049   0.00000  Uiso   1.00
C147   C     0.85202   0.14797   0.12935   0.00000  Uiso   1.00
C148   C     0.81426   0.18401   0.37097   0.00000  Uiso   1.00
C149   C     0.87871   0.09959   0.01233   0.00000  Uiso   1.00
C150   C     0.85629   0.14265   0.08138   0.00000  Uiso   1.00
C151   C     0.79674   0.23264   0.43796   0.00000  Uiso   1.00
C152   C     0.81990   0.02983   0.45728   0.00000  Uiso   1.00
C153   C     0.94155   0.08520   0.46465   0.00000  Uiso   1.00
C154   C     0.79673   0.18643   0.09159   0.00000  Uiso   1.00
C155   C     0.79449   0.09718   0.40127   0.00000  Uiso   1.00
C156   C     0.68951   0.20637   0.20187   0.00000  Uiso   1.00
C157   C     0.81440   0.22204   0.00539   0.00000  Uiso   1.00
C158   C     0.81912   0.17973   0.49073   0.00000  Uiso   1.00
C159   C     0.81339   0.16410   0.44778   0.00000  Uiso   1.00
C160   C     0.83349   0.15385   0.01586   0.00000  Uiso   1.00
C161   C     0.85172   0.11777   0.49332   0.00000  Uiso   1.00
C162   C     0.84036   0.09973   0.45382   0.00000  Uiso   1.00
C163   C     0.81728   0.12131   0.43365   0.00000  Uiso   1.00
H164   H     0.90046   0.09743   0.07106   0.00000  Uiso   1.00
H165   H     0.82074   0.02999   0.49279   0.00000  Uiso   1.00
H166   H     0.93810   0.10521   0.43955   0.00000  Uiso   1.00
H167   H     0.95970   0.05959   0.44607   0.00000  Uiso   1.00
H168   H     0.96067   0.10336   0.48696   0.00000  Uiso   1.00
H169   H     0.76662   0.18541   0.08264   0.00000  Uiso   1.00
H170   H     0.80666   0.06972   0.38155   0.00000  Uiso   1.00
H171   H     0.67680   0.21817   0.17761   0.00000  Uiso   1.00
H172   H     0.98560   0.13790   0.28665   0.00000  Uiso   1.00
H173   H     0.87412   0.00384   0.21193   0.00000  Uiso   1.00
H174   H     0.79079   0.33111   0.28809   0.00000  Uiso   1.00
H175   H     0.78980   0.25428   0.41780   0.00000  Uiso   1.00
H176   H     0.82304   0.23708   0.03514   0.00000  Uiso   1.00
H177   H     0.79605   0.27900   0.49312   0.00000  Uiso   1.00
H178   H     0.82738   0.33226   0.44025   0.00000  Uiso   1.00
H179   H     0.78697   0.03330   0.45565   0.00000  Uiso   1.00
O180   O     0.83333   0.16667   0.25000   0.00000  Uiso   1.00
O181   O     0.82118   0.12637   0.15459   0.00000  Uiso   1.00
O182   O     0.79607   0.20391   0.34968   0.00000  Uiso   1.00
O183   O     0.87491   0.17759   0.14606   0.00000  Uiso   1.00
O184   O     0.84118   0.15880   0.34968   0.00000  Uiso   1.00
O185   O     0.85093   0.06072   0.43501   0.00000  Uiso   1.00
O186   O     0.90124   0.06751   0.48956   0.00000  Uiso   1.00
O187   O     0.80226   0.20840   0.12475   0.00000  Uiso   1.00
O188   O     0.76090   0.10678   0.39766   0.00000  Uiso   1.00
O189   O     0.72727   0.21700   0.20095   0.00000  Uiso   1.00
O190   O     0.84597   0.08019   0.28214   0.00000  Uiso   1.00
O191   O     0.81298   0.26085   0.27014   0.00000  Uiso   1.00
O192   O     0.74078   0.13291   0.23413   0.00000  Uiso   1.00
O193   O     0.93360   0.19272   0.21361   0.00000  Uiso   1.00
O194   O     0.73738   0.18878   0.28213   0.00000  Uiso   1.00
O195   O     0.92158   0.15226   0.27014   0.00000  Uiso   1.00
O196   O     0.80426   0.06944   0.23413   0.00000  Uiso   1.00
O197   O     0.87012   0.25620   0.21361   0.00000  Uiso   1.00
Zn198  Zn    0.86005   0.13994   0.28734   0.00000  Uiso   1.00
Zn199  Zn    0.80046   0.12458   0.21876   0.00000  Uiso   1.00
Zn200  Zn    0.87723   0.19775   0.20657   0.00000  Uiso   1.00
Zn201  Zn    0.79560   0.20439   0.28734   0.00000  Uiso   1.00
C202   C     0.05258   0.49250   0.26063   0.00000  Uiso   1.00
C203   C     0.16432   0.49599   0.06223   0.00000  Uiso   1.00
C204   C     0.21457   0.44612   0.05596   0.00000  Uiso   1.00
C205   C     0.28090   0.50745   0.23984   0.00000  Uiso   1.00
C206   C     0.13930   0.52574   0.41997   0.00000  Uiso   1.00
C207   C     0.32719   0.51207   0.23571   0.00000  Uiso   1.00
C208   C     0.00776   0.49119   0.26275   0.00000  Uiso   1.00
C209   C     0.18056   0.65585   0.23660   0.00000  Uiso   1.00
C210   C     0.15150   0.34503   0.26347   0.00000  Uiso   1.00
C211   C     0.15604   0.38921   0.26006   0.00000  Uiso   1.00
C212   C     0.17657   0.61126   0.24016   0.00000  Uiso   1.00
C213   C     0.13408   0.58048   0.48049   0.00000  Uiso   1.00
C214   C     0.18535   0.48130   0.12935   0.00000  Uiso   1.00
C215   C     0.14760   0.51735   0.37097   0.00000  Uiso   1.00
C216   C     0.21204   0.43293   0.01233   0.00000  Uiso   1.00
C217   C     0.18962   0.47599   0.08138   0.00000  Uiso   1.00
C218   C     0.13008   0.56597   0.43796   0.00000  Uiso   1.00
C219   C     0.15324   0.36316   0.45728   0.00000  Uiso   1.00
C220   C     0.27489   0.41853   0.46465   0.00000  Uiso   1.00
C221   C     0.13006   0.51977   0.09159   0.00000  Uiso   1.00
C222   C     0.12783   0.43051   0.40127   0.00000  Uiso   1.00
C223   C     0.02285   0.53971   0.20187   0.00000  Uiso   1.00
C224   C     0.14774   0.55537   0.00539   0.00000  Uiso   1.00
C225   C     0.15245   0.51307   0.49073   0.00000  Uiso   1.00
C226   C     0.14672   0.49743   0.44778   0.00000  Uiso   1.00
C227   C     0.16683   0.48719   0.01586   0.00000  Uiso   1.00
C228   C     0.18505   0.45111   0.49332   0.00000  Uiso   1.00
C229   C     0.17370   0.43306   0.45382   0.00000  Uiso   1.00
C230   C     0.15062   0.45464   0.43365   0.00000  Uiso   1.00
H231   H     0.23379   0.43077   0.07106   0.00000  Uiso   1.00
H232   H     0.15407   0.36332   0.49279   0.00000  Uiso   1.00
H233   H     0.27143   0.43855   0.43955   0.00000  Uiso   1.00
H234   H     0.29304   0.39292   0.44607   0.00000  Uiso   1.00
H235   H     0.29401   0.43669   0.48696   0.00000  Uiso   1.00
H236   H     0.09995   0.51874   0.08264   0.00000  Uiso   1.00
H237   H     0.13999   0.40305   0.38155   0.00000  Uiso   1.00
H238   H     0.01014   0.55150   0.17761   0.00000  Uiso   1.00
H239   H     0.31894   0.47124   0.28665   0.00000  Uiso   1.00
H240   H     0.20746   0.33717   0.21193   0.00000  Uiso   1.00
H241   H     0.12413   0.66444   0.28809   0.00000  Uiso   1.00
H242   H     0.12313   0.58761   0.41780   0.00000  Uiso   1.00
H243   H     0.15637   0.57041   0.03514   0.00000  Uiso   1.00
H244   H     0.12938   0.61233   0.49312   0.00000  Uiso   1.00
H245   H     0.16072   0.66559   0.44025   0.00000  Uiso   1.00
H246   H     0.12030   0.36664   0.45565   0.00000  Uiso   1.00
O247   O     0.16667   0.50000   0.25000   0.00000  Uiso   1.00
O248   O     0.15451   0.45970   0.15459   0.00000  Uiso   1.00
O249   O     0.12940   0.53724   0.34968   0.00000  Uiso   1.00
O250   O     0.20824   0.51092   0.14606   0.00000  Uiso   1.00
O251   O     0.17451   0.49213   0.34968   0.00000  Uiso   1.00
O252   O     0.18426   0.39406   0.43501   0.00000  Uiso   1.00
O253   O     0.23457   0.40085   0.48956   0.00000  Uiso   1.00
O254   O     0.13560   0.54173   0.12475   0.00000  Uiso   1.00
O255   O     0.09423   0.44011   0.39766   0.00000  Uiso   1.00
O256   O     0.06060   0.55033   0.20095   0.00000  Uiso   1.00
O257   O     0.17930   0.41352   0.28214   0.00000  Uiso   1.00
O258   O     0.14632   0.59418   0.27014   0.00000  Uiso   1.00
O259   O     0.07412   0.46625   0.23413   0.00000  Uiso   1.00
O260   O     0.26693   0.52605   0.21361   0.00000  Uiso   1.00
O261   O     0.07071   0.52211   0.28213   0.00000  Uiso   1.00
O262   O     0.25491   0.48559   0.27014   0.00000  Uiso   1.00
O263   O     0.13760   0.40277   0.23413   0.00000  Uiso   1.00
O264   O     0.20345   0.58953   0.21361   0.00000  Uiso   1.00
Zn265  Zn    0.19338   0.47327   0.28734   0.00000  Uiso   1.00
Zn266  Zn    0.13379   0.45791   0.21876   0.00000  Uiso   1.00
Zn267  Zn    0.21056   0.53109   0.20657   0.00000  Uiso   1.00
Zn268  Zn    0.12893   0.53773   0.28734   0.00000  Uiso   1.00
C269   C     0.38592   0.49250   0.26063   0.00000  Uiso   1.00
C270   C     0.49766   0.49599   0.06223   0.00000  Uiso   1.00
C271   C     0.54791   0.44612   0.05596   0.00000  Uiso   1.00
C272   C     0.61424   0.50745   0.23984   0.00000  Uiso   1.00
C273   C     0.47263   0.52574   0.41997   0.00000  Uiso   1.00
C274   C     0.66052   0.51207   0.23571   0.00000  Uiso   1.00
C275   C     0.34109   0.49119   0.26275   0.00000  Uiso   1.00
C276   C     0.51390   0.65585   0.23660   0.00000  Uiso   1.00
C277   C     0.48484   0.34503   0.26347   0.00000  Uiso   1.00
C278   C     0.48938   0.38921   0.26006   0.00000  Uiso   1.00
C279   C     0.50990   0.61126   0.24016   0.00000  Uiso   1.00
C280   C     0.46741   0.58048   0.48049   0.00000  Uiso   1.00
C281   C     0.51869   0.48130   0.12935   0.00000  Uiso   1.00
C282   C     0.48093   0.51735   0.37097   0.00000  Uiso   1.00
C283   C     0.54538   0.43293   0.01233   0.00000  Uiso   1.00
C284   C     0.52295   0.47599   0.08138   0.00000  Uiso   1.00
C285   C     0.46341   0.56597   0.43796   0.00000  Uiso   1.00
C286   C     0.48657   0.36316   0.45728   0.00000  Uiso   1.00
C287   C     0.60822   0.41853   0.46465   0.00000  Uiso   1.00
C288   C     0.46340   0.51977   0.09159   0.00000  Uiso   1.00
C289   C     0.46116   0.43051   0.40127   0.00000  Uiso   1.00
C290   C     0.35618   0.53971   0.20187   0.00000  Uiso   1.00
C291   C     0.48107   0.55537   0.00539   0.00000  Uiso   1.00
C292   C     0.48579   0.51307   0.49073   0.00000  Uiso   1.00
C293   C     0.48006   0.49743   0.44778   0.00000  Uiso   1.00
C294   C     0.50016   0.48719   0.01586   0.00000  Uiso   1.00
C295   C     0.51838   0.45111   0.49332   0.00000  Uiso   1.00
C296   C     0.50703   0.43306   0.45382   0.00000  Uiso   1.00
C297   C     0.48395   0.45464   0.43365   0.00000  Uiso   1.00
H298   H     0.56712   0.43077   0.07106   0.00000  Uiso   1.00
H299   H     0.48741   0.36332   0.49279   0.00000  Uiso   1.00
H300   H     0.60477   0.43855   0.43955   0.00000  Uiso   1.00
H301   H     0.62637   0.39292   0.44607   0.00000  Uiso   1.00
H302   H     0.62734   0.43669   0.48696   0.00000  Uiso   1.00
H303   H     0.43328   0.51874   0.08264   0.00000  Uiso   1.00
H304   H     0.47332   0.40305   0.38155   0.00000  Uiso   1.00
H305   H     0.34347   0.55150   0.17761   0.00000  Uiso   1.00
H306   H     0.65227   0.47124   0.28665   0.00000  Uiso   1.00
H307   H     0.54079   0.33717   0.21193   0.00000  Uiso   1.00
H308   H     0.45746   0.66444   0.28809   0.00000  Uiso   1.00
H309   H     0.45646   0.58761   0.41780   0.00000  Uiso   1.00
H310   H     0.48971   0.57041   0.03514   0.00000  Uiso   1.00
H311   H     0.46272   0.61233   0.49312   0.00000  Uiso   1.00
H312   H     0.49405   0.66559   0.44025   0.00000  Uiso   1.00
H313   H     0.45363   0.36664   0.45565   0.00000  Uiso   1.00
O314   O     0.50000   0.50000   0.25000   0.00000  Uiso   1.00
O315   O     0.48784   0.45970   0.15459   0.00000  Uiso   1.00
O316   O     0.46274   0.53724   0.34968   0.00000  Uiso   1.00
O317   O     0.54157   0.51092   0.14606   0.00000  Uiso   1.00
O318   O     0.50785   0.49213   0.34968   0.00000  Uiso   1.00
O319   O     0.51760   0.39406   0.43501   0.00000  Uiso   1.00
O320   O     0.56790   0.40085   0.48956   0.00000  Uiso   1.00
O321   O     0.46893   0.54173   0.12475   0.00000  Uiso   1.00
O322   O     0.42757   0.44011   0.39766   0.00000  Uiso   1.00
O323   O     0.39394   0.55033   0.20095   0.00000  Uiso   1.00
O324   O     0.51264   0.41352   0.28214   0.00000  Uiso   1.00
O325   O     0.47965   0.59418   0.27014   0.00000  Uiso   1.00
O326   O     0.40745   0.46625   0.23413   0.00000  Uiso   1.00
O327   O     0.60026   0.52605   0.21361   0.00000  Uiso   1.00
O328   O     0.40405   0.52211   0.28213   0.00000  Uiso   1.00
O329   O     0.58824   0.48559   0.27014   0.00000  Uiso   1.00
O330   O     0.47093   0.40277   0.23413   0.00000  Uiso   1.00
O331   O     0.53678   0.58953   0.21361   0.00000  Uiso   1.00
Zn332  Zn    0.52672   0.47327   0.28734   0.00000  Uiso   1.00
Zn333  Zn    0.46713   0.45791   0.21876   0.00000  Uiso   1.00
Zn334  Zn    0.54389   0.53109   0.20657   0.00000  Uiso   1.00
Zn335  Zn    0.46226   0.53773   0.28734   0.00000  Uiso   1.00
C336   C     0.71925   0.49250   0.26063   0.00000  Uiso   1.00
C337   C     0.83099   0.49599   0.06223   0.00000  Uiso   1.00
C338   C     0.88124   0.44612   0.05596   0.00000  Uiso   1.00
C339   C     0.94757   0.50745   0.23984   0.00000  Uiso   1.00
C340   C     0.80597   0.52574   0.41997   0.00000  Uiso   1.00
C341   C     0.99386   0.51207   0.23571   0.00000  Uiso   1.00
C342   C     0.67443   0.49119   0.26275   0.00000  Uiso   1.00
C343   C     0.84723   0.65585   0.23660   0.00000  Uiso   1.00
C344   C     0.81817   0.34503   0.26347   0.00000  Uiso   1.00
C345   C     0.82271   0.38921   0.26006   0.00000  Uiso   1.00
C346   C     0.84324   0.61126   0.24016   0.00000  Uiso   1.00
C347   C     0.80075   0.58048   0.48049   0.00000  Uiso   1.00
C348   C     0.85202   0.48130   0.12935   0.00000  Uiso   1.00
C349   C     0.81426   0.51735   0.37097   0.00000  Uiso   1.00
C350   C     0.87871   0.43293   0.01233   0.00000  Uiso   1.00
C351   C     0.85629   0.47599   0.08138   0.00000  Uiso   1.00
C352   C     0.79674   0.56597   0.43796   0.00000  Uiso   1.00
C353   C     0.81990   0.36316   0.45728   0.00000  Uiso   1.00
C354   C     0.94155   0.41853   0.46465   0.00000  Uiso   1.00
C355   C     0.79673   0.51977   0.09159   0.00000  Uiso   1.00
C356   C     0.79449   0.43051   0.40127   0.00000  Uiso   1.00
C357   C     0.68951   0.53971   0.20187   0.00000  Uiso   1.00
C358   C     0.81440   0.55537   0.00539   0.00000  Uiso   1.00
C359   C     0.81912   0.51307   0.49073   0.00000  Uiso   1.00
C360   C     0.81339   0.49743   0.44778   0.00000  Uiso   1.00
C361   C     0.83349   0.48719   0.01586   0.00000  Uiso   1.00
C362   C     0.85172   0.45111   0.49332   0.00000  Uiso   1.00
C363   C     0.84036   0.43306   0.45382   0.00000  Uiso   1.00
C364   C     0.81728   0.45464   0.43365   0.00000  Uiso   1.00
H365   H     0.90046   0.43077   0.07106   0.00000  Uiso   1.00
H366   H     0.82074   0.36332   0.49279   0.00000  Uiso   1.00
H367   H     0.93810   0.43855   0.43955   0.00000  Uiso   1.00
H368   H     0.95970   0.39292   0.44607   0.00000  Uiso   1.00
H369   H     0.96067   0.43669   0.48696   0.00000  Uiso   1.00
H370   H     0.76662   0.51874   0.08264   0.00000  Uiso   1.00
H371   H     0.80666   0.40305   0.38155   0.00000  Uiso   1.00
H372   H     0.67680   0.55150   0.17761   0.00000  Uiso   1.00
H373   H     0.98560   0.47124   0.28665   0.00000  Uiso   1.00
H374   H     0.87412   0.33717   0.21193   0.00000  Uiso   1.00
H375   H     0.79079   0.66444   0.28809   0.00000  Uiso   1.00
H376   H     0.78980   0.58761   0.41780   0.00000  Uiso   1.00
H377   H     0.82304   0.57041   0.03514   0.00000  Uiso   1.00
H378   H     0.79605   0.61233   0.49312   0.00000  Uiso   1.00
H379   H     0.82738   0.66559   0.44025   0.00000  Uiso   1.00
H380   H     0.78697   0.36664   0.45565   0.00000  Uiso   1.00
O381   O     0.83333   0.50000   0.25000   0.00000  Uiso   1.00
O382   O     0.82118   0.45970   0.15459   0.00000  Uiso   1.00
O383   O     0.79607   0.53724   0.34968   0.00000  Uiso   1.00
O384   O     0.87491   0.51092   0.14606   0.00000  Uiso   1.00
O385   O     0.84118   0.49213   0.34968   0.00000  Uiso   1.00
O386   O     0.85093   0.39406   0.43501   0.00000  Uiso   1.00
O387   O     0.90124   0.40085   0.48956   0.00000  Uiso   1.00
O388   O     0.80226   0.54173   0.12475   0.00000  Uiso   1.00
O389   O     0.76090   0.44011   0.39766   0.00000  Uiso   1.00
O390   O     0.72727   0.55033   0.20095   0.00000  Uiso   1.00
O391   O     0.84597   0.41352   0.28214   0.00000  Uiso   1.00
O392   O     0.81298   0.59418   0.27014   0.00000  Uiso   1.00
O393   O     0.74078   0.46625   0.23413   0.00000  Uiso   1.00
O394   O     0.93360   0.52605   0.21361   0.00000  Uiso   1.00
O395   O     0.73738   0.52211   0.28213   0.00000  Uiso   1.00
O396   O     0.92158   0.48559   0.27014   0.00000  Uiso   1.00
O397   O     0.80426   0.40277   0.23413   0.00000  Uiso   1.00
O398   O     0.87012   0.58953   0.21361   0.00000  Uiso   1.00
Zn399  Zn    0.86005   0.47327   0.28734   0.00000  Uiso   1.00
Zn400  Zn    0.80046   0.45791   0.21876   0.00000  Uiso   1.00
Zn401  Zn    0.87723   0.53109   0.20657   0.00000  Uiso   1.00
Zn402  Zn    0.79560   0.53773   0.28734   0.00000  Uiso   1.00
C403   C     0.05258   0.82583   0.26063   0.00000  Uiso   1.00
C404   C     0.16432   0.82933   0.06223   0.00000  Uiso   1.00
C405   C     0.21457   0.77945   0.05596   0.00000  Uiso   1.00
C406   C     0.28090   0.84079   0.23984   0.00000  Uiso   1.00
C407   C     0.13930   0.85907   0.41997   0.00000  Uiso   1.00
C408   C     0.32719   0.84541   0.23571   0.00000  Uiso   1.00
C409   C     0.00776   0.82453   0.26275   0.00000  Uiso   1.00
C410   C     0.18056   0.98919   0.23660   0.00000  Uiso   1.00
C411   C     0.15150   0.67836   0.26347   0.00000  Uiso   1.00
C412   C     0.15604   0.72254   0.26006   0.00000  Uiso   1.00
C413   C     0.17657   0.94460   0.24016   0.00000  Uiso   1.00
C414   C     0.13408   0.91381   0.48049   0.00000  Uiso   1.00
C415   C     0.18535   0.81463   0.12935   0.00000  Uiso   1.00
C416   C     0.14760   0.85068   0.37097   0.00000  Uiso   1.00
C417   C     0.21204   0.76626   0.01233   0.00000  Uiso   1.00
C418   C     0.18962   0.80932   0.08138   0.00000  Uiso   1.00
C419   C     0.13008   0.89930   0.43796   0.00000  Uiso   1.00
C420   C     0.15324   0.69649   0.45728   0.00000  Uiso   1.00
C421   C     0.27489   0.75186   0.46465   0.00000  Uiso   1.00
C422   C     0.13006   0.85310   0.09159   0.00000  Uiso   1.00
C423   C     0.12783   0.76384   0.40127   0.00000  Uiso   1.00
C424   C     0.02285   0.87304   0.20187   0.00000  Uiso   1.00
C425   C     0.14774   0.88871   0.00539   0.00000  Uiso   1.00
C426   C     0.15245   0.84640   0.49073   0.00000  Uiso   1.00
C427   C     0.14672   0.83077   0.44778   0.00000  Uiso   1.00
C428   C     0.16683   0.82052   0.01586   0.00000  Uiso   1.00
C429   C     0.18505   0.78444   0.49332   0.00000  Uiso   1.00
C430   C     0.17370   0.76640   0.45382   0.00000  Uiso   1.00
C431   C     0.15062   0.78797   0.43365   0.00000  Uiso   1.00
H432   H     0.23379   0.76410   0.07106   0.00000  Uiso   1.00
H433   H     0.15407   0.69665   0.49279   0.00000  Uiso   1.00
H434   H     0.27143   0.77188   0.43955   0.00000  Uiso   1.00
H435   H     0.29304   0.72626   0.44607   0.00000  Uiso   1.00
H436   H     0.29401   0.77002   0.48696   0.00000  Uiso   1.00
H437   H     0.09995   0.85207   0.08264   0.00000  Uiso   1.00
H438   H     0.13999   0.73639   0.38155   0.00000  Uiso   1.00
H439   H     0.01014   0.88484   0.17761   0.00000  Uiso   1.00
H440   H     0.31894   0.80457   0.28665   0.00000  Uiso   1.00
H441   H     0.20746   0.67050   0.21193   0.00000  Uiso   1.00
H442   H     0.12413   0.99778   0.28809   0.00000  Uiso   1.00
H443   H     0.12313   0.92095   0.41780   0.00000  Uiso   1.00
H444   H     0.15637   0.90374   0.03514   0.00000  Uiso   1.00
H445   H     0.12938   0.94566   0.49312   0.00000  Uiso   1.00
H446   H     0.16072   0.99892   0.44025   0.00000  Uiso   1.00
H447   H     0.12030   0.69997   0.45565   0.00000  Uiso   1.00
O448   O     0.16667   0.83333   0.25000   0.00000  Uiso   1.00
O449   O     0.15451   0.79304   0.15459   0.00000  Uiso   1.00
O450   O     0.12940   0.87058   0.34968   0.00000  Uiso   1.00
O451   O     0.20824   0.84425   0.14606   0.00000  Uiso   1.00
O452   O     0.17451   0.82546   0.34968   0.00000  Uiso   1.00
O453   O     0.18426   0.72739   0.43501   0.00000  Uiso   1.00
O454   O     0.23457   0.73418   0.48956   0.00000  Uiso   1.00
O455   O     0.13560   0.87506   0.12475   0.00000  Uiso   1.00
O456   O     0.09423   0.77344   0.39766   0.00000  Uiso   1.00
O457   O     0.06060   0.88366   0.20095   0.00000  Uiso   1.00
O458   O     0.17930   0.74686   0.28214   0.00000  Uiso   1.00
O459   O     0.14632   0.92751   0.27014   0.00000  Uiso   1.00
O460   O     0.07412   0.79958   0.23413   0.00000  Uiso   1.00
O461   O     0.26693   0.85939   0.21361   0.00000  Uiso   1.00
O462   O     0.07071   0.85544   0.28213   0.00000  Uiso   1.00
O463   O     0.25491   0.81892   0.27014   0.00000  Uiso   1.00
O464   O     0.13760   0.73610   0.23413   0.00000  Uiso   1.00
O465   O     0.20345   0.92286   0.21361   0.00000  Uiso   1.00
Zn466  Zn    0.19338   0.80661   0.28734   0.00000  Uiso   1.00
Zn467  Zn    0.13379   0.79124   0.21876   0.00000  Uiso   1.00
Zn468  Zn    0.21056   0.86442   0.20657   0.00000  Uiso   1.00
Zn469  Zn    0.12893   0.87106   0.28734   0.00000  Uiso   1.00
C470   C     0.38592   0.82583   0.26063   0.00000  Uiso   1.00
C471   C     0.49766   0.82933   0.06223   0.00000  Uiso   1.00
C472   C     0.54791   0.77945   0.05596   0.00000  Uiso   1.00
C473   C     0.61424   0.84079   0.23984   0.00000  Uiso   1.00
C474   C     0.47263   0.85907   0.41997   0.00000  Uiso   1.00
C475   C     0.66052   0.84541   0.23571   0.00000  Uiso   1.00
C476   C     0.34109   0.82453   0.26275   0.00000  Uiso   1.00
C477   C     0.51390   0.98919   0.23660   0.00000  Uiso   1.00
C478   C     0.48484   0.67836   0.26347   0.00000  Uiso   1.00
C479   C     0.48938   0.72254   0.26006   0.00000  Uiso   1.00
C480   C     0.50990   0.94460   0.24016   0.00000  Uiso   1.00
C481   C     0.46741   0.91381   0.48049   0.00000  Uiso   1.00
C482   C     0.51869   0.81463   0.12935   0.00000  Uiso   1.00
C483   C     0.48093   0.85068   0.37097   0.00000  Uiso   1.00
C484   C     0.54538   0.76626   0.01233   0.00000  Uiso   1.00
C485   C     0.52295   0.80932   0.08138   0.00000  Uiso   1.00
C486   C     0.46341   0.89930   0.43796   0.00000  Uiso   1.00
C487   C     0.48657   0.69649   0.45728   0.00000  Uiso   1.00
C488   C     0.60822   0.75186   0.46465   0.00000  Uiso   1.00
C489   C     0.46340   0.85310   0.09159   0.00000  Uiso   1.00
C490   C     0.46116   0.76384   0.40127   0.00000  Uiso   1.00
C491   C     0.35618   0.87304   0.20187   0.00000  Uiso   1.00
C492   C     0.48107   0.88871   0.00539   0.00000  Uiso   1.00
C493   C     0.48579   0.84640   0.49073   0.00000  Uiso   1.00
C494   C     0.48006   0.83077   0.44778   0.00000  Uiso   1.00
C495   C     0.50016   0.82052   0.01586   0.00000  Uiso   1.00
C496   C     0.51838   0.78444   0.49332   0.00000  Uiso   1.00
C497   C     0.50703   0.76640   0.45382   0.00000  Uiso   1.00
C498   C     0.48395   0.78797   0.43365   0.00000  Uiso   1.00
H499   H     0.56712   0.76410   0.07106   0.00000  Uiso   1.00
H500   H     0.48741   0.69665   0.49279   0.00000  Uiso   1.00
H501   H     0.60477   0.77188   0.43955   0.00000  Uiso   1.00
H502   H     0.62637   0.72626   0.44607   0.00000  Uiso   1.00
H503   H     0.62734   0.77002   0.48696   0.00000  Uiso   1.00
H504   H     0.43328   0.85207   0.08264   0.00000  Uiso   1.00
H505   H     0.47332   0.73639   0.38155   0.00000  Uiso   1.00
H506   H     0.34347   0.88484   0.17761   0.00000  Uiso   1.00
H507   H     0.65227   0.80457   0.28665   0.00000  Uiso   1.00
H508   H     0.54079   0.67050   0.21193   0.00000  Uiso   1.00
H509   H     0.45746   0.99778   0.28809   0.00000  Uiso   1.00
H510   H     0.45646   0.92095   0.41780   0.00000  Uiso   1.00
H511   H     0.48971   0.90374   0.03514   0.00000  Uiso   1.00
H512   H     0.46272   0.94566   0.49312   0.00000  Uiso   1.00
H513   H     0.49405   0.99892   0.44025   0.00000  Uiso   1.00
H514   H     0.45363   0.69997   0.45565   0.00000  Uiso   1.00
O515   O     0.50000   0.83333   0.25000   0.00000  Uiso   1.00
O516   O     0.48784   0.79304   0.15459   0.00000  Uiso   1.00
O517   O     0.46274   0.87058   0.34968   0.00000  Uiso   1.00
O518   O     0.54157   0.84425   0.14606   0.00000  Uiso   1.00
O519   O     0.50785   0.82546   0.34968   0.00000  Uiso   1.00
O520   O     0.51760   0.72739   0.43501   0.00000  Uiso   1.00
O521   O     0.56790   0.73418   0.48956   0.00000  Uiso   1.00
O522   O     0.46893   0.87506   0.12475   0.00000  Uiso   1.00
O523   O     0.42757   0.77344   0.39766   0.00000  Uiso   1.00
O524   O     0.39394   0.88366   0.20095   0.00000  Uiso   1.00
O525   O     0.51264   0.74686   0.28214   0.00000  Uiso   1.00
O526   O     0.47965   0.92751   0.27014   0.00000  Uiso   1.00
O527   O     0.40745   0.79958   0.23413   0.00000  Uiso   1.00
O528   O     0.60026   0.85939   0.21361   0.00000  Uiso   1.00
O529   O     0.40405   0.85544   0.28213   0.00000  Uiso   1.00
O530   O     0.58824   0.81892   0.27014   0.00000  Uiso   1.00
O531   O     0.47093   0.73610   0.23413   0.00000  Uiso   1.00
O532   O     0.53678   0.92286   0.21361   0.00000  Uiso   1.00
Zn533  Zn    0.52672   0.80661   0.28734   0.00000  Uiso   1.00
Zn534  Zn    0.46713   0.79124   0.21876   0.00000  Uiso   1.00
Zn535  Zn    0.54389   0.86442   0.20657   0.00000  Uiso   1.00
Zn536  Zn    0.46226   0.87106   0.28734   0.00000  Uiso   1.00
C537   C     0.71925   0.82583   0.26063   0.00000  Uiso   1.00
C538   C     0.83099   0.82933   0.06223   0.00000  Uiso   1.00
C539   C     0.88124   0.77945   0.05596   0.00000  Uiso   1.00
C540   C     0.94757   0.84079   0.23984   0.00000  Uiso   1.00
C541   C     0.80597   0.85907   0.41997   0.00000  Uiso   1.00
C542   C     0.99386   0.84541   0.23571   0.00000  Uiso   1.00
C543   C     0.67443   0.82453   0.26275   0.00000  Uiso   1.00
C544   C     0.84723   0.98919   0.23660   0.00000  Uiso   1.00
C545   C     0.81817   0.67836   0.26347   0.00000  Uiso   1.00
C546   C     0.82271   0.72254   0.26006   0.00000  Uiso   1.00
C547   C     0.84324   0.94460   0.24016   0.00000  Uiso   1.00
C548   C     0.80075   0.91381   0.48049   0.00000  Uiso   1.00
C549   C     0.85202   0.81463   0.12935   0.00000  Uiso   1.00
C550   C     0.81426   0.85068   0.37097   0.00000  Uiso   1.00
C551   C     0.87871   0.76626   0.01233   0.00000  Uiso   1.00
C552   C     0.85629   0.80932   0.08138   0.00000  Uiso   1.00
C553   C     0.79674   0.89930   0.43796   0.00000  Uiso   1.00
C554   C     0.81990   0.69649   0.45728   0.00000  Uiso   1.00
C555   C     0.94155   0.75186   0.46465   0.00000  Uiso   1.00
C556   C     0.79673   0.85310   0.09159   0.00000  Uiso   1.00
C557   C     0.79449   0.76384   0.40127   0.00000  Uiso   1.00
C558   C     0.68951   0.87304   0.20187   0.00000  Uiso   1.00
C559   C     0.81440   0.88871   0.00539   0.00000  Uiso   1.00
C560   C     0.81912   0.84640   0.49073   0.00000  Uiso   1.00
C561   C     0.81339   0.83077   0.44778   0.00000  Uiso   1.00
C562   C     0.83349   0.82052   0.01586   0.00000  Uiso   1.00
C563   C     0.85172   0.78444   0.49332   0.00000  Uiso   1.00
C564   C     0.84036   0.76640   0.45382   0.00000  Uiso   1.00
C565   C     0.81728   0.78797   0.43365   0.00000  Uiso   1.00
H566   H     0.90046   0.76410   0.07106   0.00000  Uiso   1.00
H567   H     0.82074   0.69665   0.49279   0.00000  Uiso   1.00
H568   H     0.93810   0.77188   0.43955   0.00000  Uiso   1.00
H569   H     0.95970   0.72626   0.44607   0.00000  Uiso   1.00
H570   H     0.96067   0.77002   0.48696   0.00000  Uiso   1.00
H571   H     0.76662   0.85207   0.08264   0.00000  Uiso   1.00
H572   H     0.80666   0.73639   0.38155   0.00000  Uiso   1.00
H573   H     0.67680   0.88484   0.17761   0.00000  Uiso   1.00
H574   H     0.98560   0.80457   0.28665   0.00000  Uiso   1.00
H575   H     0.87412   0.67050   0.21193   0.00000  Uiso   1.00
H576   H     0.79079   0.99778   0.28809   0.00000  Uiso   1.00
H577   H     0.78980   0.92095   0.41780   0.00000  Uiso   1.00
H578   H     0.82304   0.90374   0.03514   0.00000  Uiso   1.00
H579   H     0.79605   0.94566   0.49312   0.00000  Uiso   1.00
H580   H     0.82738   0.99892   0.44025   0.00000  Uiso   1.00
H581   H     0.78697   0.69997   0.45565   0.00000  Uiso   1.00
O582   O     0.83333   0.83333   0.25000   0.00000  Uiso   1.00
O583   O     0.82118   0.79304   0.15459   0.00000  Uiso   1.00
O584   O     0.79607   0.87058   0.34968   0.00000  Uiso   1.00
O585   O     0.87491   0.84425   0.14606   0.00000  Uiso   1.00
O586   O     0.84118   0.82546   0.34968   0.00000  Uiso   1.00
O587   O     0.85093   0.72739   0.43501   0.00000  Uiso   1.00
O588   O     0.90124   0.73418   0.48956   0.00000  Uiso   1.00
O589   O     0.80226   0.87506   0.12475   0.00000  Uiso   1.00
O590   O     0.76090   0.77344   0.39766   0.00000  Uiso   1.00
O591   O     0.72727   0.88366   0.20095   0.00000  Uiso   1.00
O592   O     0.84597   0.74686   0.28214   0.00000  Uiso   1.00
O593   O     0.81298   0.92751   0.27014   0.00000  Uiso   1.00
O594   O     0.74078   0.79958   0.23413   0.00000  Uiso   1.00
O595   O     0.93360   0.85939   0.21361   0.00000  Uiso   1.00
O596   O     0.73738   0.85544   0.28213   0.00000  Uiso   1.00
O597   O     0.92158   0.81892   0.27014   0.00000  Uiso   1.00
O598   O     0.80426   0.73610   0.23413   0.00000  Uiso   1.00
O599   O     0.87012   0.92286   0.21361   0.00000  Uiso   1.00
Zn600  Zn    0.86005   0.80661   0.28734   0.00000  Uiso   1.00
Zn601  Zn    0.80046   0.79124   0.21876   0.00000  Uiso   1.00
Zn602  Zn    0.87723   0.86442   0.20657   0.00000  Uiso   1.00
Zn603  Zn    0.79560   0.87106   0.28734   0.00000  Uiso   1.00
C604   C     0.05258   0.15916   0.76063   0.00000  Uiso   1.00
C605   C     0.16432   0.16266   0.56223   0.00000  Uiso   1.00
C606   C     0.21457   0.11278   0.55596   0.00000  Uiso   1.00
C607   C     0.28090   0.17412   0.73984   0.00000  Uiso   1.00
C608   C     0.13930   0.19240   0.91997   0.00000  Uiso   1.00
C609   C     0.32719   0.17874   0.73571   0.00000  Uiso   1.00
C610   C     0.00776   0.15786   0.76275   0.00000  Uiso   1.00
C611   C     0.18056   0.32252   0.73660   0.00000  Uiso   1.00
C612   C     0.15150   0.01169   0.76347   0.00000  Uiso   1.00
C613   C     0.15604   0.05588   0.76006   0.00000  Uiso   1.00
C614   C     0.17657   0.27793   0.74016   0.00000  Uiso   1.00
C615   C     0.13408   0.24714   0.98049   0.00000  Uiso   1.00
C616   C     0.18535   0.14797   0.62935   0.00000  Uiso   1.00
C617   C     0.14760   0.18401   0.87097   0.00000  Uiso   1.00
C618   C     0.21204   0.09959   0.51233   0.00000  Uiso   1.00
C619   C     0.18962   0.14265   0.58138   0.00000  Uiso   1.00
C620   C     0.13008   0.23264   0.93796   0.00000  Uiso   1.00
C621   C     0.15324   0.02983   0.95728   0.00000  Uiso   1.00
C622   C     0.27489   0.08520   0.96465   0.00000  Uiso   1.00
C623   C     0.13006   0.18643   0.59159   0.00000  Uiso   1.00
C624   C     0.12783   0.09718   0.90127   0.00000  Uiso   1.00
C625   C     0.02285   0.20637   0.70187   0.00000  Uiso   1.00
C626   C     0.14774   0.22204   0.50539   0.00000  Uiso   1.00
C627   C     0.15245   0.17973   0.99073   0.00000  Uiso   1.00
C628   C     0.14672   0.16410   0.94778   0.00000  Uiso   1.00
C629   C     0.16683   0.15385   0.51586   0.00000  Uiso   1.00
C630   C     0.18505   0.11777   0.99332   0.00000  Uiso   1.00
C631   C     0.17370   0.09973   0.95382   0.00000  Uiso   1.00
C632   C     0.15062   0.12131   0.93365   0.00000  Uiso   1.00
H633   H     0.23379   0.09743   0.57106   0.00000  Uiso   1.00
H634   H     0.15407   0.02999   0.99279   0.00000  Uiso   1.00
H635   H     0.27143   0.10521   0.93955   0.00000  Uiso   1.00
H636   H     0.29304   0.05959   0.94607   0.00000  Uiso   1.00
H637   H     0.29401   0.10336   0.98696   0.00000  Uiso   1.00
H638   H     0.09995   0.18541   0.58264   0.00000  Uiso   1.00
H639   H     0.13999   0.06972   0.88155   0.00000  Uiso   1.00
H640   H     0.01014   0.21817   0.67761   0.00000  Uiso   1.00
H641   H     0.31894   0.13790   0.78665   0.00000  Uiso   1.00
H642   H     0.20746   0.00384   0.71193   0.00000  Uiso   1.00
H643   H     0.12413   0.33111   0.78809   0.00000  Uiso   1.00
H644   H     0.12313   0.25428   0.91780   0.00000  Uiso   1.00
H645   H     0.15637   0.23708   0.53514   0.00000  Uiso   1.00
H646   H     0.12938   0.27900   0.99312   0.00000  Uiso   1.00
H647   H     0.16072   0.33226   0.94025   0.00000  Uiso   1.00
H648   H     0.12030   0.03330   0.95565   0.00000  Uiso   1.00
O649   O     0.16667   0.16667   0.75000   0.00000  Uiso   1.00
O650   O     0.15451   0.12637   0.65459   0.00000  Uiso   1.00
O651   O     0.12940   0.20391   0.84968   0.00000  Uiso   1.00
O652   O     0.20824   0.17759   0.64606   0.00000  Uiso   1.00
O653   O     0.17451   0.15880   0.84968   0.00000  Uiso   1.00
O654   O     0.18426   0.06072   0.93501   0.00000  Uiso   1.00
O655   O     0.23457   0.06751   0.98956   0.00000  Uiso   1.00
O656   O     0.13560   0.20840   0.62475   0.00000  Uiso   1.00
O657   O     0.09423   0.10678   0.89766   0.00000  Uiso   1.00
O658   O     0.06060   0.21700   0.70095   0.00000  Uiso   1.00
O659   O     0.17930   0.08019   0.78214   0.00000  Uiso   1.00
O660   O     0.14632   0.26085   0.77014   0.00000  Uiso   1.00
O661   O     0.07412   0.13291   0.73413   0.00000  Uiso   1.00
O662   O     0.26693   0.19272   0.71361   0.00000  Uiso   1.00
O663   O     0.07071   0.18878   0.78213   0.00000  Uiso   1.00
O664   O     0.25491   0.15226   0.77014   0.00000  Uiso   1.00
O665   O     0.13760   0.06944   0.73413   0.00000  Uiso   1.00
O666   O     0.20345   0.25620   0.71361   0.00000  Uiso   1.00
Zn667  Zn    0.19338   0.13994   0.78734   0.00000  Uiso   1.00
Zn668  Zn    0.13379   0.12458   0.71876   0.00000  Uiso   1.00
Zn669  Zn    0.21056   0.19775   0.70657   0.00000  Uiso   1.00
Zn670  Zn    0.12893   0.20439   0.78734   0.00000  Uiso   1.00
C671   C     0.38592   0.15916   0.76063   0.00000  Uiso   1.00
C672   C     0.49766   0.16266   0.56223   0.00000  Uiso   1.00
C673   C     0.54791   0.11278   0.55596   0.00000  Uiso   1.00
C674   C     0.61424   0.17412   0.73984   0.00000  Uiso   1.00
C675   C     0.47263   0.19240   0.91997   0.00000  Uiso   1.00
C676   C     0.66052   0.17874   0.73571   0.00000  Uiso   1.00
C677   C     0.34109   0.15786   0.76275   0.00000  Uiso   1.00
C678   C     0.51390   0.32252   0.73660   0.00000  Uiso   1.00
C679   C     0.48484   0.01169   0.76347   0.00000  Uiso   1.00
C680   C     0.48938   0.05588   0.76006   0.00000  Uiso   1.00
C681   C     0.50990   0.27793   0.74016   0.00000  Uiso   1.00
C682   C     0.46741   0.24714   0.98049   0.00000  Uiso   1.00
C683   C     0.51869   0.14797   0.62935   0.00000  Uiso   1.00
C684   C     0.48093   0.18401   0.87097   0.00000  Uiso   1.00
C685   C     0.54538   0.09959   0.51233   0.00000  Uiso   1.00
C686   C     0.52295   0.14265   0.58138   0.00000  Uiso   1.00
C687   C     0.46341   0.23264   0.93796   0.00000  Uiso   1.00
C688   C     0.48657   0.02983   0.95728   0.00000  Uiso   1.00
C689   C     0.60822   0.08520   0.96465   0.00000  Uiso   1.00
C690   C     0.46340   0.18643   0.59159   0.00000  Uiso   1.00
C691   C     0.46116   0.09718   0.90127   0.00000  Uiso   1.00
C692   C     0.35618   0.20637   0.70187   0.00000  Uiso   1.00
C693   C     0.48107   0.22204   0.50539   0.00000  Uiso   1.00
C694   C     0.48579   0.17973   0.99073   0.00000  Uiso   1.00
C695   C     0.48006   0.16410   0.94778   0.00000  Uiso   1.00
C696   C     0.50016   0.15385   0.51586   0.00000  Uiso   1.00
C697   C     0.51838   0.11777   0.99332   0.00000  Uiso   1.00
C698   C     0.50703   0.09973   0.95382   0.00000  Uiso   1.00
C699   C     0.48395   0.12131   0.93365   0.00000  Uiso   1.00
H700   H     0.56712   0.09743   0.57106   0.00000  Uiso   1.00
H701   H     0.48741   0.02999   0.99279   0.00000  Uiso   1.00
H702   H     0.60477   0.10521   0.93955   0.00000  Uiso   1.00
H703   H     0.62637   0.05959   0.94607   0.00000  Uiso   1.00
H704   H     0.62734   0.10336   0.98696   0.00000  Uiso   1.00
H705   H     0.43328   0.18541   0.58264   0.00000  Uiso   1.00
H706   H     0.47332   0.06972   0.88155   0.00000  Uiso   1.00
H707   H     0.34347   0.21817   0.67761   0.00000  Uiso   1.00
H708   H     0.65227   0.13790   0.78665   0.00000  Uiso   1.00
H709   H     0.54079   0.00384   0.71193   0.00000  Uiso   1.00
H710   H     0.45746   0.33111   0.78809   0.00000  Uiso   1.00
H711   H     0.45646   0.25428   0.91780   0.00000  Uiso   1.00
H712   H     0.48971   0.23708   0.53514   0.00000  Uiso   1.00
H713   H     0.46272   0.27900   0.99312   0.00000  Uiso   1.00
H714   H     0.49405   0.33226   0.94025   0.00000  Uiso   1.00
H715   H     0.45363   0.03330   0.95565   0.00000  Uiso   1.00
O716   O     0.50000   0.16667   0.75000   0.00000  Uiso   1.00
O717   O     0.48784   0.12637   0.65459   0.00000  Uiso   1.00
O718   O     0.46274   0.20391   0.84968   0.00000  Uiso   1.00
O719   O     0.54157   0.17759   0.64606   0.00000  Uiso   1.00
O720   O     0.50785   0.15880   0.84968   0.00000  Uiso   1.00
O721   O     0.51760   0.06072   0.93501   0.00000  Uiso   1.00
O722   O     0.56790   0.06751   0.98956   0.00000  Uiso   1.00
O723   O     0.46893   0.20840   0.62475   0.00000  Uiso   1.00
O724   O     0.42757   0.10678   0.89766   0.00000  Uiso   1.00
O725   O     0.39394   0.21700   0.70095   0.00000  Uiso   1.00
O726   O     0.51264   0.08019   0.78214   0.00000  Uiso   1.00
O727   O     0.47965   0.26085   0.77014   0.00000  Uiso   1.00
O728   O     0.40745   0.13291   0.73413   0.00000  Uiso   1.00
O729   O     0.60026   0.19272   0.71361   0.00000  Uiso   1.00
O730   O     0.40405   0.18878   0.78213   0.00000  Uiso   1.00
O731   O     0.58824   0.15226   0.77014   0.00000  Uiso   1.00
O732   O     0.47093   0.06944   0.73413   0.00000  Uiso   1.00
O733   O     0.53678   0.25620   0.71361   0.00000  Uiso   1.00
Zn734  Zn    0.52672   0.13994   0.78734   0.00000  Uiso   1.00
Zn735  Zn    0.46713   0.12458   0.71876   0.00000  Uiso   1.00
Zn736  Zn    0.54389   0.19775   0.70657   0.00000  Uiso   1.00
Zn737  Zn    0.46226   0.20439   0.78734   0.00000  Uiso   1.00
C738   C     0.71925   0.15916   0.76063   0.00000  Uiso   1.00
C739   C     0.83099   0.16266   0.56223   0.00000  Uiso   1.00
C740   C     0.88124   0.11278   0.55596   0.00000  Uiso   1.00
C741   C     0.94757   0.17412   0.73984   0.00000  Uiso   1.00
C742   C     0.80597   0.19240   0.91997   0.00000  Uiso   1.00
C743   C     0.99386   0.17874   0.73571   0.00000  Uiso   1.00
C744   C     0.67443   0.15786   0.76275   0.00000  Uiso   1.00
C745   C     0.84723   0.32252   0.73660   0.00000  Uiso   1.00
C746   C     0.81817   0.01169   0.76347   0.00000  Uiso   1.00
C747   C     0.82271   0.05588   0.76006   0.00000  Uiso   1.00
C748   C     0.84324   0.27793   0.74016   0.00000  Uiso   1.00
C749   C     0.80075   0.24714   0.98049   0.00000  Uiso   1.00
C750   C     0.85202   0.14797   0.62935   0.00000  Uiso   1.00
C751   C     0.81426   0.18401   0.87097   0.00000  Uiso   1.00
C752   C     0.87871   0.09959   0.51233   0.00000  Uiso   1.00
C753   C     0.85629   0.14265   0.58138   0.00000  Uiso   1.00
C754   C     0.79674   0.23264   0.93796   0.00000  Uiso   1.00
C755   C     0.81990   0.02983   0.95728   0.00000  Uiso   1.00
C756   C     0.94155   0.08520   0.96465   0.00000  Uiso   1.00
C757   C     0.79673   0.18643   0.59159   0.00000  Uiso   1.00
C758   C     0.79449   0.09718   0.90127   0.00000  Uiso   1.00
C759   C     0.68951   0.20637   0.70187   0.00000  Uiso   1.00
C760   C     0.81440   0.22204   0.50539   0.00000  Uiso   1.00
C761   C     0.81912   0.17973   0.99073   0.00000  Uiso   1.00
C762   C     0.81339   0.16410   0.94778   0.00000  Uiso   1.00
C763   C     0.83349   0.15385   0.51586   0.00000  Uiso   1.00
C764   C     0.85172   0.11777   0.99332   0.00000  Uiso   1.00
C765   C     0.84036   0.09973   0.95382   0.00000  Uiso   1.00
C766   C     0.81728   0.12131   0.93365   0.00000  Uiso   1.00
H767   H     0.90046   0.09743   0.57106   0.00000  Uiso   1.00
H768   H     0.82074   0.02999   0.99279   0.00000  Uiso   1.00
H769   H     0.93810   0.10521   0.93955   0.00000  Uiso   1.00
H770   H     0.95970   0.05959   0.94607   0.00000  Uiso   1.00
H771   H     0.96067   0.10336   0.98696   0.00000  Uiso   1.00
H772   H     0.76662   0.18541   0.58264   0.00000  Uiso   1.00
H773   H     0.80666   0.06972   0.88155   0.00000  Uiso   1.00
H774   H     0.67680   0.21817   0.67761   0.00000  Uiso   1.00
H775   H     0.98560   0.13790   0.78665   0.00000  Uiso   1.00
H776   H     0.87412   0.00384   0.71193   0.00000  Uiso   1.00
H777   H     0.79079   0.33111   0.78809   0.00000  Uiso   1.00
H778   H     0.78980   0.25428   0.91780   0.00000  Uiso   1.00
H779   H     0.82304   0.23708   0.53514   0.00000  Uiso   1.00
H780   H     0.79605   0.27900   0.99312   0.00000  Uiso   1.00
H781   H     0.82738   0.33226   0.94025   0.00000  Uiso   1.00
H782   H     0.78697   0.03330   0.95565   0.00000  Uiso   1.00
O783   O     0.83333   0.16667   0.75000   0.00000  Uiso   1.00
O784   O     0.82118   0.12637   0.65459   0.00000  Uiso   1.00
O785   O     0.79607   0.20391   0.84968   0.00000  Uiso   1.00
O786   O     0.87491   0.17759   0.64606   0.00000  Uiso   1.00
O787   O     0.84118   0.15880   0.84968   0.00000  Uiso   1.00
O788   O     0.85093   0.06072   0.93501   0.00000  Uiso   1.00
O789   O     0.90124   0.06751   0.98956   0.00000  Uiso   1.00
O790   O     0.80226   0.20840   0.62475   0.00000  Uiso   1.00
O791   O     0.76090   0.10678   0.89766   0.00000  Uiso   1.00
O792   O     0.72727   0.21700   0.70095   0.00000  Uiso   1.00
O793   O     0.84597   0.08019   0.78214   0.00000  Uiso   1.00
O794   O     0.81298   0.26085   0.77014   0.00000  Uiso   1.00
O795   O     0.74078   0.13291   0.73413   0.00000  Uiso   1.00
O796   O     0.93360   0.19272   0.71361   0.00000  Uiso   1.00
O797   O     0.73738   0.18878   0.78213   0.00000  Uiso   1.00
O798   O     0.92158   0.15226   0.77014   0.00000  Uiso   1.00
O799   O     0.80426   0.06944   0.73413   0.00000  Uiso   1.00
O800   O     0.87012   0.25620   0.71361   0.00000  Uiso   1.00
Zn801  Zn    0.86005   0.13994   0.78734   0.00000  Uiso   1.00
Zn802  Zn    0.80046   0.12458   0.71876   0.00000  Uiso   1.00
Zn803  Zn    0.87723   0.19775   0.70657   0.00000  Uiso   1.00
Zn804  Zn    0.79560   0.20439   0.78734   0.00000  Uiso   1.00
C805   C     0.05258   0.49250   0.76063   0.00000  Uiso   1.00
C806   C     0.16432   0.49599   0.56223   0.00000  Uiso   1.00
C807   C     0.21457   0.44612   0.55596   0.00000  Uiso   1.00
C808   C     0.28090   0.50745   0.73984   0.00000  Uiso   1.00
C809   C     0.13930   0.52574   0.91997   0.00000  Uiso   1.00
C810   C     0.32719   0.51207   0.73571   0.00000  Uiso   1.00
C811   C     0.00776   0.49119   0.76275   0.00000  Uiso   1.00
C812   C     0.18056   0.65585   0.73660   0.00000  Uiso   1.00
C813   C     0.15150   0.34503   0.76347   0.00000  Uiso   1.00
C814   C     0.15604   0.38921   0.76006   0.00000  Uiso   1.00
C815   C     0.17657   0.61126   0.74016   0.00000  Uiso   1.00
C816   C     0.13408   0.58048   0.98049   0.00000  Uiso   1.00
C817   C     0.18535   0.48130   0.62935   0.00000  Uiso   1.00
C818   C     0.14760   0.51735   0.87097   0.00000  Uiso   1.00
C819   C     0.21204   0.43293   0.51233   0.00000  Uiso   1.00
C820   C     0.18962   0.47599   0.58138   0.00000  Uiso   1.00
C821   C     0.13008   0.56597   0.93796   0.00000  Uiso   1.00
C822   C     0.15324   0.36316   0.95728   0.00000  Uiso   1.00
C823   C     0.27489   0.41853   0.96465   0.00000  Uiso   1.00
C824   C     0.13006   0.51977   0.59159   0.00000  Uiso   1.00
C825   C     0.12783   0.43051   0.90127   0.00000  Uiso   1.00
C826   C     0.02285   0.53971   0.70187   0.00000  Uiso   1.00
C827   C     0.14774   0.55537   0.50539   0.00000  Uiso   1.00
C828   C     0.15245   0.51307   0.99073   0.00000  Uiso   1.00
C829   C     0.14672   0.49743   0.94778   0.00000  Uiso   1.00
C830   C     0.16683   0.48719   0.51586   0.00000  Uiso   1.00
C831   C     0.18505   0.45111   0.99332   0.00000  Uiso   1.00
C832   C     0.17370   0.43306   0.95382   0.00000  Uiso   1.00
C833   C     0.15062   0.45464   0.93365   0.00000  Uiso   1.00
H834   H     0.23379   0.43077   0.57106   0.00000  Uiso   1.00
H835   H     0.15407   0.36332   0.99279   0.00000  Uiso   1.00
H836   H     0.27143   0.43855   0.93955   0.00000  Uiso   1.00
H837   H     0.29304   0.39292   0.94607   0.00000  Uiso   1.00
H838   H     0.29401   0.43669   0.98696   0.00000  Uiso   1.00
H839   H     0.09995   0.51874   0.58264   0.00000  Uiso   1.00
H840   H     0.13999   0.40305   0.88155   0.00000  Uiso   1.00
H841   H     0.01014   0.55150   0.67761   0.00000  Uiso   1.00
H842   H     0.31894   0.47124   0.78665   0.00000  Uiso   1.00
H843   H     0.20746   0.33717   0.71193   0.00000  Uiso   1.00
H844   H     0.12413   0.66444   0.78809   0.00000  Uiso   1.00
H845   H     0.12313   0.58761   0.91780   0.00000  Uiso   1.00
H846   H     0.15637   0.57041   0.53514   0.00000  Uiso   1.00
H847   H     0.12938   0.61233   0.99312   0.00000  Uiso   1.00
H848   H     0.16072   0.66559   0.94025   0.00000  Uiso   1.00
H849   H     0.12030   0.36664   0.95565   0.00000  Uiso   1.00
O850   O     0.16667   0.50000   0.75000   0.00000  Uiso   1.00
O851   O     0.15451   0.45970   0.65459   0.00000  Uiso   1.00
O852   O     0.12940   0.53724   0.84968   0.00000  Uiso   1.00
O853   O     0.20824   0.51092   0.64606   0.00000  Uiso   1.00
O854   O     0.17451   0.49213   0.84968   0.00000  Uiso   1.00
O855   O     0.18426   0.39406   0.93501   0.00000  Uiso   1.00
O856   O     0.23457   0.40085   0.98956   0.00000  Uiso   1.00
O857   O     0.13560   0.54173   0.62475   0.00000  Uiso   1.00
O858   O     0.09423   0.44011   0.89766   0.00000  Uiso   1.00
O859   O     0.06060   0.55033   0.70095   0.00000  Uiso   1.00
O860   O     0.17930   0.41352   0.78214   0.00000  Uiso   1.00
O861   O     0.14632   0.59418   0.77014   0.00000  Uiso   1.00
O862   O     0.07412   0.46625   0.73413   0.00000  Uiso   1.00
O863   O     0.26693   0.52605   0.71361   0.00000  Uiso   1.00
O864   O     0.07071   0.52211   0.78213   0.00000  Uiso   1.00
O865   O     0.25491   0.48559   0.77014   0.00000  Uiso   1.00
O866   O     0.13760   0.40277   0.73413   0.00000  Uiso   1.00
O867   O     0.20345   0.58953   0.71361   0.00000  Uiso   1.00
Zn868  Zn    0.19338   0.47327   0.78734   0.00000  Uiso   1.00
Zn869  Zn    0.13379   0.45791   0.71876   0.00000  Uiso   1.00
Zn870  Zn    0.21056   0.53109   0.70657   0.00000  Uiso   1.00
Zn871  Zn    0.12893   0.53773   0.78734   0.00000  Uiso   1.00
C872   C     0.38592   0.49250   0.76063   0.00000  Uiso   1.00
C873   C     0.49766   0.49599   0.56223   0.00000  Uiso   1.00
C874   C     0.54791   0.44612   0.55596   0.00000  Uiso   1.00
C875   C     0.61424   0.50745   0.73984   0.00000  Uiso   1.00
C876   C     0.47263   0.52574   0.91997   0.00000  Uiso   1.00
C877   C     0.66052   0.51207   0.73571   0.00000  Uiso   1.00
C878   C     0.34109   0.49119   0.76275   0.00000  Uiso   1.00
C879   C     0.51390   0.65585   0.73660   0.00000  Uiso   1.00
C880   C     0.48484   0.34503   0.76347   0.00000  Uiso   1.00
C881   C     0.48938   0.38921   0.76006   0.00000  Uiso   1.00
C882   C     0.50990   0.61126   0.74016   0.00000  Uiso   1.00
C883   C     0.46741   0.58048   0.98049   0.00000  Uiso   1.00
C884   C     0.51869   0.48130   0.62935   0.00000  Uiso   1.00
C885   C     0.48093   0.51735   0.87097   0.00000  Uiso   1.00
C886   C     0.54538   0.43293   0.51233   0.00000  Uiso   1.00
C887   C     0.52295   0.47599   0.58138   0.00000  Uiso   1.00
C888   C     0.46341   0.56597   0.93796   0.00000  Uiso   1.00
C889   C     0.48657   0.36316   0.95728   0.00000  Uiso   1.00
C890   C     0.60822   0.41853   0.96465   0.00000  Uiso   1.00
C891   C     0.46340   0.51977   0.59159   0.00000  Uiso   1.00
C892   C     0.46116   0.43051   0.90127   0.00000  Uiso   1.00
C893   C     0.35618   0.53971   0.70187   0.00000  Uiso   1.00
C894   C     0.48107   0.55537   0.50539   0.00000  Uiso   1.00
C895   C     0.48579   0.51307   0.99073   0.00000  Uiso   1.00
C896   C     0.48006   0.49743   0.94778   0.00000  Uiso   1.00
C897   C     0.50016   0.48719   0.51586   0.00000  Uiso   1.00
C898   C     0.51838   0.45111   0.99332   0.00000  Uiso   1.00
C899   C     0.50703   0.43306   0.95382   0.00000  Uiso   1.00
C900   C     0.48395   0.45464   0.93365   0.00000  Uiso   1.00
H901   H     0.56712   0.43077   0.57106   0.00000  Uiso   1.00
H902   H     0.48741   0.36332   0.99279   0.00000  Uiso   1.00
H903   H     0.60477   0.43855   0.93955   0.00000  Uiso   1.00
H904   H     0.62637   0.39292   0.94607   0.00000  Uiso   1.00
H905   H     0.62734   0.43669   0.98696   0.00000  Uiso   1.00
H906   H     0.43328   0.51874   0.58264   0.00000  Uiso   1.00
H907   H     0.47332   0.40305   0.88155   0.00000  Uiso   1.00
H908   H     0.34347   0.55150   0.67761   0.00000  Uiso   1.00
H909   H     0.65227   0.47124   0.78665   0.00000  Uiso   1.00
H910   H     0.54079   0.33717   0.71193   0.00000  Uiso   1.00
H911   H     0.45746   0.66444   0.78809   0.00000  Uiso   1.00
H912   H     0.45646   0.58761   0.91780   0.00000  Uiso   1.00
H913   H     0.48971   0.57041   0.53514   0.00000  Uiso   1.00
H914   H     0.46272   0.61233   0.99312   0.00000  Uiso   1.00
H915   H     0.49405   0.66559   0.94025   0.00000  Uiso   1.00
H916   H     0.45363   0.36664   0.95565   0.00000  Uiso   1.00
O917   O     0.50000   0.50000   0.75000   0.00000  Uiso   1.00
O918   O     0.48784   0.45970   0.65459   0.00000  Uiso   1.00
O919   O     0.46274   0.53724   0.84968   0.00000  Uiso   1.00
O920   O     0.54157   0.51092   0.64606   0.00000  Uiso   1.00
O921   O     0.50785   0.49213   0.84968   0.00000  Uiso   1.00
O922   O     0.51760   0.39406   0.93501   0.00000  Uiso   1.00
O923   O     0.56790   0.40085   0.98956   0.00000  Uiso   1.00
O924   O     0.46893   0.54173   0.62475   0.00000  Uiso   1.00
O925   O     0.42757   0.44011   0.89766   0.00000  Uiso   1.00
O926   O     0.39394   0.55033   0.70095   0.00000  Uiso   1.00
O927   O     0.51264   0.41352   0.78214   0.00000  Uiso   1.00
O928   O     0.47965   0.59418   0.77014   0.00000  Uiso   1.00
O929   O     0.40745   0.46625   0.73413   0.00000  Uiso   1.00
O930   O     0.60026   0.52605   0.71361   0.00000  Uiso   1.00
O931   O     0.40405   0.52211   0.78213   0.00000  Uiso   1.00
O932   O     0.58824   0.48559   0.77014   0.00000  Uiso   1.00
O933   O     0.47093   0.40277   0.73413   0.00000  Uiso   1.00
O934   O     0.53678   0.58953   0.71361   0.00000  Uiso   1.00
Zn935  Zn    0.52672   0.47327   0.78734   0.00000  Uiso   1.00
Zn936  Zn    0.46713   0.45791   0.71876   0.00000  Uiso   1.00
Zn937  Zn    0.54389   0.53109   0.70657   0.00000  Uiso   1.00
Zn938  Zn    0.46226   0.53773   0.78734   0.00000  Uiso   1.00
C939   C     0.71925   0.49250   0.76063   0.00000  Uiso   1.00
C940   C     0.83099   0.49599   0.56223   0.00000  Uiso   1.00
C941   C     0.88124   0.44612   0.55596   0.00000  Uiso   1.00
C942   C     0.94757   0.50745   0.73984   0.00000  Uiso   1.00
C943   C     0.80597   0.52574   0.91997   0.00000  Uiso   1.00
C944   C     0.99386   0.51207   0.73571   0.00000  Uiso   1.00
C945   C     0.67443   0.49119   0.76275   0.00000  Uiso   1.00
C946   C     0.84723   0.65585   0.73660   0.00000  Uiso   1.00
C947   C     0.81817   0.34503   0.76347   0.00000  Uiso   1.00
C948   C     0.82271   0.38921   0.76006   0.00000  Uiso   1.00
C949   C     0.84324   0.61126   0.74016   0.00000  Uiso   1.00
C950   C     0.80075   0.58048   0.98049   0.00000  Uiso   1.00
C951   C     0.85202   0.48130   0.62935   0.00000  Uiso   1.00
C952   C     0.81426   0.51735   0.87097   0.00000  Uiso   1.00
C953   C     0.87871   0.43293   0.51233   0.00000  Uiso   1.00
C954   C     0.85629   0.47599   0.58138   0.00000  Uiso   1.00
C955   C     0.79674   0.56597   0.93796   0.00000  Uiso   1.00
C956   C     0.81990   0.36316   0.95728   0.00000  Uiso   1.00
C957   C     0.94155   0.41853   0.96465   0.00000  Uiso   1.00
C958   C     0.79673   0.51977   0.59159   0.00000  Uiso   1.00
C959   C     0.79449   0.43051   0.90127   0.00000  Uiso   1.00
C960   C     0.68951   0.53971   0.70187   0.00000  Uiso   1.00
C961   C     0.81440   0.55537   0.50539   0.00000  Uiso   1.00
C962   C     0.81912   0.51307   0.99073   0.00000  Uiso   1.00
C963   C     0.81339   0.49743   0.94778   0.00000  Uiso   1.00
C964   C     0.83349   0.48719   0.51586   0.00000  Uiso   1.00
C965   C     0.85172   0.45111   0.99332   0.00000  Uiso   1.00
C966   C     0.84036   0.43306   0.95382   0.00000  Uiso   1.00
C967   C     0.81728   0.45464   0.93365   0.00000  Uiso   1.00
H968   H     0.90046   0.43077   0.57106   0.00000  Uiso   1.00
H969   H     0.82074   0.36332   0.99279   0.00000  Uiso   1.00
H970   H     0.93810   0.43855   0.93955   0.00000  Uiso   1.00
H971   H     0.95970   0.39292   0.94607   0.00000  Uiso   1.00
H972   H     0.96067   0.43669   0.98696   0.00000  Uiso   1.00
H973   H     0.76662   0.51874   0.58264   0.00000  Uiso   1.00
H974   H     0.80666   0.40305   0.88155   0.00000  Uiso   1.00
H975   H     0.67680   0.55150   0.67761   0.00000  Uiso   1.00
H976   H     0.98560   0.47124   0.78665   0.00000  Uiso   1.00
H977   H     0.87412   0.33717   0.71193   0.00000  Uiso   1.00
H978   H     0.79079   0.66444   0.78809   0.00000  Uiso   1.00
H979   H     0.78980   0.58761   0.91780   0.00000  Uiso   1.00
H980   H     0.82304   0.57041   0.53514   0.00000  Uiso   1.00
H981   H     0.79605   0.61233   0.99312   0.00000  Uiso   1.00
H982   H     0.82738   0.66559   0.94025   0.00000  Uiso   1.00
H983   H     0.78697   0.36664   0.95565   0.00000  Uiso   1.00
O984   O     0.83333   0.50000   0.75000   0.00000  Uiso   1.00
O985   O     0.82118   0.45970   0.65459   0.00000  Uiso   1.00
O986   O     0.79607   0.53724   0.84968   0.00000  Uiso   1.00
O987   O     0.87491   0.51092   0.64606   0.00000  Uiso   1.00
O988   O     0.84118   0.49213   0.84968   0.00000  Uiso   1.00
O989   O     0.85093   0.39406   0.93501   0.00000  Uiso   1.00
O990   O     0.90124   0.40085   0.98956   0.00000  Uiso   1.00
O991   O     0.80226   0.54173   0.62475   0.00000  Uiso   1.00
O992   O     0.76090   0.44011   0.89766   0.00000  Uiso   1.00
O993   O     0.72727   0.55033   0.70095   0.00000  Uiso   1.00
O994   O     0.84597   0.41352   0.78214   0.00000  Uiso   1.00
O995   O     0.81298   0.59418   0.77014   0.00000  Uiso   1.00
O996   O     0.74078   0.46625   0.73413   0.00000  Uiso   1.00
O997   O     0.93360   0.52605   0.71361   0.00000  Uiso   1.00
O998   O     0.73738   0.52211   0.78213   0.00000  Uiso   1.00
O999   O     0.92158   0.48559   0.77014   0.00000  Uiso   1.00
O1000  O     0.80426   0.40277   0.73413   0.00000  Uiso   1.00
O1001  O     0.87012   0.58953   0.71361   0.00000  Uiso   1.00
Zn1002 Zn    0.86005   0.47327   0.78734   0.00000  Uiso   1.00
Zn1003 Zn    0.80046   0.45791   0.71876   0.00000  Uiso   1.00
Zn1004 Zn    0.87723   0.53109   0.70657   0.00000  Uiso   1.00
Zn1005 Zn    0.79560   0.53773   0.78734   0.00000  Uiso   1.00
C1006  C     0.05258   0.82583   0.76063   0.00000  Uiso   1.00
C1007  C     0.16432   0.82933   0.56223   0.00000  Uiso   1.00
C1008  C     0.21457   0.77945   0.55596   0.00000  Uiso   1.00
C1009  C     0.28090   0.84079   0.73984   0.00000  Uiso   1.00
C1010  C     0.13930   0.85907   0.91997   0.00000  Uiso   1.00
C1011  C     0.32719   0.84541   0.73571   0.00000  Uiso   1.00
C1012  C     0.00776   0.82453   0.76275   0.00000  Uiso   1.00
C1013  C     0.18056   0.98919   0.73660   0.00000  Uiso   1.00
C1014  C     0.15150   0.67836   0.76347   0.00000  Uiso   1.00
C1015  C     0.15604   0.72254   0.76006   0.00000  Uiso   1.00
C1016  C     0.17657   0.94460   0.74016   0.00000  Uiso   1.00
C1017  C     0.13408   0.91381   0.98049   0.00000  Uiso   1.00
C1018  C     0.18535   0.81463   0.62935   0.00000  Uiso   1.00
C1019  C     0.14760   0.85068   0.87097   0.00000  Uiso   1.00
C1020  C     0.21204   0.76626   0.51233   0.00000  Uiso   1.00
C1021  C     0.18962   0.80932   0.58138   0.00000  Uiso   1.00
C1022  C     0.13008   0.89930   0.93796   0.00000  Uiso   1.00
C1023  C     0.15324   0.69649   0.95728   0.00000  Uiso   1.00
C1024  C     0.27489   0.75186   0.96465   0.00000  Uiso   1.00
C1025  C     0.13006   0.85310   0.59159   0.00000  Uiso   1.00
C1026  C     0.12783   0.76384   0.90127   0.00000  Uiso   1.00
C1027  C     0.02285   0.87304   0.70187   0.00000  Uiso   1.00
C1028  C     0.14774   0.88871   0.50539   0.00000  Uiso   1.00
C1029  C     0.15245   0.84640   0.99073   0.00000  Uiso   1.00
C1030  C     0.14672   0.83077   0.94778   0.00000  Uiso   1.00
C1031  C     0.16683   0.82052   0.51586   0.00000  Uiso   1.00
C1032  C     0.18505   0.78444   0.99332   0.00000  Uiso   1.00
C1033  C     0.17370   0.76640   0.95382   0.00000  Uiso   1.00
C1034  C     0.15062   0.78797   0.93365   0.00000  Uiso   1.00
H1035  H     0.23379   0.76410   0.57106   0.00000  Uiso   1.00
H1036  H     0.15407   0.69665   0.99279   0.00000  Uiso   1.00
H1037  H     0.27143   0.77188   0.93955   0.00000  Uiso   1.00
H1038  H     0.29304   0.72626   0.94607   0.00000  Uiso   1.00
H1039  H     0.29401   0.77002   0.98696   0.00000  Uiso   1.00
H1040  H     0.09995   0.85207   0.58264   0.00000  Uiso   1.00
H1041  H     0.13999   0.73639   0.88155   0.00000  Uiso   1.00
H1042  H     0.01014   0.88484   0.67761   0.00000  Uiso   1.00
H1043  H     0.31894   0.80457   0.78665   0.00000  Uiso   1.00
H1044  H     0.20746   0.67050   0.71193   0.00000  Uiso   1.00
H1045  H     0.12413   0.99778   0.78809   0.00000  Uiso   1.00
H1046  H     0.12313   0.92095   0.91780   0.00000  Uiso   1.00
H1047  H     0.15637   0.90374   0.53514   0.00000  Uiso   1.00
H1048  H     0.12938   0.94566   0.99312   0.00000  Uiso   1.00
H1049  H     0.16072   0.99892   0.94025   0.00000  Uiso   1.00
H1050  H     0.12030   0.69997   0.95565   0.00000  Uiso   1.00
O1051  O     0.16667   0.83333   0.75000   0.00000  Uiso   1.00
O1052  O     0.15451   0.79304   0.65459   0.00000  Uiso   1.00
O1053  O     0.12940   0.87058   0.84968   0.00000  Uiso   1.00
O1054  O     0.20824   0.84425   0.64606   0.00000  Uiso   1.00
O1055  O     0.17451   0.82546   0.84968   0.00000  Uiso   1.00
O1056  O     0.18426   0.72739   0.93501   0.00000  Uiso   1.00
O1057  O     0.23457   0.73418   0.98956   0.00000  Uiso   1.00
O1058  O     0.13560   0.87506   0.62475   0.00000  Uiso   1.00
O1059  O     0.09423   0.77344   0.89766   0.00000  Uiso   1.00
O1060  O     0.06060   0.88366   0.70095   0.00000  Uiso   1.00
O1061  O     0.17930   0.74686   0.78214   0.00000  Uiso   1.00
O1062  O     0.14632   0.92751   0.77014   0.00000  Uiso   1.00
O1063  O     0.07412   0.79958   0.73413   0.00000  Uiso   1.00
O1064  O     0.26693   0.85939   0.71361   0.00000  Uiso   1.00
O1065  O     0.07071   0.85544   0.78213   0.00000  Uiso   1.00
O1066  O     0.25491   0.81892   0.77014   0.00000  Uiso   1.00
O1067  O     0.13760   0.73610   0.73413   0.00000  Uiso   1.00
O1068  O     0.20345   0.92286   0.71361   0.00000  Uiso   1.00
Zn1069 Zn    0.19338   0.80661   0.78734   0.00000  Uiso   1.00
Zn1070 Zn    0.13379   0.79124   0.71876   0.00000  Uiso   1.00
Zn1071 Zn    0.21056   0.86442   0.70657   0.00000  Uiso   1.00
Zn1072 Zn    0.12893   0.87106   0.78734   0.00000  Uiso   1.00
C1073  C     0.38592   0.82583   0.76063   0.00000  Uiso   1.00
C1074  C     0.49766   0.82933   0.56223   0.00000  Uiso   1.00
C1075  C     0.54791   0.77945   0.55596   0.00000  Uiso   1.00
C1076  C     0.61424   0.84079   0.73984   0.00000  Uiso   1.00
C1077  C     0.47263   0.85907   0.91997   0.00000  Uiso   1.00
C1078  C     0.66052   0.84541   0.73571   0.00000  Uiso   1.00
C1079  C     0.34109   0.82453   0.76275   0.00000  Uiso   1.00
C1080  C     0.51390   0.98919   0.73660   0.00000  Uiso   1.00
C1081  C     0.48484   0.67836   0.76347   0.00000  Uiso   1.00
C1082  C     0.48938   0.72254   0.76006   0.00000  Uiso   1.00
C1083  C     0.50990   0.94460   0.74016   0.00000  Uiso   1.00
C1084  C     0.46741   0.91381   0.98049   0.00000  Uiso   1.00
C1085  C     0.51869   0.81463   0.62935   0.00000  Uiso   1.00
C1086  C     0.48093   0.85068   0.87097   0.00000  Uiso   1.00
C1087  C     0.54538   0.76626   0.51233   0.00000  Uiso   1.00
C1088  C     0.52295   0.80932   0.58138   0.00000  Uiso   1.00
C1089  C     0.46341   0.89930   0.93796   0.00000  Uiso   1.00
C1090  C     0.48657   0.69649   0.95728   0.00000  Uiso   1.00
C1091  C     0.60822   0.75186   0.96465   0.00000  Uiso   1.00
C1092  C     0.46340   0.85310   0.59159   0.00000  Uiso   1.00
C1093  C     0.46116   0.76384   0.90127   0.00000  Uiso   1.00
C1094  C     0.35618   0.87304   0.70187   0.00000  Uiso   1.00
C1095  C     0.48107   0.88871   0.50539   0.00000  Uiso   1.00
C1096  C     0.48579   0.84640   0.99073   0.00000  Uiso   1.00
C1097  C     0.48006   0.83077   0.94778   0.00000  Uiso   1.00
C1098  C     0.50016   0.82052   0.51586   0.00000  Uiso   1.00
C1099  C     0.51838   0.78444   0.99332   0.00000  Uiso   1.00
C1100  C     0.50703   0.76640   0.95382   0.00000  Uiso   1.00
C1101  C     0.48395   0.78797   0.93365   0.00000  Uiso   1.00
H1102  H     0.56712   0.76410   0.57106   0.00000  Uiso   1.00
H1103  H     0.48741   0.69665   0.99279   0.00000  Uiso   1.00
H1104  H     0.60477   0.77188   0.93955   0.00000  Uiso   1.00
H1105  H     0.62637   0.72626   0.94607   0.00000  Uiso   1.00
H1106  H     0.62734   0.77002   0.98696   0.00000  Uiso   1.00
H1107  H     0.43328   0.85207   0.58264   0.00000  Uiso   1.00
H1108  H     0.47332   0.73639   0.88155   0.00000  Uiso   1.00
H1109  H     0.34347   0.88484   0.67761   0.00000  Uiso   1.00
H1110  H     0.65227   0.80457   0.78665   0.00000  Uiso   1.00
H1111  H     0.54079   0.67050   0.71193   0.00000  Uiso   1.00
H1112  H     0.45746   0.99778   0.78809   0.00000  Uiso   1.00
H1113  H     0.45646   0.92095   0.91780   0.00000  Uiso   1.00
H1114  H     0.48971   0.90374   0.53514   0.00000  Uiso   1.00
H1115  H     0.46272   0.94566   0.99312   0.00000  Uiso   1.00
H1116  H     0.49405   0.99892   0.94025   0.00000  Uiso   1.00
H1117  H     0.45363   0.69997   0.95565   0.00000  Uiso   1.00
O1118  O     0.50000   0.83333   0.75000   0.00000  Uiso   1.00
O1119  O     0.48784   0.79304   0.65459   0.00000  Uiso   1.00
O1120  O     0.46274   0.87058   0.84968   0.00000  Uiso   1.00
O1121  O     0.54157   0.84425   0.64606   0.00000  Uiso   1.00
O1122  O     0.50785   0.82546   0.84968   0.00000  Uiso   1.00
O1123  O     0.51760   0.72739   0.93501   0.00000  Uiso   1.00
O1124  O     0.56790   0.73418   0.98956   0.00000  Uiso   1.00
O1125  O     0.46893   0.87506   0.62475   0.00000  Uiso   1.00
O1126  O     0.42757   0.77344   0.89766   0.00000  Uiso   1.00
O1127  O     0.39394   0.88366   0.70095   0.00000  Uiso   1.00
O1128  O     0.51264   0.74686   0.78214   0.00000  Uiso   1.00
O1129  O     0.47965   0.92751   0.77014   0.00000  Uiso   1.00
O1130  O     0.40745   0.79958   0.73413   0.00000  Uiso   1.00
O1131  O     0.60026   0.85939   0.71361   0.00000  Uiso   1.00
O1132  O     0.40405   0.85544   0.78213   0.00000  Uiso   1.00
O1133  O     0.58824   0.81892   0.77014   0.00000  Uiso   1.00
O1134  O     0.47093   0.73610   0.73413   0.00000  Uiso   1.00
O1135  O     0.53678   0.92286   0.71361   0.00000  Uiso   1.00
Zn1136 Zn    0.52672   0.80661   0.78734   0.00000  Uiso   1.00
Zn1137 Zn    0.46713   0.79124   0.71876   0.00000  Uiso   1.00
Zn1138 Zn    0.54389   0.86442   0.70657   0.00000  Uiso   1.00
Zn1139 Zn    0.46226   0.87106   0.78734   0.00000  Uiso   1.00
C1140  C     0.71925   0.82583   0.76063   0.00000  Uiso   1.00
C1141  C     0.83099   0.82933   0.56223   0.00000  Uiso   1.00
C1142  C     0.88124   0.77945   0.55596   0.00000  Uiso   1.00
C1143  C     0.94757   0.84079   0.73984   0.00000  Uiso   1.00
C1144  C     0.80597   0.85907   0.91997   0.00000  Uiso   1.00
C1145  C     0.99386   0.84541   0.73571   0.00000  Uiso   1.00
C1146  C     0.67443   0.82453   0.76275   0.00000  Uiso   1.00
C1147  C     0.84723   0.98919   0.73660   0.00000  Uiso   1.00
C1148  C     0.81817   0.67836   0.76347   0.00000  Uiso   1.00
C1149  C     0.82271   0.72254   0.76006   0.00000  Uiso   1.00
C1150  C     0.84324   0.94460   0.74016   0.00000  Uiso   1.00
C1151  C     0.80075   0.91381   0.98049   0.00000  Uiso   1.00
C1152  C     0.85202   0.81463   0.62935   0.00000  Uiso   1.00
C1153  C     0.81426   0.85068   0.87097   0.00000  Uiso   1.00
C1154  C     0.87871   0.76626   0.51233   0.00000  Uiso   1.00
C1155  C     0.85629   0.80932   0.58138   0.00000  Uiso   1.00
C1156  C     0.79674   0.89930   0.93796   0.00000  Uiso   1.00
C1157  C     0.81990   0.69649   0.95728   0.00000  Uiso   1.00
C1158  C     0.94155   0.75186   0.96465   0.00000  Uiso   1.00
C1159  C     0.79673   0.85310   0.59159   0.00000  Uiso   1.00
C1160  C     0.79449   0.76384   0.90127   0.00000  Uiso   1.00
C1161  C     0.68951   0.87304   0.70187   0.00000  Uiso   1.00
C1162  C     0.81440   0.88871   0.50539   0.00000  Uiso   1.00
C1163  C     0.81912   0.84640   0.99073   0.00000  Uiso   1.00
C1164  C     0.81339   0.83077   0.94778   0.00000  Uiso   1.00
C1165  C     0.83349   0.82052   0.51586   0.00000  Uiso   1.00
C1166  C     0.85172   0.78444   0.99332   0.00000  Uiso   1.00
C1167  C     0.84036   0.76640   0.95382   0.00000  Uiso   1.00
C1168  C     0.81728   0.78797   0.93365   0.00000  Uiso   1.00
H1169  H     0.90046   0.76410   0.57106   0.00000  Uiso   1.00
H1170  H     0.82074   0.69665   0.99279   0.00000  Uiso   1.00
H1171  H     0.93810   0.77188   0.93955   0.00000  Uiso   1.00
H1172  H     0.95970   0.72626   0.94607   0.00000  Uiso   1.00
H1173  H     0.96067   0.77002   0.98696   0.00000  Uiso   1.00
H1174  H     0.76662   0.85207   0.58264   0.00000  Uiso   1.00
H1175  H     0.80666   0.73639   0.88155   0.00000  Uiso   1.00
H1176  H     0.67680   0.88484   0.67761   0.00000  Uiso   1.00
H1177  H     0.98560   0.80457   0.78665   0.00000  Uiso   1.00
H1178  H     0.87412   0.67050   0.71193   0.00000  Uiso   1.00
H1179  H     0.79079   0.99778   0.78809   0.00000  Uiso   1.00
H1180  H     0.78980   0.92095   0.91780   0.00000  Uiso   1.00
H1181  H     0.82304   0.90374   0.53514   0.00000  Uiso   1.00
H1182  H     0.79605   0.94566   0.99312   0.00000  Uiso   1.00
H1183  H     0.82738   0.99892   0.94025   0.00000  Uiso   1.00
H1184  H     0.78697   0.69997   0.95565   0.00000  Uiso   1.00
O1185  O     0.83333   0.83333   0.75000   0.00000  Uiso   1.00
O1186  O     0.82118   0.79304   0.65459   0.00000  Uiso   1.00
O1187  O     0.79607   0.87058   0.84968   0.00000  Uiso   1.00
O1188  O     0.87491   0.84425   0.64606   0.00000  Uiso   1.00
O1189  O     0.84118   0.82546   0.84968   0.00000  Uiso   1.00
O1190  O     0.85093   0.72739   0.93501   0.00000  Uiso   1.00
O1191  O     0.90124   0.73418   0.98956   0.00000  Uiso   1.00
O1192  O     0.80226   0.87506   0.62475   0.00000  Uiso   1.00
O1193  O     0.76090   0.77344   0.89766   0.00000  Uiso   1.00
O1194  O     0.72727   0.88366   0.70095   0.00000  Uiso   1.00
O1195  O     0.84597   0.74686   0.78214   0.00000  Uiso   1.00
O1196  O     0.81298   0.92751   0.77014   0.00000  Uiso   1.00
O1197  O     0.74078   0.79958   0.73413   0.00000  Uiso   1.00
O1198  O     0.93360   0.85939   0.71361   0.00000  Uiso   1.00
O1199  O     0.73738   0.85544   0.78213   0.00000  Uiso   1.00
O1200  O     0.92158   0.81892   0.77014   0.00000  Uiso   1.00
O1201  O     0.80426   0.73610   0.73413   0.00000  Uiso   1.00
O1202  O     0.87012   0.92286   0.71361   0.00000  Uiso   1.00
Zn1203 Zn    0.86005   0.80661   0.78734   0.00000  Uiso   1.00
Zn1204 Zn    0.80046   0.79124   0.71876   0.00000  Uiso   1.00
Zn1205 Zn    0.87723   0.86442   0.70657   0.00000  Uiso   1.00
Zn1206 Zn    0.79560   0.87106   0.78734   0.00000  Uiso   1.00
loop_
_geom_bond_atom_site_label_1
_geom_bond_atom_site_label_2
_geom_bond_distance
_geom_bond_site_symmetry_2
_ccdc_geom_bond_type
C1     O60     1.268   .     A
C1     C7      1.440   .     S
C1     O58     1.267   .     A
C2     C16     1.409   .     A
C2     C26     1.419   .     A
C2     C20     1.493   .     S
C3     H30     1.084   .     S
C3     C15     1.394   .     A
C3     C16     1.394   .     A
C4     O59     1.283   .     A
C4     C6      1.466   .     S
C4     O61     1.288   .     A
C5     C14     1.474   .     S
C5     C25     1.425   .     A
C5     C17     1.404   .     A
C6     C74     1.347   .     S
C6     C89     1.497   .     S
C7     C140    1.347   1_455 S
C7     H172    1.086   1_455 S
C8     C11     1.452   .     S
C8     C210    1.332   .     S
C8     H240    1.088   .     S
C9     C10     1.436   .     S
C9     C410    1.332   1_545 S
C9     H442    1.086   1_545 S
C10    O62     1.280   .     A
C10    O56     1.280   .     A
C11    O57     1.270   .     A
C11    O63     1.269   .     A
C12    C17     1.383   .     A
C12    H43     1.082   .     S
C12    C626    1.385   .     S
C13    O49     1.274   .     A
C13    C16     1.452   .     S
C13    O47     1.270   .     A
C14    O50     1.289   .     A
C14    O48     1.282   .     A
C15    C630    1.415   1_554 S
C15    O655    1.382   1_554 S
C17    H41     1.083   .     S
C18    O51     1.411   .     S
C18    H45     1.113   .     S
C18    H31     1.112   .     S
C18    H446    1.108   1_545 S
C19    H32     1.114   .     S
C19    O52     1.410   .     S
C19    H33     1.109   .     S
C19    H34     1.114   .     S
C20    O53     1.221   .     D
C20    H35     1.086   .     S
C21    H36     1.085   .     S
C21    O54     1.221   .     D
C21    C29     1.489   .     S
C22    O55     1.220   .     D
C22    H37     1.085   .     S
C22    C140    1.497   1_455 S
C23    H42     1.079   .     S
C23    C615    1.385   1_554 S
C23    C627    1.415   1_554 S
C24    C25     1.421   .     A
C24    C626    1.415   .     S
C24    C629    1.421   .     S
C25    C29     1.423   .     A
C26    C627    1.421   1_554 S
C26    C630    1.420   1_554 S
C27    C28     1.413   .     A
C27    C629    1.420   .     S
C27    C618    1.415   .     S
C28    C29     1.406   .     A
C28    O51     1.385   .     S
H38    C74     1.086   .     S
H39    C410    1.088   1_545 S
H40    C210    1.086   .     S
H44    C219    1.108   .     S
O46    Zn67    1.930   .     S
O46    Zn66    1.934   .     S
O46    Zn65    1.938   .     S
O46    Zn64    1.972   .     S
O47    Zn65    1.933   .     S
O48    Zn67    1.946   .     S
O49    Zn66    1.935   .     S
O50    Zn64    1.924   .     S
O52    C618    1.382   .     S
O56    Zn64    1.925   .     S
O57    Zn67    1.933   .     S
O58    Zn65    1.929   .     S
O59    Zn66    1.943   .     S
O60    Zn67    1.934   .     S
O61    Zn64    1.924   .     S
O62    Zn65    1.942   .     S
O63    Zn66    1.930   .     S
C68    O127    1.268   .     A
C68    C74     1.440   .     S
C68    O125    1.267   .     A
C69    C83     1.409   .     A
C69    C93     1.419   .     A
C69    C87     1.493   .     S
C70    H97     1.084   .     S
C70    C82     1.394   .     A
C70    C83     1.394   .     A
C71    O126    1.283   .     A
C71    C73     1.466   .     S
C71    O128    1.288   .     A
C72    C81     1.474   .     S
C72    C92     1.425   .     A
C72    C84     1.404   .     A
C73    C141    1.347   .     S
C73    C156    1.497   .     S
C75    C78     1.452   .     S
C75    C277    1.332   .     S
C75    H307    1.088   .     S
C76    C77     1.436   .     S
C76    C477    1.332   1_545 S
C76    H509    1.086   1_545 S
C77    O129    1.280   .     A
C77    O123    1.280   .     A
C78    O124    1.270   .     A
C78    O130    1.269   .     A
C79    C84     1.383   .     A
C79    H110    1.082   .     S
C79    C693    1.385   .     S
C80    O116    1.274   .     A
C80    C83     1.452   .     S
C80    O114    1.270   .     A
C81    O117    1.289   .     A
C81    O115    1.282   .     A
C82    C697    1.415   1_554 S
C82    O722    1.382   1_554 S
C84    H108    1.083   .     S
C85    O118    1.411   .     S
C85    H112    1.113   .     S
C85    H98     1.112   .     S
C85    H513    1.108   1_545 S
C86    H99     1.114   .     S
C86    O119    1.410   .     S
C86    H100    1.109   .     S
C86    H101    1.114   .     S
C87    O120    1.221   .     D
C87    H102    1.086   .     S
C88    H103    1.085   .     S
C88    O121    1.221   .     D
C88    C96     1.489   .     S
C89    O122    1.220   .     D
C89    H104    1.085   .     S
C90    H109    1.079   .     S
C90    C682    1.385   1_554 S
C90    C694    1.415   1_554 S
C91    C92     1.421   .     A
C91    C693    1.415   .     S
C91    C696    1.421   .     S
C92    C96     1.423   .     A
C93    C694    1.421   1_554 S
C93    C697    1.420   1_554 S
C94    C95     1.413   .     A
C94    C696    1.420   .     S
C94    C685    1.415   .     S
C95    C96     1.406   .     A
C95    O118    1.385   .     S
H105   C141    1.086   .     S
H106   C477    1.088   1_545 S
H107   C277    1.086   .     S
H111   C286    1.108   .     S
O113   Zn134   1.930   .     S
O113   Zn133   1.934   .     S
O113   Zn132   1.938   .     S
O113   Zn131   1.972   .     S
O114   Zn132   1.933   .     S
O115   Zn134   1.946   .     S
O116   Zn133   1.935   .     S
O117   Zn131   1.924   .     S
O119   C685    1.382   .     S
O123   Zn131   1.925   .     S
O124   Zn134   1.933   .     S
O125   Zn132   1.929   .     S
O126   Zn133   1.943   .     S
O127   Zn134   1.934   .     S
O128   Zn131   1.924   .     S
O129   Zn132   1.942   .     S
O130   Zn133   1.930   .     S
C135   O194    1.268   .     A
C135   C141    1.440   .     S
C135   O192    1.267   .     A
C136   C150    1.409   .     A
C136   C160    1.419   .     A
C136   C154    1.493   .     S
C137   H164    1.084   .     S
C137   C149    1.394   .     A
C137   C150    1.394   .     A
C138   O193    1.283   .     A
C138   C140    1.466   .     S
C138   O195    1.288   .     A
C139   C148    1.474   .     S
C139   C159    1.425   .     A
C139   C151    1.404   .     A
C140   C7      1.347   1_655 S
C140   C22     1.497   1_655 S
C142   C145    1.452   .     S
C142   C344    1.332   .     S
C142   H374    1.088   .     S
C143   C144    1.436   .     S
C143   C544    1.332   1_545 S
C143   H576    1.086   1_545 S
C144   O196    1.280   .     A
C144   O190    1.280   .     A
C145   O191    1.270   .     A
C145   O197    1.269   .     A
C146   C151    1.383   .     A
C146   H177    1.082   .     S
C146   C760    1.385   .     S
C147   O183    1.274   .     A
C147   C150    1.452   .     S
C147   O181    1.270   .     A
C148   O184    1.289   .     A
C148   O182    1.282   .     A
C149   C764    1.415   1_554 S
C149   O789    1.382   1_554 S
C151   H175    1.083   .     S
C152   O185    1.411   .     S
C152   H179    1.113   .     S
C152   H165    1.112   .     S
C152   H580    1.108   1_545 S
C153   H166    1.114   .     S
C153   O186    1.410   .     S
C153   H167    1.109   .     S
C153   H168    1.114   .     S
C154   O187    1.221   .     D
C154   H169    1.086   .     S
C155   H170    1.085   .     S
C155   O188    1.221   .     D
C155   C163    1.489   .     S
C156   O189    1.220   .     D
C156   H171    1.085   .     S
C157   H176    1.079   .     S
C157   C749    1.385   1_554 S
C157   C761    1.415   1_554 S
C158   C159    1.421   .     A
C158   C760    1.415   .     S
C158   C763    1.421   .     S
C159   C163    1.423   .     A
C160   C761    1.421   1_554 S
C160   C764    1.420   1_554 S
C161   C162    1.413   .     A
C161   C763    1.420   .     S
C161   C752    1.415   .     S
C162   C163    1.406   .     A
C162   O185    1.385   .     S
H172   C7      1.086   1_655 S
H173   C544    1.088   1_545 S
H174   C344    1.086   .     S
H178   C353    1.108   .     S
O180   Zn201   1.930   .     S
O180   Zn200   1.934   .     S
O180   Zn199   1.938   .     S
O180   Zn198   1.972   .     S
O181   Zn199   1.933   .     S
O182   Zn201   1.946   .     S
O183   Zn200   1.935   .     S
O184   Zn198   1.924   .     S
O186   C752    1.382   .     S
O190   Zn198   1.925   .     S
O191   Zn201   1.933   .     S
O192   Zn199   1.929   .     S
O193   Zn200   1.943   .     S
O194   Zn201   1.934   .     S
O195   Zn198   1.924   .     S
O196   Zn199   1.942   .     S
O197   Zn200   1.930   .     S
C202   O261    1.268   .     A
C202   C208    1.440   .     S
C202   O259    1.267   .     A
C203   C217    1.409   .     A
C203   C227    1.419   .     A
C203   C221    1.493   .     S
C204   H231    1.084   .     S
C204   C216    1.394   .     A
C204   C217    1.394   .     A
C205   O260    1.283   .     A
C205   C207    1.466   .     S
C205   O262    1.288   .     A
C206   C215    1.474   .     S
C206   C226    1.425   .     A
C206   C218    1.404   .     A
C207   C275    1.347   .     S
C207   C290    1.497   .     S
C208   C341    1.347   1_455 S
C208   H373    1.086   1_455 S
C209   C212    1.452   .     S
C209   C411    1.332   .     S
C209   H441    1.088   .     S
C210   C211    1.436   .     S
C211   O263    1.280   .     A
C211   O257    1.280   .     A
C212   O258    1.270   .     A
C212   O264    1.269   .     A
C213   C218    1.383   .     A
C213   H244    1.082   .     S
C213   C827    1.385   .     S
C214   O250    1.274   .     A
C214   C217    1.452   .     S
C214   O248    1.270   .     A
C215   O251    1.289   .     A
C215   O249    1.282   .     A
C216   C831    1.415   1_554 S
C216   O856    1.382   1_554 S
C218   H242    1.083   .     S
C219   O252    1.411   .     S
C219   H246    1.113   .     S
C219   H232    1.112   .     S
C220   H233    1.114   .     S
C220   O253    1.410   .     S
C220   H234    1.109   .     S
C220   H235    1.114   .     S
C221   O254    1.221   .     D
C221   H236    1.086   .     S
C222   H237    1.085   .     S
C222   O255    1.221   .     D
C222   C230    1.489   .     S
C223   O256    1.220   .     D
C223   H238    1.085   .     S
C223   C341    1.497   1_455 S
C224   H243    1.079   .     S
C224   C816    1.385   1_554 S
C224   C828    1.415   1_554 S
C225   C226    1.421   .     A
C225   C827    1.415   .     S
C225   C830    1.421   .     S
C226   C230    1.423   .     A
C227   C828    1.421   1_554 S
C227   C831    1.420   1_554 S
C228   C229    1.413   .     A
C228   C830    1.420   .     S
C228   C819    1.415   .     S
C229   C230    1.406   .     A
C229   O252    1.385   .     S
H239   C275    1.086   .     S
H241   C411    1.086   .     S
H245   C420    1.108   .     S
O247   Zn268   1.930   .     S
O247   Zn267   1.934   .     S
O247   Zn266   1.938   .     S
O247   Zn265   1.972   .     S
O248   Zn266   1.933   .     S
O249   Zn268   1.946   .     S
O250   Zn267   1.935   .     S
O251   Zn265   1.924   .     S
O253   C819    1.382   .     S
O257   Zn265   1.925   .     S
O258   Zn268   1.933   .     S
O259   Zn266   1.929   .     S
O260   Zn267   1.943   .     S
O261   Zn268   1.934   .     S
O262   Zn265   1.924   .     S
O263   Zn266   1.942   .     S
O264   Zn267   1.930   .     S
C269   O328    1.268   .     A
C269   C275    1.440   .     S
C269   O326    1.267   .     A
C270   C284    1.409   .     A
C270   C294    1.419   .     A
C270   C288    1.493   .     S
C271   H298    1.084   .     S
C271   C283    1.394   .     A
C271   C284    1.394   .     A
C272   O327    1.283   .     A
C272   C274    1.466   .     S
C272   O329    1.288   .     A
C273   C282    1.474   .     S
C273   C293    1.425   .     A
C273   C285    1.404   .     A
C274   C342    1.347   .     S
C274   C357    1.497   .     S
C276   C279    1.452   .     S
C276   C478    1.332   .     S
C276   H508    1.088   .     S
C277   C278    1.436   .     S
C278   O330    1.280   .     A
C278   O324    1.280   .     A
C279   O325    1.270   .     A
C279   O331    1.269   .     A
C280   C285    1.383   .     A
C280   H311    1.082   .     S
C280   C894    1.385   .     S
C281   O317    1.274   .     A
C281   C284    1.452   .     S
C281   O315    1.270   .     A
C282   O318    1.289   .     A
C282   O316    1.282   .     A
C283   C898    1.415   1_554 S
C283   O923    1.382   1_554 S
C285   H309    1.083   .     S
C286   O319    1.411   .     S
C286   H313    1.113   .     S
C286   H299    1.112   .     S
C287   H300    1.114   .     S
C287   O320    1.410   .     S
C287   H301    1.109   .     S
C287   H302    1.114   .     S
C288   O321    1.221   .     D
C288   H303    1.086   .     S
C289   H304    1.085   .     S
C289   O322    1.221   .     D
C289   C297    1.489   .     S
C290   O323    1.220   .     D
C290   H305    1.085   .     S
C291   H310    1.079   .     S
C291   C883    1.385   1_554 S
C291   C895    1.415   1_554 S
C292   C293    1.421   .     A
C292   C894    1.415   .     S
C292   C897    1.421   .     S
C293   C297    1.423   .     A
C294   C895    1.421   1_554 S
C294   C898    1.420   1_554 S
C295   C296    1.413   .     A
C295   C897    1.420   .     S
C295   C886    1.415   .     S
C296   C297    1.406   .     A
C296   O319    1.385   .     S
H306   C342    1.086   .     S
H308   C478    1.086   .     S
H312   C487    1.108   .     S
O314   Zn335   1.930   .     S
O314   Zn334   1.934   .     S
O314   Zn333   1.938   .     S
O314   Zn332   1.972   .     S
O315   Zn333   1.933   .     S
O316   Zn335   1.946   .     S
O317   Zn334   1.935   .     S
O318   Zn332   1.924   .     S
O320   C886    1.382   .     S
O324   Zn332   1.925   .     S
O325   Zn335   1.933   .     S
O326   Zn333   1.929   .     S
O327   Zn334   1.943   .     S
O328   Zn335   1.934   .     S
O329   Zn332   1.924   .     S
O330   Zn333   1.942   .     S
O331   Zn334   1.930   .     S
C336   O395    1.268   .     A
C336   C342    1.440   .     S
C336   O393    1.267   .     A
C337   C351    1.409   .     A
C337   C361    1.419   .     A
C337   C355    1.493   .     S
C338   H365    1.084   .     S
C338   C350    1.394   .     A
C338   C351    1.394   .     A
C339   O394    1.283   .     A
C339   C341    1.466   .     S
C339   O396    1.288   .     A
C340   C349    1.474   .     S
C340   C360    1.425   .     A
C340   C352    1.404   .     A
C341   C208    1.347   1_655 S
C341   C223    1.497   1_655 S
C343   C346    1.452   .     S
C343   C545    1.332   .     S
C343   H575    1.088   .     S
C344   C345    1.436   .     S
C345   O397    1.280   .     A
C345   O391    1.280   .     A
C346   O392    1.270   .     A
C346   O398    1.269   .     A
C347   C352    1.383   .     A
C347   H378    1.082   .     S
C347   C961    1.385   .     S
C348   O384    1.274   .     A
C348   C351    1.452   .     S
C348   O382    1.270   .     A
C349   O385    1.289   .     A
C349   O383    1.282   .     A
C350   C965    1.415   1_554 S
C350   O990    1.382   1_554 S
C352   H376    1.083   .     S
C353   O386    1.411   .     S
C353   H380    1.113   .     S
C353   H366    1.112   .     S
C354   H367    1.114   .     S
C354   O387    1.410   .     S
C354   H368    1.109   .     S
C354   H369    1.114   .     S
C355   O388    1.221   .     D
C355   H370    1.086   .     S
C356   H371    1.085   .     S
C356   O389    1.221   .     D
C356   C364    1.489   .     S
C357   O390    1.220   .     D
C357   H372    1.085   .     S
C358   H377    1.079   .     S
C358   C950    1.385   1_554 S
C358   C962    1.415   1_554 S
C359   C360    1.421   .     A
C359   C961    1.415   .     S
C359   C964    1.421   .     S
C360   C364    1.423   .     A
C361   C962    1.421   1_554 S
C361   C965    1.420   1_554 S
C362   C363    1.413   .     A
C362   C964    1.420   .     S
C362   C953    1.415   .     S
C363   C364    1.406   .     A
C363   O386    1.385   .     S
H373   C208    1.086   1_655 S
H375   C545    1.086   .     S
H379   C554    1.108   .     S
O381   Zn402   1.930   .     S
O381   Zn401   1.934   .     S
O381   Zn400   1.938   .     S
O381   Zn399   1.972   .     S
O382   Zn400   1.933   .     S
O383   Zn402   1.946   .     S
O384   Zn401   1.935   .     S
O385   Zn399   1.924   .     S
O387   C953    1.382   .     S
O391   Zn399   1.925   .     S
O392   Zn402   1.933   .     S
O393   Zn400   1.929   .     S
O394   Zn401   1.943   .     S
O395   Zn402   1.934   .     S
O396   Zn399   1.924   .     S
O397   Zn400   1.942   .     S
O398   Zn401   1.930   .     S
C403   O462    1.268   .     A
C403   C409    1.440   .     S
C403   O460    1.267   .     A
C404   C418    1.409   .     A
C404   C428    1.419   .     A
C404   C422    1.493   .     S
C405   H432    1.084   .     S
C405   C417    1.394   .     A
C405   C418    1.394   .     A
C406   O461    1.283   .     A
C406   C408    1.466   .     S
C406   O463    1.288   .     A
C407   C416    1.474   .     S
C407   C427    1.425   .     A
C407   C419    1.404   .     A
C408   C476    1.347   .     S
C408   C491    1.497   .     S
C409   C542    1.347   1_455 S
C409   H574    1.086   1_455 S
C410   C413    1.452   .     S
C410   C9      1.332   1_565 S
C410   H39     1.088   1_565 S
C411   C412    1.436   .     S
C412   O464    1.280   .     A
C412   O458    1.280   .     A
C413   O459    1.270   .     A
C413   O465    1.269   .     A
C414   C419    1.383   .     A
C414   H445    1.082   .     S
C414   C1028   1.385   .     S
C415   O451    1.274   .     A
C415   C418    1.452   .     S
C415   O449    1.270   .     A
C416   O452    1.289   .     A
C416   O450    1.282   .     A
C417   C1032   1.415   1_554 S
C417   O1057   1.382   1_554 S
C419   H443    1.083   .     S
C420   O453    1.411   .     S
C420   H447    1.113   .     S
C420   H433    1.112   .     S
C421   H434    1.114   .     S
C421   O454    1.410   .     S
C421   H435    1.109   .     S
C421   H436    1.114   .     S
C422   O455    1.221   .     D
C422   H437    1.086   .     S
C423   H438    1.085   .     S
C423   O456    1.221   .     D
C423   C431    1.489   .     S
C424   O457    1.220   .     D
C424   H439    1.085   .     S
C424   C542    1.497   1_455 S
C425   H444    1.079   .     S
C425   C1017   1.385   1_554 S
C425   C1029   1.415   1_554 S
C426   C427    1.421   .     A
C426   C1028   1.415   .     S
C426   C1031   1.421   .     S
C427   C431    1.423   .     A
C428   C1029   1.421   1_554 S
C428   C1032   1.420   1_554 S
C429   C430    1.413   .     A
C429   C1031   1.420   .     S
C429   C1020   1.415   .     S
C430   C431    1.406   .     A
C430   O453    1.385   .     S
H440   C476    1.086   .     S
H442   C9      1.086   1_565 S
H446   C18     1.108   1_565 S
O448   Zn469   1.930   .     S
O448   Zn468   1.934   .     S
O448   Zn467   1.938   .     S
O448   Zn466   1.972   .     S
O449   Zn467   1.933   .     S
O450   Zn469   1.946   .     S
O451   Zn468   1.935   .     S
O452   Zn466   1.924   .     S
O454   C1020   1.382   .     S
O458   Zn466   1.925   .     S
O459   Zn469   1.933   .     S
O460   Zn467   1.929   .     S
O461   Zn468   1.943   .     S
O462   Zn469   1.934   .     S
O463   Zn466   1.924   .     S
O464   Zn467   1.942   .     S
O465   Zn468   1.930   .     S
C470   O529    1.268   .     A
C470   C476    1.440   .     S
C470   O527    1.267   .     A
C471   C485    1.409   .     A
C471   C495    1.419   .     A
C471   C489    1.493   .     S
C472   H499    1.084   .     S
C472   C484    1.394   .     A
C472   C485    1.394   .     A
C473   O528    1.283   .     A
C473   C475    1.466   .     S
C473   O530    1.288   .     A
C474   C483    1.474   .     S
C474   C494    1.425   .     A
C474   C486    1.404   .     A
C475   C543    1.347   .     S
C475   C558    1.497   .     S
C477   C480    1.452   .     S
C477   C76     1.332   1_565 S
C477   H106    1.088   1_565 S
C478   C479    1.436   .     S
C479   O531    1.280   .     A
C479   O525    1.280   .     A
C480   O526    1.270   .     A
C480   O532    1.269   .     A
C481   C486    1.383   .     A
C481   H512    1.082   .     S
C481   C1095   1.385   .     S
C482   O518    1.274   .     A
C482   C485    1.452   .     S
C482   O516    1.270   .     A
C483   O519    1.289   .     A
C483   O517    1.282   .     A
C484   C1099   1.415   1_554 S
C484   O1124   1.382   1_554 S
C486   H510    1.083   .     S
C487   O520    1.411   .     S
C487   H514    1.113   .     S
C487   H500    1.112   .     S
C488   H501    1.114   .     S
C488   O521    1.410   .     S
C488   H502    1.109   .     S
C488   H503    1.114   .     S
C489   O522    1.221   .     D
C489   H504    1.086   .     S
C490   H505    1.085   .     S
C490   O523    1.221   .     D
C490   C498    1.489   .     S
C491   O524    1.220   .     D
C491   H506    1.085   .     S
C492   H511    1.079   .     S
C492   C1084   1.385   1_554 S
C492   C1096   1.415   1_554 S
C493   C494    1.421   .     A
C493   C1095   1.415   .     S
C493   C1098   1.421   .     S
C494   C498    1.423   .     A
C495   C1096   1.421   1_554 S
C495   C1099   1.420   1_554 S
C496   C497    1.413   .     A
C496   C1098   1.420   .     S
C496   C1087   1.415   .     S
C497   C498    1.406   .     A
C497   O520    1.385   .     S
H507   C543    1.086   .     S
H509   C76     1.086   1_565 S
H513   C85     1.108   1_565 S
O515   Zn536   1.930   .     S
O515   Zn535   1.934   .     S
O515   Zn534   1.938   .     S
O515   Zn533   1.972   .     S
O516   Zn534   1.933   .     S
O517   Zn536   1.946   .     S
O518   Zn535   1.935   .     S
O519   Zn533   1.924   .     S
O521   C1087   1.382   .     S
O525   Zn533   1.925   .     S
O526   Zn536   1.933   .     S
O527   Zn534   1.929   .     S
O528   Zn535   1.943   .     S
O529   Zn536   1.934   .     S
O530   Zn533   1.924   .     S
O531   Zn534   1.942   .     S
O532   Zn535   1.930   .     S
C537   O596    1.268   .     A
C537   C543    1.440   .     S
C537   O594    1.267   .     A
C538   C552    1.409   .     A
C538   C562    1.419   .     A
C538   C556    1.493   .     S
C539   H566    1.084   .     S
C539   C551    1.394   .     A
C539   C552    1.394   .     A
C540   O595    1.283   .     A
C540   C542    1.466   .     S
C540   O597    1.288   .     A
C541   C550    1.474   .     S
C541   C561    1.425   .     A
C541   C553    1.404   .     A
C542   C409    1.347   1_655 S
C542   C424    1.497   1_655 S
C544   C547    1.452   .     S
C544   C143    1.332   1_565 S
C544   H173    1.088   1_565 S
C545   C546    1.436   .     S
C546   O598    1.280   .     A
C546   O592    1.280   .     A
C547   O593    1.270   .     A
C547   O599    1.269   .     A
C548   C553    1.383   .     A
C548   H579    1.082   .     S
C548   C1162   1.385   .     S
C549   O585    1.274   .     A
C549   C552    1.452   .     S
C549   O583    1.270   .     A
C550   O586    1.289   .     A
C550   O584    1.282   .     A
C551   C1166   1.415   1_554 S
C551   O1191   1.382   1_554 S
C553   H577    1.083   .     S
C554   O587    1.411   .     S
C554   H581    1.113   .     S
C554   H567    1.112   .     S
C555   H568    1.114   .     S
C555   O588    1.410   .     S
C555   H569    1.109   .     S
C555   H570    1.114   .     S
C556   O589    1.221   .     D
C556   H571    1.086   .     S
C557   H572    1.085   .     S
C557   O590    1.221   .     D
C557   C565    1.489   .     S
C558   O591    1.220   .     D
C558   H573    1.085   .     S
C559   H578    1.079   .     S
C559   C1151   1.385   1_554 S
C559   C1163   1.415   1_554 S
C560   C561    1.421   .     A
C560   C1162   1.415   .     S
C560   C1165   1.421   .     S
C561   C565    1.423   .     A
C562   C1163   1.421   1_554 S
C562   C1166   1.420   1_554 S
C563   C564    1.413   .     A
C563   C1165   1.420   .     S
C563   C1154   1.415   .     S
C564   C565    1.406   .     A
C564   O587    1.385   .     S
H574   C409    1.086   1_655 S
H576   C143    1.086   1_565 S
H580   C152    1.108   1_565 S
O582   Zn603   1.930   .     S
O582   Zn602   1.934   .     S
O582   Zn601   1.938   .     S
O582   Zn600   1.972   .     S
O583   Zn601   1.933   .     S
O584   Zn603   1.946   .     S
O585   Zn602   1.935   .     S
O586   Zn600   1.924   .     S
O588   C1154   1.382   .     S
O592   Zn600   1.925   .     S
O593   Zn603   1.933   .     S
O594   Zn601   1.929   .     S
O595   Zn602   1.943   .     S
O596   Zn603   1.934   .     S
O597   Zn600   1.924   .     S
O598   Zn601   1.942   .     S
O599   Zn602   1.930   .     S
C604   O663    1.268   .     A
C604   C610    1.440   .     S
C604   O661    1.267   .     A
C605   C619    1.409   .     A
C605   C629    1.419   .     A
C605   C623    1.493   .     S
C606   H633    1.084   .     S
C606   C618    1.394   .     A
C606   C619    1.394   .     A
C607   O662    1.283   .     A
C607   C609    1.466   .     S
C607   O664    1.288   .     A
C608   C617    1.474   .     S
C608   C628    1.425   .     A
C608   C620    1.404   .     A
C609   C677    1.347   .     S
C609   C692    1.497   .     S
C610   C743    1.347   1_455 S
C610   H775    1.086   1_455 S
C611   C614    1.452   .     S
C611   C813    1.332   .     S
C611   H843    1.088   .     S
C612   C613    1.436   .     S
C612   C1013   1.332   1_545 S
C612   H1045   1.086   1_545 S
C613   O665    1.280   .     A
C613   O659    1.280   .     A
C614   O660    1.270   .     A
C614   O666    1.269   .     A
C615   C620    1.383   .     A
C615   H646    1.082   .     S
C615   C23     1.385   1_556 S
C616   O652    1.274   .     A
C616   C619    1.452   .     S
C616   O650    1.270   .     A
C617   O653    1.289   .     A
C617   O651    1.282   .     A
C620   H644    1.083   .     S
C621   O654    1.411   .     S
C621   H648    1.113   .     S
C621   H634    1.112   .     S
C621   H1049   1.108   1_545 S
C622   H635    1.114   .     S
C622   O655    1.410   .     S
C622   H636    1.109   .     S
C622   H637    1.114   .     S
C623   O656    1.221   .     D
C623   H638    1.086   .     S
C624   H639    1.085   .     S
C624   O657    1.221   .     D
C624   C632    1.489   .     S
C625   O658    1.220   .     D
C625   H640    1.085   .     S
C625   C743    1.497   1_455 S
C626   H645    1.079   .     S
C627   C628    1.421   .     A
C627   C23     1.415   1_556 S
C627   C26     1.421   1_556 S
C628   C632    1.423   .     A
C630   C631    1.413   .     A
C630   C26     1.420   1_556 S
C630   C15     1.415   1_556 S
C631   C632    1.406   .     A
C631   O654    1.385   .     S
H641   C677    1.086   .     S
H642   C1013   1.088   1_545 S
H643   C813    1.086   .     S
H647   C822    1.108   .     S
O649   Zn670   1.930   .     S
O649   Zn669   1.934   .     S
O649   Zn668   1.938   .     S
O649   Zn667   1.972   .     S
O650   Zn668   1.933   .     S
O651   Zn670   1.946   .     S
O652   Zn669   1.935   .     S
O653   Zn667   1.924   .     S
O655   C15     1.382   1_556 S
O659   Zn667   1.925   .     S
O660   Zn670   1.933   .     S
O661   Zn668   1.929   .     S
O662   Zn669   1.943   .     S
O663   Zn670   1.934   .     S
O664   Zn667   1.924   .     S
O665   Zn668   1.942   .     S
O666   Zn669   1.930   .     S
C671   O730    1.268   .     A
C671   C677    1.440   .     S
C671   O728    1.267   .     A
C672   C686    1.409   .     A
C672   C696    1.419   .     A
C672   C690    1.493   .     S
C673   H700    1.084   .     S
C673   C685    1.394   .     A
C673   C686    1.394   .     A
C674   O729    1.283   .     A
C674   C676    1.466   .     S
C674   O731    1.288   .     A
C675   C684    1.474   .     S
C675   C695    1.425   .     A
C675   C687    1.404   .     A
C676   C744    1.347   .     S
C676   C759    1.497   .     S
C678   C681    1.452   .     S
C678   C880    1.332   .     S
C678   H910    1.088   .     S
C679   C680    1.436   .     S
C679   C1080   1.332   1_545 S
C679   H1112   1.086   1_545 S
C680   O732    1.280   .     A
C680   O726    1.280   .     A
C681   O727    1.270   .     A
C681   O733    1.269   .     A
C682   C687    1.383   .     A
C682   H713    1.082   .     S
C682   C90     1.385   1_556 S
C683   O719    1.274   .     A
C683   C686    1.452   .     S
C683   O717    1.270   .     A
C684   O720    1.289   .     A
C684   O718    1.282   .     A
C687   H711    1.083   .     S
C688   O721    1.411   .     S
C688   H715    1.113   .     S
C688   H701    1.112   .     S
C688   H1116   1.108   1_545 S
C689   H702    1.114   .     S
C689   O722    1.410   .     S
C689   H703    1.109   .     S
C689   H704    1.114   .     S
C690   O723    1.221   .     D
C690   H705    1.086   .     S
C691   H706    1.085   .     S
C691   O724    1.221   .     D
C691   C699    1.489   .     S
C692   O725    1.220   .     D
C692   H707    1.085   .     S
C693   H712    1.079   .     S
C694   C695    1.421   .     A
C694   C90     1.415   1_556 S
C694   C93     1.421   1_556 S
C695   C699    1.423   .     A
C697   C698    1.413   .     A
C697   C93     1.420   1_556 S
C697   C82     1.415   1_556 S
C698   C699    1.406   .     A
C698   O721    1.385   .     S
H708   C744    1.086   .     S
H709   C1080   1.088   1_545 S
H710   C880    1.086   .     S
H714   C889    1.108   .     S
O716   Zn737   1.930   .     S
O716   Zn736   1.934   .     S
O716   Zn735   1.938   .     S
O716   Zn734   1.972   .     S
O717   Zn735   1.933   .     S
O718   Zn737   1.946   .     S
O719   Zn736   1.935   .     S
O720   Zn734   1.924   .     S
O722   C82     1.382   1_556 S
O726   Zn734   1.925   .     S
O727   Zn737   1.933   .     S
O728   Zn735   1.929   .     S
O729   Zn736   1.943   .     S
O730   Zn737   1.934   .     S
O731   Zn734   1.924   .     S
O732   Zn735   1.942   .     S
O733   Zn736   1.930   .     S
C738   O797    1.268   .     A
C738   C744    1.440   .     S
C738   O795    1.267   .     A
C739   C753    1.409   .     A
C739   C763    1.419   .     A
C739   C757    1.493   .     S
C740   H767    1.084   .     S
C740   C752    1.394   .     A
C740   C753    1.394   .     A
C741   O796    1.283   .     A
C741   C743    1.466   .     S
C741   O798    1.288   .     A
C742   C751    1.474   .     S
C742   C762    1.425   .     A
C742   C754    1.404   .     A
C743   C610    1.347   1_655 S
C743   C625    1.497   1_655 S
C745   C748    1.452   .     S
C745   C947    1.332   .     S
C745   H977    1.088   .     S
C746   C747    1.436   .     S
C746   C1147   1.332   1_545 S
C746   H1179   1.086   1_545 S
C747   O799    1.280   .     A
C747   O793    1.280   .     A
C748   O794    1.270   .     A
C748   O800    1.269   .     A
C749   C754    1.383   .     A
C749   H780    1.082   .     S
C749   C157    1.385   1_556 S
C750   O786    1.274   .     A
C750   C753    1.452   .     S
C750   O784    1.270   .     A
C751   O787    1.289   .     A
C751   O785    1.282   .     A
C754   H778    1.083   .     S
C755   O788    1.411   .     S
C755   H782    1.113   .     S
C755   H768    1.112   .     S
C755   H1183   1.108   1_545 S
C756   H769    1.114   .     S
C756   O789    1.410   .     S
C756   H770    1.109   .     S
C756   H771    1.114   .     S
C757   O790    1.221   .     D
C757   H772    1.086   .     S
C758   H773    1.085   .     S
C758   O791    1.221   .     D
C758   C766    1.489   .     S
C759   O792    1.220   .     D
C759   H774    1.085   .     S
C760   H779    1.079   .     S
C761   C762    1.421   .     A
C761   C157    1.415   1_556 S
C761   C160    1.421   1_556 S
C762   C766    1.423   .     A
C764   C765    1.413   .     A
C764   C160    1.420   1_556 S
C764   C149    1.415   1_556 S
C765   C766    1.406   .     A
C765   O788    1.385   .     S
H775   C610    1.086   1_655 S
H776   C1147   1.088   1_545 S
H777   C947    1.086   .     S
H781   C956    1.108   .     S
O783   Zn804   1.930   .     S
O783   Zn803   1.934   .     S
O783   Zn802   1.938   .     S
O783   Zn801   1.972   .     S
O784   Zn802   1.933   .     S
O785   Zn804   1.946   .     S
O786   Zn803   1.935   .     S
O787   Zn801   1.924   .     S
O789   C149    1.382   1_556 S
O793   Zn801   1.925   .     S
O794   Zn804   1.933   .     S
O795   Zn802   1.929   .     S
O796   Zn803   1.943   .     S
O797   Zn804   1.934   .     S
O798   Zn801   1.924   .     S
O799   Zn802   1.942   .     S
O800   Zn803   1.930   .     S
C805   O864    1.268   .     A
C805   C811    1.440   .     S
C805   O862    1.267   .     A
C806   C820    1.409   .     A
C806   C830    1.419   .     A
C806   C824    1.493   .     S
C807   H834    1.084   .     S
C807   C819    1.394   .     A
C807   C820    1.394   .     A
C808   O863    1.283   .     A
C808   C810    1.466   .     S
C808   O865    1.288   .     A
C809   C818    1.474   .     S
C809   C829    1.425   .     A
C809   C821    1.404   .     A
C810   C878    1.347   .     S
C810   C893    1.497   .     S
C811   C944    1.347   1_455 S
C811   H976    1.086   1_455 S
C812   C815    1.452   .     S
C812   C1014   1.332   .     S
C812   H1044   1.088   .     S
C813   C814    1.436   .     S
C814   O866    1.280   .     A
C814   O860    1.280   .     A
C815   O861    1.270   .     A
C815   O867    1.269   .     A
C816   C821    1.383   .     A
C816   H847    1.082   .     S
C816   C224    1.385   1_556 S
C817   O853    1.274   .     A
C817   C820    1.452   .     S
C817   O851    1.270   .     A
C818   O854    1.289   .     A
C818   O852    1.282   .     A
C821   H845    1.083   .     S
C822   O855    1.411   .     S
C822   H849    1.113   .     S
C822   H835    1.112   .     S
C823   H836    1.114   .     S
C823   O856    1.410   .     S
C823   H837    1.109   .     S
C823   H838    1.114   .     S
C824   O857    1.221   .     D
C824   H839    1.086   .     S
C825   H840    1.085   .     S
C825   O858    1.221   .     D
C825   C833    1.489   .     S
C826   O859    1.220   .     D
C826   H841    1.085   .     S
C826   C944    1.497   1_455 S
C827   H846    1.079   .     S
C828   C829    1.421   .     A
C828   C224    1.415   1_556 S
C828   C227    1.421   1_556 S
C829   C833    1.423   .     A
C831   C832    1.413   .     A
C831   C227    1.420   1_556 S
C831   C216    1.415   1_556 S
C832   C833    1.406   .     A
C832   O855    1.385   .     S
H842   C878    1.086   .     S
H844   C1014   1.086   .     S
H848   C1023   1.108   .     S
O850   Zn871   1.930   .     S
O850   Zn870   1.934   .     S
O850   Zn869   1.938   .     S
O850   Zn868   1.972   .     S
O851   Zn869   1.933   .     S
O852   Zn871   1.946   .     S
O853   Zn870   1.935   .     S
O854   Zn868   1.924   .     S
O856   C216    1.382   1_556 S
O860   Zn868   1.925   .     S
O861   Zn871   1.933   .     S
O862   Zn869   1.929   .     S
O863   Zn870   1.943   .     S
O864   Zn871   1.934   .     S
O865   Zn868   1.924   .     S
O866   Zn869   1.942   .     S
O867   Zn870   1.930   .     S
C872   O931    1.268   .     A
C872   C878    1.440   .     S
C872   O929    1.267   .     A
C873   C887    1.409   .     A
C873   C897    1.419   .     A
C873   C891    1.493   .     S
C874   H901    1.084   .     S
C874   C886    1.394   .     A
C874   C887    1.394   .     A
C875   O930    1.283   .     A
C875   C877    1.466   .     S
C875   O932    1.288   .     A
C876   C885    1.474   .     S
C876   C896    1.425   .     A
C876   C888    1.404   .     A
C877   C945    1.347   .     S
C877   C960    1.497   .     S
C879   C882    1.452   .     S
C879   C1081   1.332   .     S
C879   H1111   1.088   .     S
C880   C881    1.436   .     S
C881   O933    1.280   .     A
C881   O927    1.280   .     A
C882   O928    1.270   .     A
C882   O934    1.269   .     A
C883   C888    1.383   .     A
C883   H914    1.082   .     S
C883   C291    1.385   1_556 S
C884   O920    1.274   .     A
C884   C887    1.452   .     S
C884   O918    1.270   .     A
C885   O921    1.289   .     A
C885   O919    1.282   .     A
C888   H912    1.083   .     S
C889   O922    1.411   .     S
C889   H916    1.113   .     S
C889   H902    1.112   .     S
C890   H903    1.114   .     S
C890   O923    1.410   .     S
C890   H904    1.109   .     S
C890   H905    1.114   .     S
C891   O924    1.221   .     D
C891   H906    1.086   .     S
C892   H907    1.085   .     S
C892   O925    1.221   .     D
C892   C900    1.489   .     S
C893   O926    1.220   .     D
C893   H908    1.085   .     S
C894   H913    1.079   .     S
C895   C896    1.421   .     A
C895   C291    1.415   1_556 S
C895   C294    1.421   1_556 S
C896   C900    1.423   .     A
C898   C899    1.413   .     A
C898   C294    1.420   1_556 S
C898   C283    1.415   1_556 S
C899   C900    1.406   .     A
C899   O922    1.385   .     S
H909   C945    1.086   .     S
H911   C1081   1.086   .     S
H915   C1090   1.108   .     S
O917   Zn938   1.930   .     S
O917   Zn937   1.934   .     S
O917   Zn936   1.938   .     S
O917   Zn935   1.972   .     S
O918   Zn936   1.933   .     S
O919   Zn938   1.946   .     S
O920   Zn937   1.935   .     S
O921   Zn935   1.924   .     S
O923   C283    1.382   1_556 S
O927   Zn935   1.925   .     S
O928   Zn938   1.933   .     S
O929   Zn936   1.929   .     S
O930   Zn937   1.943   .     S
O931   Zn938   1.934   .     S
O932   Zn935   1.924   .     S
O933   Zn936   1.942   .     S
O934   Zn937   1.930   .     S
C939   O998    1.268   .     A
C939   C945    1.440   .     S
C939   O996    1.267   .     A
C940   C954    1.409   .     A
C940   C964    1.419   .     A
C940   C958    1.493   .     S
C941   H968    1.084   .     S
C941   C953    1.394   .     A
C941   C954    1.394   .     A
C942   O997    1.283   .     A
C942   C944    1.466   .     S
C942   O999    1.288   .     A
C943   C952    1.474   .     S
C943   C963    1.425   .     A
C943   C955    1.404   .     A
C944   C811    1.347   1_655 S
C944   C826    1.497   1_655 S
C946   C949    1.452   .     S
C946   C1148   1.332   .     S
C946   H1178   1.088   .     S
C947   C948    1.436   .     S
C948   O1000   1.280   .     A
C948   O994    1.280   .     A
C949   O995    1.270   .     A
C949   O1001   1.269   .     A
C950   C955    1.383   .     A
C950   H981    1.082   .     S
C950   C358    1.385   1_556 S
C951   O987    1.274   .     A
C951   C954    1.452   .     S
C951   O985    1.270   .     A
C952   O988    1.289   .     A
C952   O986    1.282   .     A
C955   H979    1.083   .     S
C956   O989    1.411   .     S
C956   H983    1.113   .     S
C956   H969    1.112   .     S
C957   H970    1.114   .     S
C957   O990    1.410   .     S
C957   H971    1.109   .     S
C957   H972    1.114   .     S
C958   O991    1.221   .     D
C958   H973    1.086   .     S
C959   H974    1.085   .     S
C959   O992    1.221   .     D
C959   C967    1.489   .     S
C960   O993    1.220   .     D
C960   H975    1.085   .     S
C961   H980    1.079   .     S
C962   C963    1.421   .     A
C962   C358    1.415   1_556 S
C962   C361    1.421   1_556 S
C963   C967    1.423   .     A
C965   C966    1.413   .     A
C965   C361    1.420   1_556 S
C965   C350    1.415   1_556 S
C966   C967    1.406   .     A
C966   O989    1.385   .     S
H976   C811    1.086   1_655 S
H978   C1148   1.086   .     S
H982   C1157   1.108   .     S
O984   Zn1005  1.930   .     S
O984   Zn1004  1.934   .     S
O984   Zn1003  1.938   .     S
O984   Zn1002  1.972   .     S
O985   Zn1003  1.933   .     S
O986   Zn1005  1.946   .     S
O987   Zn1004  1.935   .     S
O988   Zn1002  1.924   .     S
O990   C350    1.382   1_556 S
O994   Zn1002  1.925   .     S
O995   Zn1005  1.933   .     S
O996   Zn1003  1.929   .     S
O997   Zn1004  1.943   .     S
O998   Zn1005  1.934   .     S
O999   Zn1002  1.924   .     S
O1000  Zn1003  1.942   .     S
O1001  Zn1004  1.930   .     S
C1006  O1065   1.268   .     A
C1006  C1012   1.440   .     S
C1006  O1063   1.267   .     A
C1007  C1021   1.409   .     A
C1007  C1031   1.419   .     A
C1007  C1025   1.493   .     S
C1008  H1035   1.084   .     S
C1008  C1020   1.394   .     A
C1008  C1021   1.394   .     A
C1009  O1064   1.283   .     A
C1009  C1011   1.466   .     S
C1009  O1066   1.288   .     A
C1010  C1019   1.474   .     S
C1010  C1030   1.425   .     A
C1010  C1022   1.404   .     A
C1011  C1079   1.347   .     S
C1011  C1094   1.497   .     S
C1012  C1145   1.347   1_455 S
C1012  H1177   1.086   1_455 S
C1013  C1016   1.452   .     S
C1013  C612    1.332   1_565 S
C1013  H642    1.088   1_565 S
C1014  C1015   1.436   .     S
C1015  O1067   1.280   .     A
C1015  O1061   1.280   .     A
C1016  O1062   1.270   .     A
C1016  O1068   1.269   .     A
C1017  C1022   1.383   .     A
C1017  H1048   1.082   .     S
C1017  C425    1.385   1_556 S
C1018  O1054   1.274   .     A
C1018  C1021   1.452   .     S
C1018  O1052   1.270   .     A
C1019  O1055   1.289   .     A
C1019  O1053   1.282   .     A
C1022  H1046   1.083   .     S
C1023  O1056   1.411   .     S
C1023  H1050   1.113   .     S
C1023  H1036   1.112   .     S
C1024  H1037   1.114   .     S
C1024  O1057   1.410   .     S
C1024  H1038   1.109   .     S
C1024  H1039   1.114   .     S
C1025  O1058   1.221   .     D
C1025  H1040   1.086   .     S
C1026  H1041   1.085   .     S
C1026  O1059   1.221   .     D
C1026  C1034   1.489   .     S
C1027  O1060   1.220   .     D
C1027  H1042   1.085   .     S
C1027  C1145   1.497   1_455 S
C1028  H1047   1.079   .     S
C1029  C1030   1.421   .     A
C1029  C425    1.415   1_556 S
C1029  C428    1.421   1_556 S
C1030  C1034   1.423   .     A
C1032  C1033   1.413   .     A
C1032  C428    1.420   1_556 S
C1032  C417    1.415   1_556 S
C1033  C1034   1.406   .     A
C1033  O1056   1.385   .     S
H1043  C1079   1.086   .     S
H1045  C612    1.086   1_565 S
H1049  C621    1.108   1_565 S
O1051  Zn1072  1.930   .     S
O1051  Zn1071  1.934   .     S
O1051  Zn1070  1.938   .     S
O1051  Zn1069  1.972   .     S
O1052  Zn1070  1.933   .     S
O1053  Zn1072  1.946   .     S
O1054  Zn1071  1.935   .     S
O1055  Zn1069  1.924   .     S
O1057  C417    1.382   1_556 S
O1061  Zn1069  1.925   .     S
O1062  Zn1072  1.933   .     S
O1063  Zn1070  1.929   .     S
O1064  Zn1071  1.943   .     S
O1065  Zn1072  1.934   .     S
O1066  Zn1069  1.924   .     S
O1067  Zn1070  1.942   .     S
O1068  Zn1071  1.930   .     S
C1073  O1132   1.268   .     A
C1073  C1079   1.440   .     S
C1073  O1130   1.267   .     A
C1074  C1088   1.409   .     A
C1074  C1098   1.419   .     A
C1074  C1092   1.493   .     S
C1075  H1102   1.084   .     S
C1075  C1087   1.394   .     A
C1075  C1088   1.394   .     A
C1076  O1131   1.283   .     A
C1076  C1078   1.466   .     S
C1076  O1133   1.288   .     A
C1077  C1086   1.474   .     S
C1077  C1097   1.425   .     A
C1077  C1089   1.404   .     A
C1078  C1146   1.347   .     S
C1078  C1161   1.497   .     S
C1080  C1083   1.452   .     S
C1080  C679    1.332   1_565 S
C1080  H709    1.088   1_565 S
C1081  C1082   1.436   .     S
C1082  O1134   1.280   .     A
C1082  O1128   1.280   .     A
C1083  O1129   1.270   .     A
C1083  O1135   1.269   .     A
C1084  C1089   1.383   .     A
C1084  H1115   1.082   .     S
C1084  C492    1.385   1_556 S
C1085  O1121   1.274   .     A
C1085  C1088   1.452   .     S
C1085  O1119   1.270   .     A
C1086  O1122   1.289   .     A
C1086  O1120   1.282   .     A
C1089  H1113   1.083   .     S
C1090  O1123   1.411   .     S
C1090  H1117   1.113   .     S
C1090  H1103   1.112   .     S
C1091  H1104   1.114   .     S
C1091  O1124   1.410   .     S
C1091  H1105   1.109   .     S
C1091  H1106   1.114   .     S
C1092  O1125   1.221   .     D
C1092  H1107   1.086   .     S
C1093  H1108   1.085   .     S
C1093  O1126   1.221   .     D
C1093  C1101   1.489   .     S
C1094  O1127   1.220   .     D
C1094  H1109   1.085   .     S
C1095  H1114   1.079   .     S
C1096  C1097   1.421   .     A
C1096  C492    1.415   1_556 S
C1096  C495    1.421   1_556 S
C1097  C1101   1.423   .     A
C1099  C1100   1.413   .     A
C1099  C495    1.420   1_556 S
C1099  C484    1.415   1_556 S
C1100  C1101   1.406   .     A
C1100  O1123   1.385   .     S
H1110  C1146   1.086   .     S
H1112  C679    1.086   1_565 S
H1116  C688    1.108   1_565 S
O1118  Zn1139  1.930   .     S
O1118  Zn1138  1.934   .     S
O1118  Zn1137  1.938   .     S
O1118  Zn1136  1.972   .     S
O1119  Zn1137  1.933   .     S
O1120  Zn1139  1.946   .     S
O1121  Zn1138  1.935   .     S
O1122  Zn1136  1.924   .     S
O1124  C484    1.382   1_556 S
O1128  Zn1136  1.925   .     S
O1129  Zn1139  1.933   .     S
O1130  Zn1137  1.929   .     S
O1131  Zn1138  1.943   .     S
O1132  Zn1139  1.934   .     S
O1133  Zn1136  1.924   .     S
O1134  Zn1137  1.942   .     S
O1135  Zn1138  1.930   .     S
C1140  O1199   1.268   .     A
C1140  C1146   1.440   .     S
C1140  O1197   1.267   .     A
C1141  C1155   1.409   .     A
C1141  C1165   1.419   .     A
C1141  C1159   1.493   .     S
C1142  H1169   1.084   .     S
C1142  C1154   1.394   .     A
C1142  C1155   1.394   .     A
C1143  O1198   1.283   .     A
C1143  C1145   1.466   .     S
C1143  O1200   1.288   .     A
C1144  C1153   1.474   .     S
C1144  C1164   1.425   .     A
C1144  C1156   1.404   .     A
C1145  C1012   1.347   1_655 S
C1145  C1027   1.497   1_655 S
C1147  C1150   1.452   .     S
C1147  C746    1.332   1_565 S
C1147  H776    1.088   1_565 S
C1148  C1149   1.436   .     S
C1149  O1201   1.280   .     A
C1149  O1195   1.280   .     A
C1150  O1196   1.270   .     A
C1150  O1202   1.269   .     A
C1151  C1156   1.383   .     A
C1151  H1182   1.082   .     S
C1151  C559    1.385   1_556 S
C1152  O1188   1.274   .     A
C1152  C1155   1.452   .     S
C1152  O1186   1.270   .     A
C1153  O1189   1.289   .     A
C1153  O1187   1.282   .     A
C1156  H1180   1.083   .     S
C1157  O1190   1.411   .     S
C1157  H1184   1.113   .     S
C1157  H1170   1.112   .     S
C1158  H1171   1.114   .     S
C1158  O1191   1.410   .     S
C1158  H1172   1.109   .     S
C1158  H1173   1.114   .     S
C1159  O1192   1.221   .     D
C1159  H1174   1.086   .     S
C1160  H1175   1.085   .     S
C1160  O1193   1.221   .     D
C1160  C1168   1.489   .     S
C1161  O1194   1.220   .     D
C1161  H1176   1.085   .     S
C1162  H1181   1.079   .     S
C1163  C1164   1.421   .     A
C1163  C559    1.415   1_556 S
C1163  C562    1.421   1_556 S
C1164  C1168   1.423   .     A
C1166  C1167   1.413   .     A
C1166  C562    1.420   1_556 S
C1166  C551    1.415   1_556 S
C1167  C1168   1.406   .     A
C1167  O1190   1.385   .     S
H1177  C1012   1.086   1_655 S
H1179  C746    1.086   1_565 S
H1183  C755    1.108   1_565 S
O1185  Zn1206  1.930   .     S
O1185  Zn1205  1.934   .     S
O1185  Zn1204  1.938   .     S
O1185  Zn1203  1.972   .     S
O1186  Zn1204  1.933   .     S
O1187  Zn1206  1.946   .     S
O1188  Zn1205  1.935   .     S
O1189  Zn1203  1.924   .     S
O1191  C551    1.382   1_556 S
O1195  Zn1203  1.925   .     S
O1196  Zn1206  1.933   .     S
O1197  Zn1204  1.929   .     S
O1198  Zn1205  1.943   .     S
O1199  Zn1206  1.934   .     S
O1200  Zn1203  1.924   .     S
O1201  Zn1204  1.942   .     S
O1202  Zn1205  1.930   .     S
