data_str_m1_o10_o16_pcu_sym.237
_audit_creation_date              2020-01-03
_audit_creation_method            'Materials Studio'
_symmetry_space_group_name_H-M    'P1'
_symmetry_Int_Tables_number       1
_symmetry_cell_setting            triclinic
loop_
_symmetry_equiv_pos_as_xyz
  x,y,z
_cell_length_a                    32.7201
_cell_length_b                    32.6639
_cell_length_c                    30.6285
_cell_angle_alpha                 97.0378
_cell_angle_beta                  75.3313
_cell_angle_gamma                 98.9460
loop_
_atom_site_label
_atom_site_type_symbol
_atom_site_fract_x
_atom_site_fract_y
_atom_site_fract_z
_atom_site_U_iso_or_equiv
_atom_site_adp_type
_atom_site_occupancy
C1     C     0.05284   0.15904   0.25983   0.00000  Uiso   1.00
C2     C     0.18331   0.16392   0.05286   0.00000  Uiso   1.00
C3     C     0.20014   0.09654   0.06195   0.00000  Uiso   1.00
C4     C     0.28078   0.17433   0.24067   0.00000  Uiso   1.00
C5     C     0.13644   0.18866   0.42179   0.00000  Uiso   1.00
C6     C     0.32632   0.18063   0.24102   0.00000  Uiso   1.00
C7     C     0.00807   0.15415   0.26176   0.00000  Uiso   1.00
C8     C     0.17970   0.32239   0.23793   0.00000  Uiso   1.00
C9     C     0.15063   0.01225   0.26405   0.00000  Uiso   1.00
C10    C     0.15671   0.05585   0.25938   0.00000  Uiso   1.00
C11    C     0.17633   0.27781   0.24036   0.00000  Uiso   1.00
C12    C     0.11265   0.23142   0.49237   0.00000  Uiso   1.00
C13    C     0.18506   0.14778   0.12897   0.00000  Uiso   1.00
C14    C     0.14760   0.18380   0.37139   0.00000  Uiso   1.00
C15    C     0.19657   0.08274   0.01765   0.00000  Uiso   1.00
C16    C     0.19228   0.13691   0.07996   0.00000  Uiso   1.00
C17    C     0.11932   0.22485   0.44508   0.00000  Uiso   1.00
C18    C     0.06710   0.24927   0.42277   0.00000  Uiso   1.00
C19    C     0.07645   0.17395   0.07588   0.00000  Uiso   1.00
C20    C     0.12428   0.29579   0.02789   0.00000  Uiso   1.00
C21    C     0.01848   0.22398   0.18235   0.00000  Uiso   1.00
C22    C     0.12414   0.20295   0.01628   0.00000  Uiso   1.00
C23    C     0.14770   0.17082   0.49234   0.00000  Uiso   1.00
C24    C     0.14503   0.15879   0.44731   0.00000  Uiso   1.00
C25    C     0.16912   0.14741   0.01346   0.00000  Uiso   1.00
C26    C     0.17671   0.10631   0.49464   0.00000  Uiso   1.00
C27    C     0.16206   0.09008   0.45521   0.00000  Uiso   1.00
C28    C     0.14648   0.11629   0.43169   0.00000  Uiso   1.00
Cl29   Cl    0.21651   0.06382   0.09452   0.00000  Uiso   1.00
Cl30   Cl    0.31382   0.10538   0.27900   0.00000  Uiso   1.00
Cl31   Cl    0.10328   0.32727   0.30305   0.00000  Uiso   1.00
Cl32   Cl    0.15664   0.03620   0.43740   0.00000  Uiso   1.00
Cl33   Cl    0.22142   0.03858   0.49169   0.00000  Uiso   1.00
Cl34   Cl    0.19652   0.21813   0.06550   0.00000  Uiso   1.00
Cl35   Cl    0.11765   0.09278   0.39108   0.00000  Uiso   1.00
H36    H     0.20705   0.00372   0.21411   0.00000  Uiso   1.00
H37    H     0.10969   0.32472   0.04081   0.00000  Uiso   1.00
H38    H     0.32899   0.24641   0.18447   0.00000  Uiso   1.00
H39    H     0.01043   0.19518   0.16103   0.00000  Uiso   1.00
H40    H     0.05043   0.23870   0.16504   0.00000  Uiso   1.00
H41    H     0.04773   0.25719   0.45736   0.00000  Uiso   1.00
H42    H     0.05607   0.21697   0.41034   0.00000  Uiso   1.00
H43    H     0.06140   0.27061   0.40003   0.00000  Uiso   1.00
H44    H     0.08322   0.14280   0.05876   0.00000  Uiso   1.00
H45    H     0.04673   0.18172   0.06942   0.00000  Uiso   1.00
H46    H     0.07134   0.17134   0.11264   0.00000  Uiso   1.00
H47    H     0.15138   0.30326   0.49849   0.00000  Uiso   1.00
H48    H     0.13612   0.28616   0.05554   0.00000  Uiso   1.00
O49    O     0.16667   0.16667   0.25000   0.00000  Uiso   1.00
O50    O     0.15451   0.12637   0.15459   0.00000  Uiso   1.00
O51    O     0.12940   0.20391   0.34968   0.00000  Uiso   1.00
O52    O     0.20824   0.17759   0.14606   0.00000  Uiso   1.00
O53    O     0.17451   0.15880   0.34968   0.00000  Uiso   1.00
O54    O     0.11102   0.25500   0.42161   0.00000  Uiso   1.00
O55    O     0.11031   0.20590   0.06304   0.00000  Uiso   1.00
O56    O     0.09303   0.26505   0.01528   0.00000  Uiso   1.00
O57    O     0.01980   0.21644   0.22633   0.00000  Uiso   1.00
O58    O     0.17930   0.08019   0.28214   0.00000  Uiso   1.00
O59    O     0.14632   0.26085   0.27014   0.00000  Uiso   1.00
O60    O     0.07412   0.13291   0.23413   0.00000  Uiso   1.00
O61    O     0.26693   0.19272   0.21361   0.00000  Uiso   1.00
O62    O     0.07071   0.18878   0.28213   0.00000  Uiso   1.00
O63    O     0.25491   0.15226   0.27014   0.00000  Uiso   1.00
O64    O     0.13760   0.06944   0.23413   0.00000  Uiso   1.00
O65    O     0.20345   0.25620   0.21361   0.00000  Uiso   1.00
Zn66   Zn    0.19338   0.13994   0.28734   0.00000  Uiso   1.00
Zn67   Zn    0.13379   0.12458   0.21876   0.00000  Uiso   1.00
Zn68   Zn    0.21056   0.19775   0.20657   0.00000  Uiso   1.00
Zn69   Zn    0.12893   0.20439   0.28734   0.00000  Uiso   1.00
C70    C     0.38617   0.15904   0.25983   0.00000  Uiso   1.00
C71    C     0.51664   0.16392   0.05286   0.00000  Uiso   1.00
C72    C     0.53347   0.09654   0.06195   0.00000  Uiso   1.00
C73    C     0.61412   0.17433   0.24067   0.00000  Uiso   1.00
C74    C     0.46977   0.18866   0.42179   0.00000  Uiso   1.00
C75    C     0.65965   0.18063   0.24102   0.00000  Uiso   1.00
C76    C     0.34141   0.15415   0.26176   0.00000  Uiso   1.00
C77    C     0.51304   0.32239   0.23793   0.00000  Uiso   1.00
C78    C     0.48397   0.01225   0.26405   0.00000  Uiso   1.00
C79    C     0.49005   0.05585   0.25938   0.00000  Uiso   1.00
C80    C     0.50966   0.27781   0.24036   0.00000  Uiso   1.00
C81    C     0.44598   0.23142   0.49237   0.00000  Uiso   1.00
C82    C     0.51839   0.14778   0.12897   0.00000  Uiso   1.00
C83    C     0.48093   0.18380   0.37139   0.00000  Uiso   1.00
C84    C     0.52990   0.08274   0.01765   0.00000  Uiso   1.00
C85    C     0.52561   0.13691   0.07996   0.00000  Uiso   1.00
C86    C     0.45265   0.22485   0.44508   0.00000  Uiso   1.00
C87    C     0.40043   0.24927   0.42277   0.00000  Uiso   1.00
C88    C     0.40978   0.17395   0.07588   0.00000  Uiso   1.00
C89    C     0.45762   0.29579   0.02789   0.00000  Uiso   1.00
C90    C     0.35181   0.22398   0.18235   0.00000  Uiso   1.00
C91    C     0.45747   0.20295   0.01628   0.00000  Uiso   1.00
C92    C     0.48104   0.17082   0.49234   0.00000  Uiso   1.00
C93    C     0.47837   0.15879   0.44731   0.00000  Uiso   1.00
C94    C     0.50246   0.14741   0.01346   0.00000  Uiso   1.00
C95    C     0.51004   0.10631   0.49464   0.00000  Uiso   1.00
C96    C     0.49540   0.09008   0.45521   0.00000  Uiso   1.00
C97    C     0.47982   0.11629   0.43169   0.00000  Uiso   1.00
Cl98   Cl    0.54984   0.06382   0.09452   0.00000  Uiso   1.00
Cl99   Cl    0.64715   0.10538   0.27900   0.00000  Uiso   1.00
Cl100  Cl    0.43661   0.32727   0.30305   0.00000  Uiso   1.00
Cl101  Cl    0.48998   0.03620   0.43740   0.00000  Uiso   1.00
Cl102  Cl    0.55476   0.03858   0.49169   0.00000  Uiso   1.00
Cl103  Cl    0.52985   0.21813   0.06550   0.00000  Uiso   1.00
Cl104  Cl    0.45099   0.09278   0.39108   0.00000  Uiso   1.00
H105   H     0.54038   0.00372   0.21411   0.00000  Uiso   1.00
H106   H     0.44302   0.32472   0.04081   0.00000  Uiso   1.00
H107   H     0.66232   0.24641   0.18447   0.00000  Uiso   1.00
H108   H     0.34377   0.19518   0.16103   0.00000  Uiso   1.00
H109   H     0.38377   0.23870   0.16504   0.00000  Uiso   1.00
H110   H     0.38107   0.25719   0.45736   0.00000  Uiso   1.00
H111   H     0.38940   0.21697   0.41034   0.00000  Uiso   1.00
H112   H     0.39473   0.27061   0.40003   0.00000  Uiso   1.00
H113   H     0.41655   0.14280   0.05876   0.00000  Uiso   1.00
H114   H     0.38006   0.18172   0.06942   0.00000  Uiso   1.00
H115   H     0.40468   0.17134   0.11264   0.00000  Uiso   1.00
H116   H     0.48471   0.30326   0.49849   0.00000  Uiso   1.00
H117   H     0.46945   0.28616   0.05554   0.00000  Uiso   1.00
O118   O     0.50000   0.16667   0.25000   0.00000  Uiso   1.00
O119   O     0.48784   0.12637   0.15459   0.00000  Uiso   1.00
O120   O     0.46274   0.20391   0.34968   0.00000  Uiso   1.00
O121   O     0.54157   0.17759   0.14606   0.00000  Uiso   1.00
O122   O     0.50785   0.15880   0.34968   0.00000  Uiso   1.00
O123   O     0.44435   0.25500   0.42161   0.00000  Uiso   1.00
O124   O     0.44364   0.20590   0.06304   0.00000  Uiso   1.00
O125   O     0.42637   0.26505   0.01528   0.00000  Uiso   1.00
O126   O     0.35314   0.21644   0.22633   0.00000  Uiso   1.00
O127   O     0.51264   0.08019   0.28214   0.00000  Uiso   1.00
O128   O     0.47965   0.26085   0.27014   0.00000  Uiso   1.00
O129   O     0.40745   0.13291   0.23413   0.00000  Uiso   1.00
O130   O     0.60026   0.19272   0.21361   0.00000  Uiso   1.00
O131   O     0.40405   0.18878   0.28213   0.00000  Uiso   1.00
O132   O     0.58824   0.15226   0.27014   0.00000  Uiso   1.00
O133   O     0.47093   0.06944   0.23413   0.00000  Uiso   1.00
O134   O     0.53678   0.25620   0.21361   0.00000  Uiso   1.00
Zn135  Zn    0.52672   0.13994   0.28734   0.00000  Uiso   1.00
Zn136  Zn    0.46713   0.12458   0.21876   0.00000  Uiso   1.00
Zn137  Zn    0.54389   0.19775   0.20657   0.00000  Uiso   1.00
Zn138  Zn    0.46226   0.20439   0.28734   0.00000  Uiso   1.00
C139   C     0.71951   0.15904   0.25983   0.00000  Uiso   1.00
C140   C     0.84998   0.16392   0.05286   0.00000  Uiso   1.00
C141   C     0.86681   0.09654   0.06195   0.00000  Uiso   1.00
C142   C     0.94745   0.17433   0.24067   0.00000  Uiso   1.00
C143   C     0.80311   0.18866   0.42179   0.00000  Uiso   1.00
C144   C     0.99298   0.18063   0.24102   0.00000  Uiso   1.00
C145   C     0.67474   0.15415   0.26176   0.00000  Uiso   1.00
C146   C     0.84637   0.32239   0.23793   0.00000  Uiso   1.00
C147   C     0.81730   0.01225   0.26405   0.00000  Uiso   1.00
C148   C     0.82338   0.05585   0.25938   0.00000  Uiso   1.00
C149   C     0.84299   0.27781   0.24036   0.00000  Uiso   1.00
C150   C     0.77932   0.23142   0.49237   0.00000  Uiso   1.00
C151   C     0.85172   0.14778   0.12897   0.00000  Uiso   1.00
C152   C     0.81426   0.18380   0.37139   0.00000  Uiso   1.00
C153   C     0.86324   0.08274   0.01765   0.00000  Uiso   1.00
C154   C     0.85895   0.13691   0.07996   0.00000  Uiso   1.00
C155   C     0.78599   0.22485   0.44508   0.00000  Uiso   1.00
C156   C     0.73376   0.24927   0.42277   0.00000  Uiso   1.00
C157   C     0.74311   0.17395   0.07588   0.00000  Uiso   1.00
C158   C     0.79095   0.29579   0.02789   0.00000  Uiso   1.00
C159   C     0.68514   0.22398   0.18235   0.00000  Uiso   1.00
C160   C     0.79080   0.20295   0.01628   0.00000  Uiso   1.00
C161   C     0.81437   0.17082   0.49234   0.00000  Uiso   1.00
C162   C     0.81170   0.15879   0.44731   0.00000  Uiso   1.00
C163   C     0.83579   0.14741   0.01346   0.00000  Uiso   1.00
C164   C     0.84337   0.10631   0.49464   0.00000  Uiso   1.00
C165   C     0.82873   0.09008   0.45521   0.00000  Uiso   1.00
C166   C     0.81315   0.11629   0.43169   0.00000  Uiso   1.00
Cl167  Cl    0.88318   0.06382   0.09452   0.00000  Uiso   1.00
Cl168  Cl    0.98048   0.10538   0.27900   0.00000  Uiso   1.00
Cl169  Cl    0.76995   0.32727   0.30305   0.00000  Uiso   1.00
Cl170  Cl    0.82331   0.03620   0.43740   0.00000  Uiso   1.00
Cl171  Cl    0.88809   0.03858   0.49169   0.00000  Uiso   1.00
Cl172  Cl    0.86319   0.21813   0.06550   0.00000  Uiso   1.00
Cl173  Cl    0.78432   0.09278   0.39108   0.00000  Uiso   1.00
H174   H     0.87371   0.00372   0.21411   0.00000  Uiso   1.00
H175   H     0.77636   0.32472   0.04081   0.00000  Uiso   1.00
H176   H     0.99565   0.24641   0.18447   0.00000  Uiso   1.00
H177   H     0.67710   0.19518   0.16103   0.00000  Uiso   1.00
H178   H     0.71710   0.23870   0.16504   0.00000  Uiso   1.00
H179   H     0.71440   0.25719   0.45736   0.00000  Uiso   1.00
H180   H     0.72273   0.21697   0.41034   0.00000  Uiso   1.00
H181   H     0.72807   0.27061   0.40003   0.00000  Uiso   1.00
H182   H     0.74988   0.14280   0.05876   0.00000  Uiso   1.00
H183   H     0.71339   0.18172   0.06942   0.00000  Uiso   1.00
H184   H     0.73801   0.17134   0.11264   0.00000  Uiso   1.00
H185   H     0.81804   0.30326   0.49849   0.00000  Uiso   1.00
H186   H     0.80279   0.28616   0.05554   0.00000  Uiso   1.00
O187   O     0.83333   0.16667   0.25000   0.00000  Uiso   1.00
O188   O     0.82118   0.12637   0.15459   0.00000  Uiso   1.00
O189   O     0.79607   0.20391   0.34968   0.00000  Uiso   1.00
O190   O     0.87491   0.17759   0.14606   0.00000  Uiso   1.00
O191   O     0.84118   0.15880   0.34968   0.00000  Uiso   1.00
O192   O     0.77768   0.25500   0.42161   0.00000  Uiso   1.00
O193   O     0.77698   0.20590   0.06304   0.00000  Uiso   1.00
O194   O     0.75970   0.26505   0.01528   0.00000  Uiso   1.00
O195   O     0.68647   0.21644   0.22633   0.00000  Uiso   1.00
O196   O     0.84597   0.08019   0.28214   0.00000  Uiso   1.00
O197   O     0.81298   0.26085   0.27014   0.00000  Uiso   1.00
O198   O     0.74078   0.13291   0.23413   0.00000  Uiso   1.00
O199   O     0.93360   0.19272   0.21361   0.00000  Uiso   1.00
O200   O     0.73738   0.18878   0.28213   0.00000  Uiso   1.00
O201   O     0.92158   0.15226   0.27014   0.00000  Uiso   1.00
O202   O     0.80426   0.06944   0.23413   0.00000  Uiso   1.00
O203   O     0.87012   0.25620   0.21361   0.00000  Uiso   1.00
Zn204  Zn    0.86005   0.13994   0.28734   0.00000  Uiso   1.00
Zn205  Zn    0.80046   0.12458   0.21876   0.00000  Uiso   1.00
Zn206  Zn    0.87723   0.19775   0.20657   0.00000  Uiso   1.00
Zn207  Zn    0.79560   0.20439   0.28734   0.00000  Uiso   1.00
C208   C     0.05284   0.49237   0.25983   0.00000  Uiso   1.00
C209   C     0.18331   0.49726   0.05286   0.00000  Uiso   1.00
C210   C     0.20014   0.42987   0.06195   0.00000  Uiso   1.00
C211   C     0.28078   0.50766   0.24067   0.00000  Uiso   1.00
C212   C     0.13644   0.52200   0.42179   0.00000  Uiso   1.00
C213   C     0.32632   0.51396   0.24102   0.00000  Uiso   1.00
C214   C     0.00807   0.48748   0.26176   0.00000  Uiso   1.00
C215   C     0.17970   0.65572   0.23793   0.00000  Uiso   1.00
C216   C     0.15063   0.34558   0.26405   0.00000  Uiso   1.00
C217   C     0.15671   0.38918   0.25938   0.00000  Uiso   1.00
C218   C     0.17633   0.61114   0.24036   0.00000  Uiso   1.00
C219   C     0.11265   0.56476   0.49237   0.00000  Uiso   1.00
C220   C     0.18506   0.48111   0.12897   0.00000  Uiso   1.00
C221   C     0.14760   0.51714   0.37139   0.00000  Uiso   1.00
C222   C     0.19657   0.41608   0.01765   0.00000  Uiso   1.00
C223   C     0.19228   0.47025   0.07996   0.00000  Uiso   1.00
C224   C     0.11932   0.55818   0.44508   0.00000  Uiso   1.00
C225   C     0.06710   0.58261   0.42277   0.00000  Uiso   1.00
C226   C     0.07645   0.50728   0.07588   0.00000  Uiso   1.00
C227   C     0.12428   0.62912   0.02789   0.00000  Uiso   1.00
C228   C     0.01848   0.55732   0.18235   0.00000  Uiso   1.00
C229   C     0.12414   0.53629   0.01628   0.00000  Uiso   1.00
C230   C     0.14770   0.50415   0.49234   0.00000  Uiso   1.00
C231   C     0.14503   0.49212   0.44731   0.00000  Uiso   1.00
C232   C     0.16912   0.48074   0.01346   0.00000  Uiso   1.00
C233   C     0.17671   0.43964   0.49464   0.00000  Uiso   1.00
C234   C     0.16206   0.42341   0.45521   0.00000  Uiso   1.00
C235   C     0.14648   0.44963   0.43169   0.00000  Uiso   1.00
Cl236  Cl    0.21651   0.39716   0.09452   0.00000  Uiso   1.00
Cl237  Cl    0.31382   0.43871   0.27900   0.00000  Uiso   1.00
Cl238  Cl    0.10328   0.66061   0.30305   0.00000  Uiso   1.00
Cl239  Cl    0.15664   0.36953   0.43740   0.00000  Uiso   1.00
Cl240  Cl    0.22142   0.37191   0.49169   0.00000  Uiso   1.00
Cl241  Cl    0.19652   0.55146   0.06550   0.00000  Uiso   1.00
Cl242  Cl    0.11765   0.42611   0.39108   0.00000  Uiso   1.00
H243   H     0.20705   0.33705   0.21411   0.00000  Uiso   1.00
H244   H     0.10969   0.65805   0.04081   0.00000  Uiso   1.00
H245   H     0.32899   0.57975   0.18447   0.00000  Uiso   1.00
H246   H     0.01043   0.52851   0.16103   0.00000  Uiso   1.00
H247   H     0.05043   0.57204   0.16504   0.00000  Uiso   1.00
H248   H     0.04773   0.59052   0.45736   0.00000  Uiso   1.00
H249   H     0.05607   0.55030   0.41034   0.00000  Uiso   1.00
H250   H     0.06140   0.60394   0.40003   0.00000  Uiso   1.00
H251   H     0.08322   0.47614   0.05876   0.00000  Uiso   1.00
H252   H     0.04673   0.51505   0.06942   0.00000  Uiso   1.00
H253   H     0.07134   0.50468   0.11264   0.00000  Uiso   1.00
H254   H     0.15138   0.63659   0.49849   0.00000  Uiso   1.00
H255   H     0.13612   0.61949   0.05554   0.00000  Uiso   1.00
O256   O     0.16667   0.50000   0.25000   0.00000  Uiso   1.00
O257   O     0.15451   0.45970   0.15459   0.00000  Uiso   1.00
O258   O     0.12940   0.53724   0.34968   0.00000  Uiso   1.00
O259   O     0.20824   0.51092   0.14606   0.00000  Uiso   1.00
O260   O     0.17451   0.49213   0.34968   0.00000  Uiso   1.00
O261   O     0.11102   0.58833   0.42161   0.00000  Uiso   1.00
O262   O     0.11031   0.53923   0.06304   0.00000  Uiso   1.00
O263   O     0.09303   0.59838   0.01528   0.00000  Uiso   1.00
O264   O     0.01980   0.54978   0.22633   0.00000  Uiso   1.00
O265   O     0.17930   0.41352   0.28214   0.00000  Uiso   1.00
O266   O     0.14632   0.59418   0.27014   0.00000  Uiso   1.00
O267   O     0.07412   0.46625   0.23413   0.00000  Uiso   1.00
O268   O     0.26693   0.52605   0.21361   0.00000  Uiso   1.00
O269   O     0.07071   0.52211   0.28213   0.00000  Uiso   1.00
O270   O     0.25491   0.48559   0.27014   0.00000  Uiso   1.00
O271   O     0.13760   0.40277   0.23413   0.00000  Uiso   1.00
O272   O     0.20345   0.58953   0.21361   0.00000  Uiso   1.00
Zn273  Zn    0.19338   0.47327   0.28734   0.00000  Uiso   1.00
Zn274  Zn    0.13379   0.45791   0.21876   0.00000  Uiso   1.00
Zn275  Zn    0.21056   0.53109   0.20657   0.00000  Uiso   1.00
Zn276  Zn    0.12893   0.53773   0.28734   0.00000  Uiso   1.00
C277   C     0.38617   0.49237   0.25983   0.00000  Uiso   1.00
C278   C     0.51664   0.49726   0.05286   0.00000  Uiso   1.00
C279   C     0.53347   0.42987   0.06195   0.00000  Uiso   1.00
C280   C     0.61412   0.50766   0.24067   0.00000  Uiso   1.00
C281   C     0.46977   0.52200   0.42179   0.00000  Uiso   1.00
C282   C     0.65965   0.51396   0.24102   0.00000  Uiso   1.00
C283   C     0.34141   0.48748   0.26176   0.00000  Uiso   1.00
C284   C     0.51304   0.65572   0.23793   0.00000  Uiso   1.00
C285   C     0.48397   0.34558   0.26405   0.00000  Uiso   1.00
C286   C     0.49005   0.38918   0.25938   0.00000  Uiso   1.00
C287   C     0.50966   0.61114   0.24036   0.00000  Uiso   1.00
C288   C     0.44598   0.56476   0.49237   0.00000  Uiso   1.00
C289   C     0.51839   0.48111   0.12897   0.00000  Uiso   1.00
C290   C     0.48093   0.51714   0.37139   0.00000  Uiso   1.00
C291   C     0.52990   0.41608   0.01765   0.00000  Uiso   1.00
C292   C     0.52561   0.47025   0.07996   0.00000  Uiso   1.00
C293   C     0.45265   0.55818   0.44508   0.00000  Uiso   1.00
C294   C     0.40043   0.58261   0.42277   0.00000  Uiso   1.00
C295   C     0.40978   0.50728   0.07588   0.00000  Uiso   1.00
C296   C     0.45762   0.62912   0.02789   0.00000  Uiso   1.00
C297   C     0.35181   0.55732   0.18235   0.00000  Uiso   1.00
C298   C     0.45747   0.53629   0.01628   0.00000  Uiso   1.00
C299   C     0.48104   0.50415   0.49234   0.00000  Uiso   1.00
C300   C     0.47837   0.49212   0.44731   0.00000  Uiso   1.00
C301   C     0.50246   0.48074   0.01346   0.00000  Uiso   1.00
C302   C     0.51004   0.43964   0.49464   0.00000  Uiso   1.00
C303   C     0.49540   0.42341   0.45521   0.00000  Uiso   1.00
C304   C     0.47982   0.44963   0.43169   0.00000  Uiso   1.00
Cl305  Cl    0.54984   0.39716   0.09452   0.00000  Uiso   1.00
Cl306  Cl    0.64715   0.43871   0.27900   0.00000  Uiso   1.00
Cl307  Cl    0.43661   0.66061   0.30305   0.00000  Uiso   1.00
Cl308  Cl    0.48998   0.36953   0.43740   0.00000  Uiso   1.00
Cl309  Cl    0.55476   0.37191   0.49169   0.00000  Uiso   1.00
Cl310  Cl    0.52985   0.55146   0.06550   0.00000  Uiso   1.00
Cl311  Cl    0.45099   0.42611   0.39108   0.00000  Uiso   1.00
H312   H     0.54038   0.33705   0.21411   0.00000  Uiso   1.00
H313   H     0.44302   0.65805   0.04081   0.00000  Uiso   1.00
H314   H     0.66232   0.57975   0.18447   0.00000  Uiso   1.00
H315   H     0.34377   0.52851   0.16103   0.00000  Uiso   1.00
H316   H     0.38377   0.57204   0.16504   0.00000  Uiso   1.00
H317   H     0.38107   0.59052   0.45736   0.00000  Uiso   1.00
H318   H     0.38940   0.55030   0.41034   0.00000  Uiso   1.00
H319   H     0.39473   0.60394   0.40003   0.00000  Uiso   1.00
H320   H     0.41655   0.47614   0.05876   0.00000  Uiso   1.00
H321   H     0.38006   0.51505   0.06942   0.00000  Uiso   1.00
H322   H     0.40468   0.50468   0.11264   0.00000  Uiso   1.00
H323   H     0.48471   0.63659   0.49849   0.00000  Uiso   1.00
H324   H     0.46945   0.61949   0.05554   0.00000  Uiso   1.00
O325   O     0.50000   0.50000   0.25000   0.00000  Uiso   1.00
O326   O     0.48784   0.45970   0.15459   0.00000  Uiso   1.00
O327   O     0.46274   0.53724   0.34968   0.00000  Uiso   1.00
O328   O     0.54157   0.51092   0.14606   0.00000  Uiso   1.00
O329   O     0.50785   0.49213   0.34968   0.00000  Uiso   1.00
O330   O     0.44435   0.58833   0.42161   0.00000  Uiso   1.00
O331   O     0.44364   0.53923   0.06304   0.00000  Uiso   1.00
O332   O     0.42637   0.59838   0.01528   0.00000  Uiso   1.00
O333   O     0.35314   0.54978   0.22633   0.00000  Uiso   1.00
O334   O     0.51264   0.41352   0.28214   0.00000  Uiso   1.00
O335   O     0.47965   0.59418   0.27014   0.00000  Uiso   1.00
O336   O     0.40745   0.46625   0.23413   0.00000  Uiso   1.00
O337   O     0.60026   0.52605   0.21361   0.00000  Uiso   1.00
O338   O     0.40405   0.52211   0.28213   0.00000  Uiso   1.00
O339   O     0.58824   0.48559   0.27014   0.00000  Uiso   1.00
O340   O     0.47093   0.40277   0.23413   0.00000  Uiso   1.00
O341   O     0.53678   0.58953   0.21361   0.00000  Uiso   1.00
Zn342  Zn    0.52672   0.47327   0.28734   0.00000  Uiso   1.00
Zn343  Zn    0.46713   0.45791   0.21876   0.00000  Uiso   1.00
Zn344  Zn    0.54389   0.53109   0.20657   0.00000  Uiso   1.00
Zn345  Zn    0.46226   0.53773   0.28734   0.00000  Uiso   1.00
C346   C     0.71951   0.49237   0.25983   0.00000  Uiso   1.00
C347   C     0.84998   0.49726   0.05286   0.00000  Uiso   1.00
C348   C     0.86681   0.42987   0.06195   0.00000  Uiso   1.00
C349   C     0.94745   0.50766   0.24067   0.00000  Uiso   1.00
C350   C     0.80311   0.52200   0.42179   0.00000  Uiso   1.00
C351   C     0.99298   0.51396   0.24102   0.00000  Uiso   1.00
C352   C     0.67474   0.48748   0.26176   0.00000  Uiso   1.00
C353   C     0.84637   0.65572   0.23793   0.00000  Uiso   1.00
C354   C     0.81730   0.34558   0.26405   0.00000  Uiso   1.00
C355   C     0.82338   0.38918   0.25938   0.00000  Uiso   1.00
C356   C     0.84299   0.61114   0.24036   0.00000  Uiso   1.00
C357   C     0.77932   0.56476   0.49237   0.00000  Uiso   1.00
C358   C     0.85172   0.48111   0.12897   0.00000  Uiso   1.00
C359   C     0.81426   0.51714   0.37139   0.00000  Uiso   1.00
C360   C     0.86324   0.41608   0.01765   0.00000  Uiso   1.00
C361   C     0.85895   0.47025   0.07996   0.00000  Uiso   1.00
C362   C     0.78599   0.55818   0.44508   0.00000  Uiso   1.00
C363   C     0.73376   0.58261   0.42277   0.00000  Uiso   1.00
C364   C     0.74311   0.50728   0.07588   0.00000  Uiso   1.00
C365   C     0.79095   0.62912   0.02789   0.00000  Uiso   1.00
C366   C     0.68514   0.55732   0.18235   0.00000  Uiso   1.00
C367   C     0.79080   0.53629   0.01628   0.00000  Uiso   1.00
C368   C     0.81437   0.50415   0.49234   0.00000  Uiso   1.00
C369   C     0.81170   0.49212   0.44731   0.00000  Uiso   1.00
C370   C     0.83579   0.48074   0.01346   0.00000  Uiso   1.00
C371   C     0.84337   0.43964   0.49464   0.00000  Uiso   1.00
C372   C     0.82873   0.42341   0.45521   0.00000  Uiso   1.00
C373   C     0.81315   0.44963   0.43169   0.00000  Uiso   1.00
Cl374  Cl    0.88318   0.39716   0.09452   0.00000  Uiso   1.00
Cl375  Cl    0.98048   0.43871   0.27900   0.00000  Uiso   1.00
Cl376  Cl    0.76995   0.66061   0.30305   0.00000  Uiso   1.00
Cl377  Cl    0.82331   0.36953   0.43740   0.00000  Uiso   1.00
Cl378  Cl    0.88809   0.37191   0.49169   0.00000  Uiso   1.00
Cl379  Cl    0.86319   0.55146   0.06550   0.00000  Uiso   1.00
Cl380  Cl    0.78432   0.42611   0.39108   0.00000  Uiso   1.00
H381   H     0.87371   0.33705   0.21411   0.00000  Uiso   1.00
H382   H     0.77636   0.65805   0.04081   0.00000  Uiso   1.00
H383   H     0.99565   0.57975   0.18447   0.00000  Uiso   1.00
H384   H     0.67710   0.52851   0.16103   0.00000  Uiso   1.00
H385   H     0.71710   0.57204   0.16504   0.00000  Uiso   1.00
H386   H     0.71440   0.59052   0.45736   0.00000  Uiso   1.00
H387   H     0.72273   0.55030   0.41034   0.00000  Uiso   1.00
H388   H     0.72807   0.60394   0.40003   0.00000  Uiso   1.00
H389   H     0.74988   0.47614   0.05876   0.00000  Uiso   1.00
H390   H     0.71339   0.51505   0.06942   0.00000  Uiso   1.00
H391   H     0.73801   0.50468   0.11264   0.00000  Uiso   1.00
H392   H     0.81804   0.63659   0.49849   0.00000  Uiso   1.00
H393   H     0.80279   0.61949   0.05554   0.00000  Uiso   1.00
O394   O     0.83333   0.50000   0.25000   0.00000  Uiso   1.00
O395   O     0.82118   0.45970   0.15459   0.00000  Uiso   1.00
O396   O     0.79607   0.53724   0.34968   0.00000  Uiso   1.00
O397   O     0.87491   0.51092   0.14606   0.00000  Uiso   1.00
O398   O     0.84118   0.49213   0.34968   0.00000  Uiso   1.00
O399   O     0.77768   0.58833   0.42161   0.00000  Uiso   1.00
O400   O     0.77698   0.53923   0.06304   0.00000  Uiso   1.00
O401   O     0.75970   0.59838   0.01528   0.00000  Uiso   1.00
O402   O     0.68647   0.54978   0.22633   0.00000  Uiso   1.00
O403   O     0.84597   0.41352   0.28214   0.00000  Uiso   1.00
O404   O     0.81298   0.59418   0.27014   0.00000  Uiso   1.00
O405   O     0.74078   0.46625   0.23413   0.00000  Uiso   1.00
O406   O     0.93360   0.52605   0.21361   0.00000  Uiso   1.00
O407   O     0.73738   0.52211   0.28213   0.00000  Uiso   1.00
O408   O     0.92158   0.48559   0.27014   0.00000  Uiso   1.00
O409   O     0.80426   0.40277   0.23413   0.00000  Uiso   1.00
O410   O     0.87012   0.58953   0.21361   0.00000  Uiso   1.00
Zn411  Zn    0.86005   0.47327   0.28734   0.00000  Uiso   1.00
Zn412  Zn    0.80046   0.45791   0.21876   0.00000  Uiso   1.00
Zn413  Zn    0.87723   0.53109   0.20657   0.00000  Uiso   1.00
Zn414  Zn    0.79560   0.53773   0.28734   0.00000  Uiso   1.00
C415   C     0.05284   0.82570   0.25983   0.00000  Uiso   1.00
C416   C     0.18331   0.83059   0.05286   0.00000  Uiso   1.00
C417   C     0.20014   0.76321   0.06195   0.00000  Uiso   1.00
C418   C     0.28078   0.84099   0.24067   0.00000  Uiso   1.00
C419   C     0.13644   0.85533   0.42179   0.00000  Uiso   1.00
C420   C     0.32632   0.84730   0.24102   0.00000  Uiso   1.00
C421   C     0.00807   0.82081   0.26176   0.00000  Uiso   1.00
C422   C     0.17970   0.98905   0.23793   0.00000  Uiso   1.00
C423   C     0.15063   0.67892   0.26405   0.00000  Uiso   1.00
C424   C     0.15671   0.72252   0.25938   0.00000  Uiso   1.00
C425   C     0.17633   0.94448   0.24036   0.00000  Uiso   1.00
C426   C     0.11265   0.89809   0.49237   0.00000  Uiso   1.00
C427   C     0.18506   0.81444   0.12897   0.00000  Uiso   1.00
C428   C     0.14760   0.85047   0.37139   0.00000  Uiso   1.00
C429   C     0.19657   0.74941   0.01765   0.00000  Uiso   1.00
C430   C     0.19228   0.80358   0.07996   0.00000  Uiso   1.00
C431   C     0.11932   0.89152   0.44508   0.00000  Uiso   1.00
C432   C     0.06710   0.91594   0.42277   0.00000  Uiso   1.00
C433   C     0.07645   0.84061   0.07588   0.00000  Uiso   1.00
C434   C     0.12428   0.96245   0.02789   0.00000  Uiso   1.00
C435   C     0.01848   0.89065   0.18235   0.00000  Uiso   1.00
C436   C     0.12414   0.86962   0.01628   0.00000  Uiso   1.00
C437   C     0.14770   0.83748   0.49234   0.00000  Uiso   1.00
C438   C     0.14503   0.82546   0.44731   0.00000  Uiso   1.00
C439   C     0.16912   0.81408   0.01346   0.00000  Uiso   1.00
C440   C     0.17671   0.77298   0.49464   0.00000  Uiso   1.00
C441   C     0.16206   0.75675   0.45521   0.00000  Uiso   1.00
C442   C     0.14648   0.78296   0.43169   0.00000  Uiso   1.00
Cl443  Cl    0.21651   0.73049   0.09452   0.00000  Uiso   1.00
Cl444  Cl    0.31382   0.77204   0.27900   0.00000  Uiso   1.00
Cl445  Cl    0.10328   0.99394   0.30305   0.00000  Uiso   1.00
Cl446  Cl    0.15664   0.70287   0.43740   0.00000  Uiso   1.00
Cl447  Cl    0.22142   0.70524   0.49169   0.00000  Uiso   1.00
Cl448  Cl    0.19652   0.88480   0.06550   0.00000  Uiso   1.00
Cl449  Cl    0.11765   0.75945   0.39108   0.00000  Uiso   1.00
H450   H     0.20705   0.67038   0.21411   0.00000  Uiso   1.00
H451   H     0.10969   0.99138   0.04081   0.00000  Uiso   1.00
H452   H     0.32899   0.91308   0.18447   0.00000  Uiso   1.00
H453   H     0.01043   0.86184   0.16103   0.00000  Uiso   1.00
H454   H     0.05043   0.90537   0.16504   0.00000  Uiso   1.00
H455   H     0.04773   0.92385   0.45736   0.00000  Uiso   1.00
H456   H     0.05607   0.88364   0.41034   0.00000  Uiso   1.00
H457   H     0.06140   0.93727   0.40003   0.00000  Uiso   1.00
H458   H     0.08322   0.80947   0.05876   0.00000  Uiso   1.00
H459   H     0.04673   0.84839   0.06942   0.00000  Uiso   1.00
H460   H     0.07134   0.83801   0.11264   0.00000  Uiso   1.00
H461   H     0.15138   0.96993   0.49849   0.00000  Uiso   1.00
H462   H     0.13612   0.95282   0.05554   0.00000  Uiso   1.00
O463   O     0.16667   0.83333   0.25000   0.00000  Uiso   1.00
O464   O     0.15451   0.79304   0.15459   0.00000  Uiso   1.00
O465   O     0.12940   0.87058   0.34968   0.00000  Uiso   1.00
O466   O     0.20824   0.84425   0.14606   0.00000  Uiso   1.00
O467   O     0.17451   0.82546   0.34968   0.00000  Uiso   1.00
O468   O     0.11102   0.92166   0.42161   0.00000  Uiso   1.00
O469   O     0.11031   0.87257   0.06304   0.00000  Uiso   1.00
O470   O     0.09303   0.93171   0.01528   0.00000  Uiso   1.00
O471   O     0.01980   0.88311   0.22633   0.00000  Uiso   1.00
O472   O     0.17930   0.74686   0.28214   0.00000  Uiso   1.00
O473   O     0.14632   0.92751   0.27014   0.00000  Uiso   1.00
O474   O     0.07412   0.79958   0.23413   0.00000  Uiso   1.00
O475   O     0.26693   0.85939   0.21361   0.00000  Uiso   1.00
O476   O     0.07071   0.85544   0.28213   0.00000  Uiso   1.00
O477   O     0.25491   0.81892   0.27014   0.00000  Uiso   1.00
O478   O     0.13760   0.73610   0.23413   0.00000  Uiso   1.00
O479   O     0.20345   0.92286   0.21361   0.00000  Uiso   1.00
Zn480  Zn    0.19338   0.80661   0.28734   0.00000  Uiso   1.00
Zn481  Zn    0.13379   0.79124   0.21876   0.00000  Uiso   1.00
Zn482  Zn    0.21056   0.86442   0.20657   0.00000  Uiso   1.00
Zn483  Zn    0.12893   0.87106   0.28734   0.00000  Uiso   1.00
C484   C     0.38617   0.82570   0.25983   0.00000  Uiso   1.00
C485   C     0.51664   0.83059   0.05286   0.00000  Uiso   1.00
C486   C     0.53347   0.76321   0.06195   0.00000  Uiso   1.00
C487   C     0.61412   0.84099   0.24067   0.00000  Uiso   1.00
C488   C     0.46977   0.85533   0.42179   0.00000  Uiso   1.00
C489   C     0.65965   0.84730   0.24102   0.00000  Uiso   1.00
C490   C     0.34141   0.82081   0.26176   0.00000  Uiso   1.00
C491   C     0.51304   0.98905   0.23793   0.00000  Uiso   1.00
C492   C     0.48397   0.67892   0.26405   0.00000  Uiso   1.00
C493   C     0.49005   0.72252   0.25938   0.00000  Uiso   1.00
C494   C     0.50966   0.94448   0.24036   0.00000  Uiso   1.00
C495   C     0.44598   0.89809   0.49237   0.00000  Uiso   1.00
C496   C     0.51839   0.81444   0.12897   0.00000  Uiso   1.00
C497   C     0.48093   0.85047   0.37139   0.00000  Uiso   1.00
C498   C     0.52990   0.74941   0.01765   0.00000  Uiso   1.00
C499   C     0.52561   0.80358   0.07996   0.00000  Uiso   1.00
C500   C     0.45265   0.89152   0.44508   0.00000  Uiso   1.00
C501   C     0.40043   0.91594   0.42277   0.00000  Uiso   1.00
C502   C     0.40978   0.84061   0.07588   0.00000  Uiso   1.00
C503   C     0.45762   0.96245   0.02789   0.00000  Uiso   1.00
C504   C     0.35181   0.89065   0.18235   0.00000  Uiso   1.00
C505   C     0.45747   0.86962   0.01628   0.00000  Uiso   1.00
C506   C     0.48104   0.83748   0.49234   0.00000  Uiso   1.00
C507   C     0.47837   0.82546   0.44731   0.00000  Uiso   1.00
C508   C     0.50246   0.81408   0.01346   0.00000  Uiso   1.00
C509   C     0.51004   0.77298   0.49464   0.00000  Uiso   1.00
C510   C     0.49540   0.75675   0.45521   0.00000  Uiso   1.00
C511   C     0.47982   0.78296   0.43169   0.00000  Uiso   1.00
Cl512  Cl    0.54984   0.73049   0.09452   0.00000  Uiso   1.00
Cl513  Cl    0.64715   0.77204   0.27900   0.00000  Uiso   1.00
Cl514  Cl    0.43661   0.99394   0.30305   0.00000  Uiso   1.00
Cl515  Cl    0.48998   0.70287   0.43740   0.00000  Uiso   1.00
Cl516  Cl    0.55476   0.70524   0.49169   0.00000  Uiso   1.00
Cl517  Cl    0.52985   0.88480   0.06550   0.00000  Uiso   1.00
Cl518  Cl    0.45099   0.75945   0.39108   0.00000  Uiso   1.00
H519   H     0.54038   0.67038   0.21411   0.00000  Uiso   1.00
H520   H     0.44302   0.99138   0.04081   0.00000  Uiso   1.00
H521   H     0.66232   0.91308   0.18447   0.00000  Uiso   1.00
H522   H     0.34377   0.86184   0.16103   0.00000  Uiso   1.00
H523   H     0.38377   0.90537   0.16504   0.00000  Uiso   1.00
H524   H     0.38107   0.92385   0.45736   0.00000  Uiso   1.00
H525   H     0.38940   0.88364   0.41034   0.00000  Uiso   1.00
H526   H     0.39473   0.93727   0.40003   0.00000  Uiso   1.00
H527   H     0.41655   0.80947   0.05876   0.00000  Uiso   1.00
H528   H     0.38006   0.84839   0.06942   0.00000  Uiso   1.00
H529   H     0.40468   0.83801   0.11264   0.00000  Uiso   1.00
H530   H     0.48471   0.96993   0.49849   0.00000  Uiso   1.00
H531   H     0.46945   0.95282   0.05554   0.00000  Uiso   1.00
O532   O     0.50000   0.83333   0.25000   0.00000  Uiso   1.00
O533   O     0.48784   0.79304   0.15459   0.00000  Uiso   1.00
O534   O     0.46274   0.87058   0.34968   0.00000  Uiso   1.00
O535   O     0.54157   0.84425   0.14606   0.00000  Uiso   1.00
O536   O     0.50785   0.82546   0.34968   0.00000  Uiso   1.00
O537   O     0.44435   0.92166   0.42161   0.00000  Uiso   1.00
O538   O     0.44364   0.87257   0.06304   0.00000  Uiso   1.00
O539   O     0.42637   0.93171   0.01528   0.00000  Uiso   1.00
O540   O     0.35314   0.88311   0.22633   0.00000  Uiso   1.00
O541   O     0.51264   0.74686   0.28214   0.00000  Uiso   1.00
O542   O     0.47965   0.92751   0.27014   0.00000  Uiso   1.00
O543   O     0.40745   0.79958   0.23413   0.00000  Uiso   1.00
O544   O     0.60026   0.85939   0.21361   0.00000  Uiso   1.00
O545   O     0.40405   0.85544   0.28213   0.00000  Uiso   1.00
O546   O     0.58824   0.81892   0.27014   0.00000  Uiso   1.00
O547   O     0.47093   0.73610   0.23413   0.00000  Uiso   1.00
O548   O     0.53678   0.92286   0.21361   0.00000  Uiso   1.00
Zn549  Zn    0.52672   0.80661   0.28734   0.00000  Uiso   1.00
Zn550  Zn    0.46713   0.79124   0.21876   0.00000  Uiso   1.00
Zn551  Zn    0.54389   0.86442   0.20657   0.00000  Uiso   1.00
Zn552  Zn    0.46226   0.87106   0.28734   0.00000  Uiso   1.00
C553   C     0.71951   0.82570   0.25983   0.00000  Uiso   1.00
C554   C     0.84998   0.83059   0.05286   0.00000  Uiso   1.00
C555   C     0.86681   0.76321   0.06195   0.00000  Uiso   1.00
C556   C     0.94745   0.84099   0.24067   0.00000  Uiso   1.00
C557   C     0.80311   0.85533   0.42179   0.00000  Uiso   1.00
C558   C     0.99298   0.84730   0.24102   0.00000  Uiso   1.00
C559   C     0.67474   0.82081   0.26176   0.00000  Uiso   1.00
C560   C     0.84637   0.98905   0.23793   0.00000  Uiso   1.00
C561   C     0.81730   0.67892   0.26405   0.00000  Uiso   1.00
C562   C     0.82338   0.72252   0.25938   0.00000  Uiso   1.00
C563   C     0.84299   0.94448   0.24036   0.00000  Uiso   1.00
C564   C     0.77932   0.89809   0.49237   0.00000  Uiso   1.00
C565   C     0.85172   0.81444   0.12897   0.00000  Uiso   1.00
C566   C     0.81426   0.85047   0.37139   0.00000  Uiso   1.00
C567   C     0.86324   0.74941   0.01765   0.00000  Uiso   1.00
C568   C     0.85895   0.80358   0.07996   0.00000  Uiso   1.00
C569   C     0.78599   0.89152   0.44508   0.00000  Uiso   1.00
C570   C     0.73376   0.91594   0.42277   0.00000  Uiso   1.00
C571   C     0.74311   0.84061   0.07588   0.00000  Uiso   1.00
C572   C     0.79095   0.96245   0.02789   0.00000  Uiso   1.00
C573   C     0.68514   0.89065   0.18235   0.00000  Uiso   1.00
C574   C     0.79080   0.86962   0.01628   0.00000  Uiso   1.00
C575   C     0.81437   0.83748   0.49234   0.00000  Uiso   1.00
C576   C     0.81170   0.82546   0.44731   0.00000  Uiso   1.00
C577   C     0.83579   0.81408   0.01346   0.00000  Uiso   1.00
C578   C     0.84337   0.77298   0.49464   0.00000  Uiso   1.00
C579   C     0.82873   0.75675   0.45521   0.00000  Uiso   1.00
C580   C     0.81315   0.78296   0.43169   0.00000  Uiso   1.00
Cl581  Cl    0.88318   0.73049   0.09452   0.00000  Uiso   1.00
Cl582  Cl    0.98048   0.77204   0.27900   0.00000  Uiso   1.00
Cl583  Cl    0.76995   0.99394   0.30305   0.00000  Uiso   1.00
Cl584  Cl    0.82331   0.70287   0.43740   0.00000  Uiso   1.00
Cl585  Cl    0.88809   0.70524   0.49169   0.00000  Uiso   1.00
Cl586  Cl    0.86319   0.88480   0.06550   0.00000  Uiso   1.00
Cl587  Cl    0.78432   0.75945   0.39108   0.00000  Uiso   1.00
H588   H     0.87371   0.67038   0.21411   0.00000  Uiso   1.00
H589   H     0.77636   0.99138   0.04081   0.00000  Uiso   1.00
H590   H     0.99565   0.91308   0.18447   0.00000  Uiso   1.00
H591   H     0.67710   0.86184   0.16103   0.00000  Uiso   1.00
H592   H     0.71710   0.90537   0.16504   0.00000  Uiso   1.00
H593   H     0.71440   0.92385   0.45736   0.00000  Uiso   1.00
H594   H     0.72273   0.88364   0.41034   0.00000  Uiso   1.00
H595   H     0.72807   0.93727   0.40003   0.00000  Uiso   1.00
H596   H     0.74988   0.80947   0.05876   0.00000  Uiso   1.00
H597   H     0.71339   0.84839   0.06942   0.00000  Uiso   1.00
H598   H     0.73801   0.83801   0.11264   0.00000  Uiso   1.00
H599   H     0.81804   0.96993   0.49849   0.00000  Uiso   1.00
H600   H     0.80279   0.95282   0.05554   0.00000  Uiso   1.00
O601   O     0.83333   0.83333   0.25000   0.00000  Uiso   1.00
O602   O     0.82118   0.79304   0.15459   0.00000  Uiso   1.00
O603   O     0.79607   0.87058   0.34968   0.00000  Uiso   1.00
O604   O     0.87491   0.84425   0.14606   0.00000  Uiso   1.00
O605   O     0.84118   0.82546   0.34968   0.00000  Uiso   1.00
O606   O     0.77768   0.92166   0.42161   0.00000  Uiso   1.00
O607   O     0.77698   0.87257   0.06304   0.00000  Uiso   1.00
O608   O     0.75970   0.93171   0.01528   0.00000  Uiso   1.00
O609   O     0.68647   0.88311   0.22633   0.00000  Uiso   1.00
O610   O     0.84597   0.74686   0.28214   0.00000  Uiso   1.00
O611   O     0.81298   0.92751   0.27014   0.00000  Uiso   1.00
O612   O     0.74078   0.79958   0.23413   0.00000  Uiso   1.00
O613   O     0.93360   0.85939   0.21361   0.00000  Uiso   1.00
O614   O     0.73738   0.85544   0.28213   0.00000  Uiso   1.00
O615   O     0.92158   0.81892   0.27014   0.00000  Uiso   1.00
O616   O     0.80426   0.73610   0.23413   0.00000  Uiso   1.00
O617   O     0.87012   0.92286   0.21361   0.00000  Uiso   1.00
Zn618  Zn    0.86005   0.80661   0.28734   0.00000  Uiso   1.00
Zn619  Zn    0.80046   0.79124   0.21876   0.00000  Uiso   1.00
Zn620  Zn    0.87723   0.86442   0.20657   0.00000  Uiso   1.00
Zn621  Zn    0.79560   0.87106   0.28734   0.00000  Uiso   1.00
C622   C     0.05284   0.15904   0.75983   0.00000  Uiso   1.00
C623   C     0.18331   0.16392   0.55286   0.00000  Uiso   1.00
C624   C     0.20014   0.09654   0.56195   0.00000  Uiso   1.00
C625   C     0.28078   0.17433   0.74067   0.00000  Uiso   1.00
C626   C     0.13644   0.18866   0.92179   0.00000  Uiso   1.00
C627   C     0.32632   0.18063   0.74102   0.00000  Uiso   1.00
C628   C     0.00807   0.15415   0.76176   0.00000  Uiso   1.00
C629   C     0.17970   0.32239   0.73793   0.00000  Uiso   1.00
C630   C     0.15063   0.01225   0.76405   0.00000  Uiso   1.00
C631   C     0.15671   0.05585   0.75938   0.00000  Uiso   1.00
C632   C     0.17633   0.27781   0.74036   0.00000  Uiso   1.00
C633   C     0.11265   0.23142   0.99237   0.00000  Uiso   1.00
C634   C     0.18506   0.14778   0.62897   0.00000  Uiso   1.00
C635   C     0.14760   0.18380   0.87139   0.00000  Uiso   1.00
C636   C     0.19657   0.08274   0.51765   0.00000  Uiso   1.00
C637   C     0.19228   0.13691   0.57996   0.00000  Uiso   1.00
C638   C     0.11932   0.22485   0.94508   0.00000  Uiso   1.00
C639   C     0.06710   0.24927   0.92277   0.00000  Uiso   1.00
C640   C     0.07645   0.17395   0.57588   0.00000  Uiso   1.00
C641   C     0.12428   0.29579   0.52789   0.00000  Uiso   1.00
C642   C     0.01848   0.22398   0.68235   0.00000  Uiso   1.00
C643   C     0.12414   0.20295   0.51628   0.00000  Uiso   1.00
C644   C     0.14770   0.17082   0.99234   0.00000  Uiso   1.00
C645   C     0.14503   0.15879   0.94731   0.00000  Uiso   1.00
C646   C     0.16912   0.14741   0.51346   0.00000  Uiso   1.00
C647   C     0.17671   0.10631   0.99464   0.00000  Uiso   1.00
C648   C     0.16206   0.09008   0.95521   0.00000  Uiso   1.00
C649   C     0.14648   0.11629   0.93169   0.00000  Uiso   1.00
Cl650  Cl    0.21651   0.06382   0.59452   0.00000  Uiso   1.00
Cl651  Cl    0.31382   0.10538   0.77900   0.00000  Uiso   1.00
Cl652  Cl    0.10328   0.32727   0.80305   0.00000  Uiso   1.00
Cl653  Cl    0.15664   0.03620   0.93740   0.00000  Uiso   1.00
Cl654  Cl    0.22142   0.03858   0.99169   0.00000  Uiso   1.00
Cl655  Cl    0.19652   0.21813   0.56550   0.00000  Uiso   1.00
Cl656  Cl    0.11765   0.09278   0.89108   0.00000  Uiso   1.00
H657   H     0.20705   0.00372   0.71411   0.00000  Uiso   1.00
H658   H     0.10969   0.32472   0.54081   0.00000  Uiso   1.00
H659   H     0.32899   0.24641   0.68447   0.00000  Uiso   1.00
H660   H     0.01043   0.19518   0.66103   0.00000  Uiso   1.00
H661   H     0.05043   0.23870   0.66504   0.00000  Uiso   1.00
H662   H     0.04773   0.25719   0.95736   0.00000  Uiso   1.00
H663   H     0.05607   0.21697   0.91034   0.00000  Uiso   1.00
H664   H     0.06140   0.27061   0.90003   0.00000  Uiso   1.00
H665   H     0.08322   0.14280   0.55876   0.00000  Uiso   1.00
H666   H     0.04673   0.18172   0.56942   0.00000  Uiso   1.00
H667   H     0.07134   0.17134   0.61264   0.00000  Uiso   1.00
H668   H     0.15138   0.30326   0.99849   0.00000  Uiso   1.00
H669   H     0.13612   0.28616   0.55554   0.00000  Uiso   1.00
O670   O     0.16667   0.16667   0.75000   0.00000  Uiso   1.00
O671   O     0.15451   0.12637   0.65459   0.00000  Uiso   1.00
O672   O     0.12940   0.20391   0.84968   0.00000  Uiso   1.00
O673   O     0.20824   0.17759   0.64606   0.00000  Uiso   1.00
O674   O     0.17451   0.15880   0.84968   0.00000  Uiso   1.00
O675   O     0.11102   0.25500   0.92161   0.00000  Uiso   1.00
O676   O     0.11031   0.20590   0.56304   0.00000  Uiso   1.00
O677   O     0.09303   0.26505   0.51528   0.00000  Uiso   1.00
O678   O     0.01980   0.21644   0.72633   0.00000  Uiso   1.00
O679   O     0.17930   0.08019   0.78214   0.00000  Uiso   1.00
O680   O     0.14632   0.26085   0.77014   0.00000  Uiso   1.00
O681   O     0.07412   0.13291   0.73413   0.00000  Uiso   1.00
O682   O     0.26693   0.19272   0.71361   0.00000  Uiso   1.00
O683   O     0.07071   0.18878   0.78213   0.00000  Uiso   1.00
O684   O     0.25491   0.15226   0.77014   0.00000  Uiso   1.00
O685   O     0.13760   0.06944   0.73413   0.00000  Uiso   1.00
O686   O     0.20345   0.25620   0.71361   0.00000  Uiso   1.00
Zn687  Zn    0.19338   0.13994   0.78734   0.00000  Uiso   1.00
Zn688  Zn    0.13379   0.12458   0.71876   0.00000  Uiso   1.00
Zn689  Zn    0.21056   0.19775   0.70657   0.00000  Uiso   1.00
Zn690  Zn    0.12893   0.20439   0.78734   0.00000  Uiso   1.00
C691   C     0.38617   0.15904   0.75983   0.00000  Uiso   1.00
C692   C     0.51664   0.16392   0.55286   0.00000  Uiso   1.00
C693   C     0.53347   0.09654   0.56195   0.00000  Uiso   1.00
C694   C     0.61412   0.17433   0.74067   0.00000  Uiso   1.00
C695   C     0.46977   0.18866   0.92179   0.00000  Uiso   1.00
C696   C     0.65965   0.18063   0.74102   0.00000  Uiso   1.00
C697   C     0.34141   0.15415   0.76176   0.00000  Uiso   1.00
C698   C     0.51304   0.32239   0.73793   0.00000  Uiso   1.00
C699   C     0.48397   0.01225   0.76405   0.00000  Uiso   1.00
C700   C     0.49005   0.05585   0.75938   0.00000  Uiso   1.00
C701   C     0.50966   0.27781   0.74036   0.00000  Uiso   1.00
C702   C     0.44598   0.23142   0.99237   0.00000  Uiso   1.00
C703   C     0.51839   0.14778   0.62897   0.00000  Uiso   1.00
C704   C     0.48093   0.18380   0.87139   0.00000  Uiso   1.00
C705   C     0.52990   0.08274   0.51765   0.00000  Uiso   1.00
C706   C     0.52561   0.13691   0.57996   0.00000  Uiso   1.00
C707   C     0.45265   0.22485   0.94508   0.00000  Uiso   1.00
C708   C     0.40043   0.24927   0.92277   0.00000  Uiso   1.00
C709   C     0.40978   0.17395   0.57588   0.00000  Uiso   1.00
C710   C     0.45762   0.29579   0.52789   0.00000  Uiso   1.00
C711   C     0.35181   0.22398   0.68235   0.00000  Uiso   1.00
C712   C     0.45747   0.20295   0.51628   0.00000  Uiso   1.00
C713   C     0.48104   0.17082   0.99234   0.00000  Uiso   1.00
C714   C     0.47837   0.15879   0.94731   0.00000  Uiso   1.00
C715   C     0.50246   0.14741   0.51346   0.00000  Uiso   1.00
C716   C     0.51004   0.10631   0.99464   0.00000  Uiso   1.00
C717   C     0.49540   0.09008   0.95521   0.00000  Uiso   1.00
C718   C     0.47982   0.11629   0.93169   0.00000  Uiso   1.00
Cl719  Cl    0.54984   0.06382   0.59452   0.00000  Uiso   1.00
Cl720  Cl    0.64715   0.10538   0.77900   0.00000  Uiso   1.00
Cl721  Cl    0.43661   0.32727   0.80305   0.00000  Uiso   1.00
Cl722  Cl    0.48998   0.03620   0.93740   0.00000  Uiso   1.00
Cl723  Cl    0.55476   0.03858   0.99169   0.00000  Uiso   1.00
Cl724  Cl    0.52985   0.21813   0.56550   0.00000  Uiso   1.00
Cl725  Cl    0.45099   0.09278   0.89108   0.00000  Uiso   1.00
H726   H     0.54038   0.00372   0.71411   0.00000  Uiso   1.00
H727   H     0.44302   0.32472   0.54081   0.00000  Uiso   1.00
H728   H     0.66232   0.24641   0.68447   0.00000  Uiso   1.00
H729   H     0.34377   0.19518   0.66103   0.00000  Uiso   1.00
H730   H     0.38377   0.23870   0.66504   0.00000  Uiso   1.00
H731   H     0.38107   0.25719   0.95736   0.00000  Uiso   1.00
H732   H     0.38940   0.21697   0.91034   0.00000  Uiso   1.00
H733   H     0.39473   0.27061   0.90003   0.00000  Uiso   1.00
H734   H     0.41655   0.14280   0.55876   0.00000  Uiso   1.00
H735   H     0.38006   0.18172   0.56942   0.00000  Uiso   1.00
H736   H     0.40468   0.17134   0.61264   0.00000  Uiso   1.00
H737   H     0.48471   0.30326   0.99849   0.00000  Uiso   1.00
H738   H     0.46945   0.28616   0.55554   0.00000  Uiso   1.00
O739   O     0.50000   0.16667   0.75000   0.00000  Uiso   1.00
O740   O     0.48784   0.12637   0.65459   0.00000  Uiso   1.00
O741   O     0.46274   0.20391   0.84968   0.00000  Uiso   1.00
O742   O     0.54157   0.17759   0.64606   0.00000  Uiso   1.00
O743   O     0.50785   0.15880   0.84968   0.00000  Uiso   1.00
O744   O     0.44435   0.25500   0.92161   0.00000  Uiso   1.00
O745   O     0.44364   0.20590   0.56304   0.00000  Uiso   1.00
O746   O     0.42637   0.26505   0.51528   0.00000  Uiso   1.00
O747   O     0.35314   0.21644   0.72633   0.00000  Uiso   1.00
O748   O     0.51264   0.08019   0.78214   0.00000  Uiso   1.00
O749   O     0.47965   0.26085   0.77014   0.00000  Uiso   1.00
O750   O     0.40745   0.13291   0.73413   0.00000  Uiso   1.00
O751   O     0.60026   0.19272   0.71361   0.00000  Uiso   1.00
O752   O     0.40405   0.18878   0.78213   0.00000  Uiso   1.00
O753   O     0.58824   0.15226   0.77014   0.00000  Uiso   1.00
O754   O     0.47093   0.06944   0.73413   0.00000  Uiso   1.00
O755   O     0.53678   0.25620   0.71361   0.00000  Uiso   1.00
Zn756  Zn    0.52672   0.13994   0.78734   0.00000  Uiso   1.00
Zn757  Zn    0.46713   0.12458   0.71876   0.00000  Uiso   1.00
Zn758  Zn    0.54389   0.19775   0.70657   0.00000  Uiso   1.00
Zn759  Zn    0.46226   0.20439   0.78734   0.00000  Uiso   1.00
C760   C     0.71951   0.15904   0.75983   0.00000  Uiso   1.00
C761   C     0.84998   0.16392   0.55286   0.00000  Uiso   1.00
C762   C     0.86681   0.09654   0.56195   0.00000  Uiso   1.00
C763   C     0.94745   0.17433   0.74067   0.00000  Uiso   1.00
C764   C     0.80311   0.18866   0.92179   0.00000  Uiso   1.00
C765   C     0.99298   0.18063   0.74102   0.00000  Uiso   1.00
C766   C     0.67474   0.15415   0.76176   0.00000  Uiso   1.00
C767   C     0.84637   0.32239   0.73793   0.00000  Uiso   1.00
C768   C     0.81730   0.01225   0.76405   0.00000  Uiso   1.00
C769   C     0.82338   0.05585   0.75938   0.00000  Uiso   1.00
C770   C     0.84299   0.27781   0.74036   0.00000  Uiso   1.00
C771   C     0.77932   0.23142   0.99237   0.00000  Uiso   1.00
C772   C     0.85172   0.14778   0.62897   0.00000  Uiso   1.00
C773   C     0.81426   0.18380   0.87139   0.00000  Uiso   1.00
C774   C     0.86324   0.08274   0.51765   0.00000  Uiso   1.00
C775   C     0.85895   0.13691   0.57996   0.00000  Uiso   1.00
C776   C     0.78599   0.22485   0.94508   0.00000  Uiso   1.00
C777   C     0.73376   0.24927   0.92277   0.00000  Uiso   1.00
C778   C     0.74311   0.17395   0.57588   0.00000  Uiso   1.00
C779   C     0.79095   0.29579   0.52789   0.00000  Uiso   1.00
C780   C     0.68514   0.22398   0.68235   0.00000  Uiso   1.00
C781   C     0.79080   0.20295   0.51628   0.00000  Uiso   1.00
C782   C     0.81437   0.17082   0.99234   0.00000  Uiso   1.00
C783   C     0.81170   0.15879   0.94731   0.00000  Uiso   1.00
C784   C     0.83579   0.14741   0.51346   0.00000  Uiso   1.00
C785   C     0.84337   0.10631   0.99464   0.00000  Uiso   1.00
C786   C     0.82873   0.09008   0.95521   0.00000  Uiso   1.00
C787   C     0.81315   0.11629   0.93169   0.00000  Uiso   1.00
Cl788  Cl    0.88318   0.06382   0.59452   0.00000  Uiso   1.00
Cl789  Cl    0.98048   0.10538   0.77900   0.00000  Uiso   1.00
Cl790  Cl    0.76995   0.32727   0.80305   0.00000  Uiso   1.00
Cl791  Cl    0.82331   0.03620   0.93740   0.00000  Uiso   1.00
Cl792  Cl    0.88809   0.03858   0.99169   0.00000  Uiso   1.00
Cl793  Cl    0.86319   0.21813   0.56550   0.00000  Uiso   1.00
Cl794  Cl    0.78432   0.09278   0.89108   0.00000  Uiso   1.00
H795   H     0.87371   0.00372   0.71411   0.00000  Uiso   1.00
H796   H     0.77636   0.32472   0.54081   0.00000  Uiso   1.00
H797   H     0.99565   0.24641   0.68447   0.00000  Uiso   1.00
H798   H     0.67710   0.19518   0.66103   0.00000  Uiso   1.00
H799   H     0.71710   0.23870   0.66504   0.00000  Uiso   1.00
H800   H     0.71440   0.25719   0.95736   0.00000  Uiso   1.00
H801   H     0.72273   0.21697   0.91034   0.00000  Uiso   1.00
H802   H     0.72807   0.27061   0.90003   0.00000  Uiso   1.00
H803   H     0.74988   0.14280   0.55876   0.00000  Uiso   1.00
H804   H     0.71339   0.18172   0.56942   0.00000  Uiso   1.00
H805   H     0.73801   0.17134   0.61264   0.00000  Uiso   1.00
H806   H     0.81804   0.30326   0.99849   0.00000  Uiso   1.00
H807   H     0.80279   0.28616   0.55554   0.00000  Uiso   1.00
O808   O     0.83333   0.16667   0.75000   0.00000  Uiso   1.00
O809   O     0.82118   0.12637   0.65459   0.00000  Uiso   1.00
O810   O     0.79607   0.20391   0.84968   0.00000  Uiso   1.00
O811   O     0.87491   0.17759   0.64606   0.00000  Uiso   1.00
O812   O     0.84118   0.15880   0.84968   0.00000  Uiso   1.00
O813   O     0.77768   0.25500   0.92161   0.00000  Uiso   1.00
O814   O     0.77698   0.20590   0.56304   0.00000  Uiso   1.00
O815   O     0.75970   0.26505   0.51528   0.00000  Uiso   1.00
O816   O     0.68647   0.21644   0.72633   0.00000  Uiso   1.00
O817   O     0.84597   0.08019   0.78214   0.00000  Uiso   1.00
O818   O     0.81298   0.26085   0.77014   0.00000  Uiso   1.00
O819   O     0.74078   0.13291   0.73413   0.00000  Uiso   1.00
O820   O     0.93360   0.19272   0.71361   0.00000  Uiso   1.00
O821   O     0.73738   0.18878   0.78213   0.00000  Uiso   1.00
O822   O     0.92158   0.15226   0.77014   0.00000  Uiso   1.00
O823   O     0.80426   0.06944   0.73413   0.00000  Uiso   1.00
O824   O     0.87012   0.25620   0.71361   0.00000  Uiso   1.00
Zn825  Zn    0.86005   0.13994   0.78734   0.00000  Uiso   1.00
Zn826  Zn    0.80046   0.12458   0.71876   0.00000  Uiso   1.00
Zn827  Zn    0.87723   0.19775   0.70657   0.00000  Uiso   1.00
Zn828  Zn    0.79560   0.20439   0.78734   0.00000  Uiso   1.00
C829   C     0.05284   0.49237   0.75983   0.00000  Uiso   1.00
C830   C     0.18331   0.49726   0.55286   0.00000  Uiso   1.00
C831   C     0.20014   0.42987   0.56195   0.00000  Uiso   1.00
C832   C     0.28078   0.50766   0.74067   0.00000  Uiso   1.00
C833   C     0.13644   0.52200   0.92179   0.00000  Uiso   1.00
C834   C     0.32632   0.51396   0.74102   0.00000  Uiso   1.00
C835   C     0.00807   0.48748   0.76176   0.00000  Uiso   1.00
C836   C     0.17970   0.65572   0.73793   0.00000  Uiso   1.00
C837   C     0.15063   0.34558   0.76405   0.00000  Uiso   1.00
C838   C     0.15671   0.38918   0.75938   0.00000  Uiso   1.00
C839   C     0.17633   0.61114   0.74036   0.00000  Uiso   1.00
C840   C     0.11265   0.56476   0.99237   0.00000  Uiso   1.00
C841   C     0.18506   0.48111   0.62897   0.00000  Uiso   1.00
C842   C     0.14760   0.51714   0.87139   0.00000  Uiso   1.00
C843   C     0.19657   0.41608   0.51765   0.00000  Uiso   1.00
C844   C     0.19228   0.47025   0.57996   0.00000  Uiso   1.00
C845   C     0.11932   0.55818   0.94508   0.00000  Uiso   1.00
C846   C     0.06710   0.58261   0.92277   0.00000  Uiso   1.00
C847   C     0.07645   0.50728   0.57588   0.00000  Uiso   1.00
C848   C     0.12428   0.62912   0.52789   0.00000  Uiso   1.00
C849   C     0.01848   0.55732   0.68235   0.00000  Uiso   1.00
C850   C     0.12414   0.53629   0.51628   0.00000  Uiso   1.00
C851   C     0.14770   0.50415   0.99234   0.00000  Uiso   1.00
C852   C     0.14503   0.49212   0.94731   0.00000  Uiso   1.00
C853   C     0.16912   0.48074   0.51346   0.00000  Uiso   1.00
C854   C     0.17671   0.43964   0.99464   0.00000  Uiso   1.00
C855   C     0.16206   0.42341   0.95521   0.00000  Uiso   1.00
C856   C     0.14648   0.44963   0.93169   0.00000  Uiso   1.00
Cl857  Cl    0.21651   0.39716   0.59452   0.00000  Uiso   1.00
Cl858  Cl    0.31382   0.43871   0.77900   0.00000  Uiso   1.00
Cl859  Cl    0.10328   0.66061   0.80305   0.00000  Uiso   1.00
Cl860  Cl    0.15664   0.36953   0.93740   0.00000  Uiso   1.00
Cl861  Cl    0.22142   0.37191   0.99169   0.00000  Uiso   1.00
Cl862  Cl    0.19652   0.55146   0.56550   0.00000  Uiso   1.00
Cl863  Cl    0.11765   0.42611   0.89108   0.00000  Uiso   1.00
H864   H     0.20705   0.33705   0.71411   0.00000  Uiso   1.00
H865   H     0.10969   0.65805   0.54081   0.00000  Uiso   1.00
H866   H     0.32899   0.57975   0.68447   0.00000  Uiso   1.00
H867   H     0.01043   0.52851   0.66103   0.00000  Uiso   1.00
H868   H     0.05043   0.57204   0.66504   0.00000  Uiso   1.00
H869   H     0.04773   0.59052   0.95736   0.00000  Uiso   1.00
H870   H     0.05607   0.55030   0.91034   0.00000  Uiso   1.00
H871   H     0.06140   0.60394   0.90003   0.00000  Uiso   1.00
H872   H     0.08322   0.47614   0.55876   0.00000  Uiso   1.00
H873   H     0.04673   0.51505   0.56942   0.00000  Uiso   1.00
H874   H     0.07134   0.50468   0.61264   0.00000  Uiso   1.00
H875   H     0.15138   0.63659   0.99849   0.00000  Uiso   1.00
H876   H     0.13612   0.61949   0.55554   0.00000  Uiso   1.00
O877   O     0.16667   0.50000   0.75000   0.00000  Uiso   1.00
O878   O     0.15451   0.45970   0.65459   0.00000  Uiso   1.00
O879   O     0.12940   0.53724   0.84968   0.00000  Uiso   1.00
O880   O     0.20824   0.51092   0.64606   0.00000  Uiso   1.00
O881   O     0.17451   0.49213   0.84968   0.00000  Uiso   1.00
O882   O     0.11102   0.58833   0.92161   0.00000  Uiso   1.00
O883   O     0.11031   0.53923   0.56304   0.00000  Uiso   1.00
O884   O     0.09303   0.59838   0.51528   0.00000  Uiso   1.00
O885   O     0.01980   0.54978   0.72633   0.00000  Uiso   1.00
O886   O     0.17930   0.41352   0.78214   0.00000  Uiso   1.00
O887   O     0.14632   0.59418   0.77014   0.00000  Uiso   1.00
O888   O     0.07412   0.46625   0.73413   0.00000  Uiso   1.00
O889   O     0.26693   0.52605   0.71361   0.00000  Uiso   1.00
O890   O     0.07071   0.52211   0.78213   0.00000  Uiso   1.00
O891   O     0.25491   0.48559   0.77014   0.00000  Uiso   1.00
O892   O     0.13760   0.40277   0.73413   0.00000  Uiso   1.00
O893   O     0.20345   0.58953   0.71361   0.00000  Uiso   1.00
Zn894  Zn    0.19338   0.47327   0.78734   0.00000  Uiso   1.00
Zn895  Zn    0.13379   0.45791   0.71876   0.00000  Uiso   1.00
Zn896  Zn    0.21056   0.53109   0.70657   0.00000  Uiso   1.00
Zn897  Zn    0.12893   0.53773   0.78734   0.00000  Uiso   1.00
C898   C     0.38617   0.49237   0.75983   0.00000  Uiso   1.00
C899   C     0.51664   0.49726   0.55286   0.00000  Uiso   1.00
C900   C     0.53347   0.42987   0.56195   0.00000  Uiso   1.00
C901   C     0.61412   0.50766   0.74067   0.00000  Uiso   1.00
C902   C     0.46977   0.52200   0.92179   0.00000  Uiso   1.00
C903   C     0.65965   0.51396   0.74102   0.00000  Uiso   1.00
C904   C     0.34141   0.48748   0.76176   0.00000  Uiso   1.00
C905   C     0.51304   0.65572   0.73793   0.00000  Uiso   1.00
C906   C     0.48397   0.34558   0.76405   0.00000  Uiso   1.00
C907   C     0.49005   0.38918   0.75938   0.00000  Uiso   1.00
C908   C     0.50966   0.61114   0.74036   0.00000  Uiso   1.00
C909   C     0.44598   0.56476   0.99237   0.00000  Uiso   1.00
C910   C     0.51839   0.48111   0.62897   0.00000  Uiso   1.00
C911   C     0.48093   0.51714   0.87139   0.00000  Uiso   1.00
C912   C     0.52990   0.41608   0.51765   0.00000  Uiso   1.00
C913   C     0.52561   0.47025   0.57996   0.00000  Uiso   1.00
C914   C     0.45265   0.55818   0.94508   0.00000  Uiso   1.00
C915   C     0.40043   0.58261   0.92277   0.00000  Uiso   1.00
C916   C     0.40978   0.50728   0.57588   0.00000  Uiso   1.00
C917   C     0.45762   0.62912   0.52789   0.00000  Uiso   1.00
C918   C     0.35181   0.55732   0.68235   0.00000  Uiso   1.00
C919   C     0.45747   0.53629   0.51628   0.00000  Uiso   1.00
C920   C     0.48104   0.50415   0.99234   0.00000  Uiso   1.00
C921   C     0.47837   0.49212   0.94731   0.00000  Uiso   1.00
C922   C     0.50246   0.48074   0.51346   0.00000  Uiso   1.00
C923   C     0.51004   0.43964   0.99464   0.00000  Uiso   1.00
C924   C     0.49540   0.42341   0.95521   0.00000  Uiso   1.00
C925   C     0.47982   0.44963   0.93169   0.00000  Uiso   1.00
Cl926  Cl    0.54984   0.39716   0.59452   0.00000  Uiso   1.00
Cl927  Cl    0.64715   0.43871   0.77900   0.00000  Uiso   1.00
Cl928  Cl    0.43661   0.66061   0.80305   0.00000  Uiso   1.00
Cl929  Cl    0.48998   0.36953   0.93740   0.00000  Uiso   1.00
Cl930  Cl    0.55476   0.37191   0.99169   0.00000  Uiso   1.00
Cl931  Cl    0.52985   0.55146   0.56550   0.00000  Uiso   1.00
Cl932  Cl    0.45099   0.42611   0.89108   0.00000  Uiso   1.00
H933   H     0.54038   0.33705   0.71411   0.00000  Uiso   1.00
H934   H     0.44302   0.65805   0.54081   0.00000  Uiso   1.00
H935   H     0.66232   0.57975   0.68447   0.00000  Uiso   1.00
H936   H     0.34377   0.52851   0.66103   0.00000  Uiso   1.00
H937   H     0.38377   0.57204   0.66504   0.00000  Uiso   1.00
H938   H     0.38107   0.59052   0.95736   0.00000  Uiso   1.00
H939   H     0.38940   0.55030   0.91034   0.00000  Uiso   1.00
H940   H     0.39473   0.60394   0.90003   0.00000  Uiso   1.00
H941   H     0.41655   0.47614   0.55876   0.00000  Uiso   1.00
H942   H     0.38006   0.51505   0.56942   0.00000  Uiso   1.00
H943   H     0.40468   0.50468   0.61264   0.00000  Uiso   1.00
H944   H     0.48471   0.63659   0.99849   0.00000  Uiso   1.00
H945   H     0.46945   0.61949   0.55554   0.00000  Uiso   1.00
O946   O     0.50000   0.50000   0.75000   0.00000  Uiso   1.00
O947   O     0.48784   0.45970   0.65459   0.00000  Uiso   1.00
O948   O     0.46274   0.53724   0.84968   0.00000  Uiso   1.00
O949   O     0.54157   0.51092   0.64606   0.00000  Uiso   1.00
O950   O     0.50785   0.49213   0.84968   0.00000  Uiso   1.00
O951   O     0.44435   0.58833   0.92161   0.00000  Uiso   1.00
O952   O     0.44364   0.53923   0.56304   0.00000  Uiso   1.00
O953   O     0.42637   0.59838   0.51528   0.00000  Uiso   1.00
O954   O     0.35314   0.54978   0.72633   0.00000  Uiso   1.00
O955   O     0.51264   0.41352   0.78214   0.00000  Uiso   1.00
O956   O     0.47965   0.59418   0.77014   0.00000  Uiso   1.00
O957   O     0.40745   0.46625   0.73413   0.00000  Uiso   1.00
O958   O     0.60026   0.52605   0.71361   0.00000  Uiso   1.00
O959   O     0.40405   0.52211   0.78213   0.00000  Uiso   1.00
O960   O     0.58824   0.48559   0.77014   0.00000  Uiso   1.00
O961   O     0.47093   0.40277   0.73413   0.00000  Uiso   1.00
O962   O     0.53678   0.58953   0.71361   0.00000  Uiso   1.00
Zn963  Zn    0.52672   0.47327   0.78734   0.00000  Uiso   1.00
Zn964  Zn    0.46713   0.45791   0.71876   0.00000  Uiso   1.00
Zn965  Zn    0.54389   0.53109   0.70657   0.00000  Uiso   1.00
Zn966  Zn    0.46226   0.53773   0.78734   0.00000  Uiso   1.00
C967   C     0.71951   0.49237   0.75983   0.00000  Uiso   1.00
C968   C     0.84998   0.49726   0.55286   0.00000  Uiso   1.00
C969   C     0.86681   0.42987   0.56195   0.00000  Uiso   1.00
C970   C     0.94745   0.50766   0.74067   0.00000  Uiso   1.00
C971   C     0.80311   0.52200   0.92179   0.00000  Uiso   1.00
C972   C     0.99298   0.51396   0.74102   0.00000  Uiso   1.00
C973   C     0.67474   0.48748   0.76176   0.00000  Uiso   1.00
C974   C     0.84637   0.65572   0.73793   0.00000  Uiso   1.00
C975   C     0.81730   0.34558   0.76405   0.00000  Uiso   1.00
C976   C     0.82338   0.38918   0.75938   0.00000  Uiso   1.00
C977   C     0.84299   0.61114   0.74036   0.00000  Uiso   1.00
C978   C     0.77932   0.56476   0.99237   0.00000  Uiso   1.00
C979   C     0.85172   0.48111   0.62897   0.00000  Uiso   1.00
C980   C     0.81426   0.51714   0.87139   0.00000  Uiso   1.00
C981   C     0.86324   0.41608   0.51765   0.00000  Uiso   1.00
C982   C     0.85895   0.47025   0.57996   0.00000  Uiso   1.00
C983   C     0.78599   0.55818   0.94508   0.00000  Uiso   1.00
C984   C     0.73376   0.58261   0.92277   0.00000  Uiso   1.00
C985   C     0.74311   0.50728   0.57588   0.00000  Uiso   1.00
C986   C     0.79095   0.62912   0.52789   0.00000  Uiso   1.00
C987   C     0.68514   0.55732   0.68235   0.00000  Uiso   1.00
C988   C     0.79080   0.53629   0.51628   0.00000  Uiso   1.00
C989   C     0.81437   0.50415   0.99234   0.00000  Uiso   1.00
C990   C     0.81170   0.49212   0.94731   0.00000  Uiso   1.00
C991   C     0.83579   0.48074   0.51346   0.00000  Uiso   1.00
C992   C     0.84337   0.43964   0.99464   0.00000  Uiso   1.00
C993   C     0.82873   0.42341   0.95521   0.00000  Uiso   1.00
C994   C     0.81315   0.44963   0.93169   0.00000  Uiso   1.00
Cl995  Cl    0.88318   0.39716   0.59452   0.00000  Uiso   1.00
Cl996  Cl    0.98048   0.43871   0.77900   0.00000  Uiso   1.00
Cl997  Cl    0.76995   0.66061   0.80305   0.00000  Uiso   1.00
Cl998  Cl    0.82331   0.36953   0.93740   0.00000  Uiso   1.00
Cl999  Cl    0.88809   0.37191   0.99169   0.00000  Uiso   1.00
Cl1000 Cl    0.86319   0.55146   0.56550   0.00000  Uiso   1.00
Cl1001 Cl    0.78432   0.42611   0.89108   0.00000  Uiso   1.00
H1002  H     0.87371   0.33705   0.71411   0.00000  Uiso   1.00
H1003  H     0.77636   0.65805   0.54081   0.00000  Uiso   1.00
H1004  H     0.99565   0.57975   0.68447   0.00000  Uiso   1.00
H1005  H     0.67710   0.52851   0.66103   0.00000  Uiso   1.00
H1006  H     0.71710   0.57204   0.66504   0.00000  Uiso   1.00
H1007  H     0.71440   0.59052   0.95736   0.00000  Uiso   1.00
H1008  H     0.72273   0.55030   0.91034   0.00000  Uiso   1.00
H1009  H     0.72807   0.60394   0.90003   0.00000  Uiso   1.00
H1010  H     0.74988   0.47614   0.55876   0.00000  Uiso   1.00
H1011  H     0.71339   0.51505   0.56942   0.00000  Uiso   1.00
H1012  H     0.73801   0.50468   0.61264   0.00000  Uiso   1.00
H1013  H     0.81804   0.63659   0.99849   0.00000  Uiso   1.00
H1014  H     0.80279   0.61949   0.55554   0.00000  Uiso   1.00
O1015  O     0.83333   0.50000   0.75000   0.00000  Uiso   1.00
O1016  O     0.82118   0.45970   0.65459   0.00000  Uiso   1.00
O1017  O     0.79607   0.53724   0.84968   0.00000  Uiso   1.00
O1018  O     0.87491   0.51092   0.64606   0.00000  Uiso   1.00
O1019  O     0.84118   0.49213   0.84968   0.00000  Uiso   1.00
O1020  O     0.77768   0.58833   0.92161   0.00000  Uiso   1.00
O1021  O     0.77698   0.53923   0.56304   0.00000  Uiso   1.00
O1022  O     0.75970   0.59838   0.51528   0.00000  Uiso   1.00
O1023  O     0.68647   0.54978   0.72633   0.00000  Uiso   1.00
O1024  O     0.84597   0.41352   0.78214   0.00000  Uiso   1.00
O1025  O     0.81298   0.59418   0.77014   0.00000  Uiso   1.00
O1026  O     0.74078   0.46625   0.73413   0.00000  Uiso   1.00
O1027  O     0.93360   0.52605   0.71361   0.00000  Uiso   1.00
O1028  O     0.73738   0.52211   0.78213   0.00000  Uiso   1.00
O1029  O     0.92158   0.48559   0.77014   0.00000  Uiso   1.00
O1030  O     0.80426   0.40277   0.73413   0.00000  Uiso   1.00
O1031  O     0.87012   0.58953   0.71361   0.00000  Uiso   1.00
Zn1032 Zn    0.86005   0.47327   0.78734   0.00000  Uiso   1.00
Zn1033 Zn    0.80046   0.45791   0.71876   0.00000  Uiso   1.00
Zn1034 Zn    0.87723   0.53109   0.70657   0.00000  Uiso   1.00
Zn1035 Zn    0.79560   0.53773   0.78734   0.00000  Uiso   1.00
C1036  C     0.05284   0.82570   0.75983   0.00000  Uiso   1.00
C1037  C     0.18331   0.83059   0.55286   0.00000  Uiso   1.00
C1038  C     0.20014   0.76321   0.56195   0.00000  Uiso   1.00
C1039  C     0.28078   0.84099   0.74067   0.00000  Uiso   1.00
C1040  C     0.13644   0.85533   0.92179   0.00000  Uiso   1.00
C1041  C     0.32632   0.84730   0.74102   0.00000  Uiso   1.00
C1042  C     0.00807   0.82081   0.76176   0.00000  Uiso   1.00
C1043  C     0.17970   0.98905   0.73793   0.00000  Uiso   1.00
C1044  C     0.15063   0.67892   0.76405   0.00000  Uiso   1.00
C1045  C     0.15671   0.72252   0.75938   0.00000  Uiso   1.00
C1046  C     0.17633   0.94448   0.74036   0.00000  Uiso   1.00
C1047  C     0.11265   0.89809   0.99237   0.00000  Uiso   1.00
C1048  C     0.18506   0.81444   0.62897   0.00000  Uiso   1.00
C1049  C     0.14760   0.85047   0.87139   0.00000  Uiso   1.00
C1050  C     0.19657   0.74941   0.51765   0.00000  Uiso   1.00
C1051  C     0.19228   0.80358   0.57996   0.00000  Uiso   1.00
C1052  C     0.11932   0.89152   0.94508   0.00000  Uiso   1.00
C1053  C     0.06710   0.91594   0.92277   0.00000  Uiso   1.00
C1054  C     0.07645   0.84061   0.57588   0.00000  Uiso   1.00
C1055  C     0.12428   0.96245   0.52789   0.00000  Uiso   1.00
C1056  C     0.01848   0.89065   0.68235   0.00000  Uiso   1.00
C1057  C     0.12414   0.86962   0.51628   0.00000  Uiso   1.00
C1058  C     0.14770   0.83748   0.99234   0.00000  Uiso   1.00
C1059  C     0.14503   0.82546   0.94731   0.00000  Uiso   1.00
C1060  C     0.16912   0.81408   0.51346   0.00000  Uiso   1.00
C1061  C     0.17671   0.77298   0.99464   0.00000  Uiso   1.00
C1062  C     0.16206   0.75675   0.95521   0.00000  Uiso   1.00
C1063  C     0.14648   0.78296   0.93169   0.00000  Uiso   1.00
Cl1064 Cl    0.21651   0.73049   0.59452   0.00000  Uiso   1.00
Cl1065 Cl    0.31382   0.77204   0.77900   0.00000  Uiso   1.00
Cl1066 Cl    0.10328   0.99394   0.80305   0.00000  Uiso   1.00
Cl1067 Cl    0.15664   0.70287   0.93740   0.00000  Uiso   1.00
Cl1068 Cl    0.22142   0.70524   0.99169   0.00000  Uiso   1.00
Cl1069 Cl    0.19652   0.88480   0.56550   0.00000  Uiso   1.00
Cl1070 Cl    0.11765   0.75945   0.89108   0.00000  Uiso   1.00
H1071  H     0.20705   0.67038   0.71411   0.00000  Uiso   1.00
H1072  H     0.10969   0.99138   0.54081   0.00000  Uiso   1.00
H1073  H     0.32899   0.91308   0.68447   0.00000  Uiso   1.00
H1074  H     0.01043   0.86184   0.66103   0.00000  Uiso   1.00
H1075  H     0.05043   0.90537   0.66504   0.00000  Uiso   1.00
H1076  H     0.04773   0.92385   0.95736   0.00000  Uiso   1.00
H1077  H     0.05607   0.88364   0.91034   0.00000  Uiso   1.00
H1078  H     0.06140   0.93727   0.90003   0.00000  Uiso   1.00
H1079  H     0.08322   0.80947   0.55876   0.00000  Uiso   1.00
H1080  H     0.04673   0.84839   0.56942   0.00000  Uiso   1.00
H1081  H     0.07134   0.83801   0.61264   0.00000  Uiso   1.00
H1082  H     0.15138   0.96993   0.99849   0.00000  Uiso   1.00
H1083  H     0.13612   0.95282   0.55554   0.00000  Uiso   1.00
O1084  O     0.16667   0.83333   0.75000   0.00000  Uiso   1.00
O1085  O     0.15451   0.79304   0.65459   0.00000  Uiso   1.00
O1086  O     0.12940   0.87058   0.84968   0.00000  Uiso   1.00
O1087  O     0.20824   0.84425   0.64606   0.00000  Uiso   1.00
O1088  O     0.17451   0.82546   0.84968   0.00000  Uiso   1.00
O1089  O     0.11102   0.92166   0.92161   0.00000  Uiso   1.00
O1090  O     0.11031   0.87257   0.56304   0.00000  Uiso   1.00
O1091  O     0.09303   0.93171   0.51528   0.00000  Uiso   1.00
O1092  O     0.01980   0.88311   0.72633   0.00000  Uiso   1.00
O1093  O     0.17930   0.74686   0.78214   0.00000  Uiso   1.00
O1094  O     0.14632   0.92751   0.77014   0.00000  Uiso   1.00
O1095  O     0.07412   0.79958   0.73413   0.00000  Uiso   1.00
O1096  O     0.26693   0.85939   0.71361   0.00000  Uiso   1.00
O1097  O     0.07071   0.85544   0.78213   0.00000  Uiso   1.00
O1098  O     0.25491   0.81892   0.77014   0.00000  Uiso   1.00
O1099  O     0.13760   0.73610   0.73413   0.00000  Uiso   1.00
O1100  O     0.20345   0.92286   0.71361   0.00000  Uiso   1.00
Zn1101 Zn    0.19338   0.80661   0.78734   0.00000  Uiso   1.00
Zn1102 Zn    0.13379   0.79124   0.71876   0.00000  Uiso   1.00
Zn1103 Zn    0.21056   0.86442   0.70657   0.00000  Uiso   1.00
Zn1104 Zn    0.12893   0.87106   0.78734   0.00000  Uiso   1.00
C1105  C     0.38617   0.82570   0.75983   0.00000  Uiso   1.00
C1106  C     0.51664   0.83059   0.55286   0.00000  Uiso   1.00
C1107  C     0.53347   0.76321   0.56195   0.00000  Uiso   1.00
C1108  C     0.61412   0.84099   0.74067   0.00000  Uiso   1.00
C1109  C     0.46977   0.85533   0.92179   0.00000  Uiso   1.00
C1110  C     0.65965   0.84730   0.74102   0.00000  Uiso   1.00
C1111  C     0.34141   0.82081   0.76176   0.00000  Uiso   1.00
C1112  C     0.51304   0.98905   0.73793   0.00000  Uiso   1.00
C1113  C     0.48397   0.67892   0.76405   0.00000  Uiso   1.00
C1114  C     0.49005   0.72252   0.75938   0.00000  Uiso   1.00
C1115  C     0.50966   0.94448   0.74036   0.00000  Uiso   1.00
C1116  C     0.44598   0.89809   0.99237   0.00000  Uiso   1.00
C1117  C     0.51839   0.81444   0.62897   0.00000  Uiso   1.00
C1118  C     0.48093   0.85047   0.87139   0.00000  Uiso   1.00
C1119  C     0.52990   0.74941   0.51765   0.00000  Uiso   1.00
C1120  C     0.52561   0.80358   0.57996   0.00000  Uiso   1.00
C1121  C     0.45265   0.89152   0.94508   0.00000  Uiso   1.00
C1122  C     0.40043   0.91594   0.92277   0.00000  Uiso   1.00
C1123  C     0.40978   0.84061   0.57588   0.00000  Uiso   1.00
C1124  C     0.45762   0.96245   0.52789   0.00000  Uiso   1.00
C1125  C     0.35181   0.89065   0.68235   0.00000  Uiso   1.00
C1126  C     0.45747   0.86962   0.51628   0.00000  Uiso   1.00
C1127  C     0.48104   0.83748   0.99234   0.00000  Uiso   1.00
C1128  C     0.47837   0.82546   0.94731   0.00000  Uiso   1.00
C1129  C     0.50246   0.81408   0.51346   0.00000  Uiso   1.00
C1130  C     0.51004   0.77298   0.99464   0.00000  Uiso   1.00
C1131  C     0.49540   0.75675   0.95521   0.00000  Uiso   1.00
C1132  C     0.47982   0.78296   0.93169   0.00000  Uiso   1.00
Cl1133 Cl    0.54984   0.73049   0.59452   0.00000  Uiso   1.00
Cl1134 Cl    0.64715   0.77204   0.77900   0.00000  Uiso   1.00
Cl1135 Cl    0.43661   0.99394   0.80305   0.00000  Uiso   1.00
Cl1136 Cl    0.48998   0.70287   0.93740   0.00000  Uiso   1.00
Cl1137 Cl    0.55476   0.70524   0.99169   0.00000  Uiso   1.00
Cl1138 Cl    0.52985   0.88480   0.56550   0.00000  Uiso   1.00
Cl1139 Cl    0.45099   0.75945   0.89108   0.00000  Uiso   1.00
H1140  H     0.54038   0.67038   0.71411   0.00000  Uiso   1.00
H1141  H     0.44302   0.99138   0.54081   0.00000  Uiso   1.00
H1142  H     0.66232   0.91308   0.68447   0.00000  Uiso   1.00
H1143  H     0.34377   0.86184   0.66103   0.00000  Uiso   1.00
H1144  H     0.38377   0.90537   0.66504   0.00000  Uiso   1.00
H1145  H     0.38107   0.92385   0.95736   0.00000  Uiso   1.00
H1146  H     0.38940   0.88364   0.91034   0.00000  Uiso   1.00
H1147  H     0.39473   0.93727   0.90003   0.00000  Uiso   1.00
H1148  H     0.41655   0.80947   0.55876   0.00000  Uiso   1.00
H1149  H     0.38006   0.84839   0.56942   0.00000  Uiso   1.00
H1150  H     0.40468   0.83801   0.61264   0.00000  Uiso   1.00
H1151  H     0.48471   0.96993   0.99849   0.00000  Uiso   1.00
H1152  H     0.46945   0.95282   0.55554   0.00000  Uiso   1.00
O1153  O     0.50000   0.83333   0.75000   0.00000  Uiso   1.00
O1154  O     0.48784   0.79304   0.65459   0.00000  Uiso   1.00
O1155  O     0.46274   0.87058   0.84968   0.00000  Uiso   1.00
O1156  O     0.54157   0.84425   0.64606   0.00000  Uiso   1.00
O1157  O     0.50785   0.82546   0.84968   0.00000  Uiso   1.00
O1158  O     0.44435   0.92166   0.92161   0.00000  Uiso   1.00
O1159  O     0.44364   0.87257   0.56304   0.00000  Uiso   1.00
O1160  O     0.42637   0.93171   0.51528   0.00000  Uiso   1.00
O1161  O     0.35314   0.88311   0.72633   0.00000  Uiso   1.00
O1162  O     0.51264   0.74686   0.78214   0.00000  Uiso   1.00
O1163  O     0.47965   0.92751   0.77014   0.00000  Uiso   1.00
O1164  O     0.40745   0.79958   0.73413   0.00000  Uiso   1.00
O1165  O     0.60026   0.85939   0.71361   0.00000  Uiso   1.00
O1166  O     0.40405   0.85544   0.78213   0.00000  Uiso   1.00
O1167  O     0.58824   0.81892   0.77014   0.00000  Uiso   1.00
O1168  O     0.47093   0.73610   0.73413   0.00000  Uiso   1.00
O1169  O     0.53678   0.92286   0.71361   0.00000  Uiso   1.00
Zn1170 Zn    0.52672   0.80661   0.78734   0.00000  Uiso   1.00
Zn1171 Zn    0.46713   0.79124   0.71876   0.00000  Uiso   1.00
Zn1172 Zn    0.54389   0.86442   0.70657   0.00000  Uiso   1.00
Zn1173 Zn    0.46226   0.87106   0.78734   0.00000  Uiso   1.00
C1174  C     0.71951   0.82570   0.75983   0.00000  Uiso   1.00
C1175  C     0.84998   0.83059   0.55286   0.00000  Uiso   1.00
C1176  C     0.86681   0.76321   0.56195   0.00000  Uiso   1.00
C1177  C     0.94745   0.84099   0.74067   0.00000  Uiso   1.00
C1178  C     0.80311   0.85533   0.92179   0.00000  Uiso   1.00
C1179  C     0.99298   0.84730   0.74102   0.00000  Uiso   1.00
C1180  C     0.67474   0.82081   0.76176   0.00000  Uiso   1.00
C1181  C     0.84637   0.98905   0.73793   0.00000  Uiso   1.00
C1182  C     0.81730   0.67892   0.76405   0.00000  Uiso   1.00
C1183  C     0.82338   0.72252   0.75938   0.00000  Uiso   1.00
C1184  C     0.84299   0.94448   0.74036   0.00000  Uiso   1.00
C1185  C     0.77932   0.89809   0.99237   0.00000  Uiso   1.00
C1186  C     0.85172   0.81444   0.62897   0.00000  Uiso   1.00
C1187  C     0.81426   0.85047   0.87139   0.00000  Uiso   1.00
C1188  C     0.86324   0.74941   0.51765   0.00000  Uiso   1.00
C1189  C     0.85895   0.80358   0.57996   0.00000  Uiso   1.00
C1190  C     0.78599   0.89152   0.94508   0.00000  Uiso   1.00
C1191  C     0.73376   0.91594   0.92277   0.00000  Uiso   1.00
C1192  C     0.74311   0.84061   0.57588   0.00000  Uiso   1.00
C1193  C     0.79095   0.96245   0.52789   0.00000  Uiso   1.00
C1194  C     0.68514   0.89065   0.68235   0.00000  Uiso   1.00
C1195  C     0.79080   0.86962   0.51628   0.00000  Uiso   1.00
C1196  C     0.81437   0.83748   0.99234   0.00000  Uiso   1.00
C1197  C     0.81170   0.82546   0.94731   0.00000  Uiso   1.00
C1198  C     0.83579   0.81408   0.51346   0.00000  Uiso   1.00
C1199  C     0.84337   0.77298   0.99464   0.00000  Uiso   1.00
C1200  C     0.82873   0.75675   0.95521   0.00000  Uiso   1.00
C1201  C     0.81315   0.78296   0.93169   0.00000  Uiso   1.00
Cl1202 Cl    0.88318   0.73049   0.59452   0.00000  Uiso   1.00
Cl1203 Cl    0.98048   0.77204   0.77900   0.00000  Uiso   1.00
Cl1204 Cl    0.76995   0.99394   0.80305   0.00000  Uiso   1.00
Cl1205 Cl    0.82331   0.70287   0.93740   0.00000  Uiso   1.00
Cl1206 Cl    0.88809   0.70524   0.99169   0.00000  Uiso   1.00
Cl1207 Cl    0.86319   0.88480   0.56550   0.00000  Uiso   1.00
Cl1208 Cl    0.78432   0.75945   0.89108   0.00000  Uiso   1.00
H1209  H     0.87371   0.67038   0.71411   0.00000  Uiso   1.00
H1210  H     0.77636   0.99138   0.54081   0.00000  Uiso   1.00
H1211  H     0.99565   0.91308   0.68447   0.00000  Uiso   1.00
H1212  H     0.67710   0.86184   0.66103   0.00000  Uiso   1.00
H1213  H     0.71710   0.90537   0.66504   0.00000  Uiso   1.00
H1214  H     0.71440   0.92385   0.95736   0.00000  Uiso   1.00
H1215  H     0.72273   0.88364   0.91034   0.00000  Uiso   1.00
H1216  H     0.72807   0.93727   0.90003   0.00000  Uiso   1.00
H1217  H     0.74988   0.80947   0.55876   0.00000  Uiso   1.00
H1218  H     0.71339   0.84839   0.56942   0.00000  Uiso   1.00
H1219  H     0.73801   0.83801   0.61264   0.00000  Uiso   1.00
H1220  H     0.81804   0.96993   0.99849   0.00000  Uiso   1.00
H1221  H     0.80279   0.95282   0.55554   0.00000  Uiso   1.00
O1222  O     0.83333   0.83333   0.75000   0.00000  Uiso   1.00
O1223  O     0.82118   0.79304   0.65459   0.00000  Uiso   1.00
O1224  O     0.79607   0.87058   0.84968   0.00000  Uiso   1.00
O1225  O     0.87491   0.84425   0.64606   0.00000  Uiso   1.00
O1226  O     0.84118   0.82546   0.84968   0.00000  Uiso   1.00
O1227  O     0.77768   0.92166   0.92161   0.00000  Uiso   1.00
O1228  O     0.77698   0.87257   0.56304   0.00000  Uiso   1.00
O1229  O     0.75970   0.93171   0.51528   0.00000  Uiso   1.00
O1230  O     0.68647   0.88311   0.72633   0.00000  Uiso   1.00
O1231  O     0.84597   0.74686   0.78214   0.00000  Uiso   1.00
O1232  O     0.81298   0.92751   0.77014   0.00000  Uiso   1.00
O1233  O     0.74078   0.79958   0.73413   0.00000  Uiso   1.00
O1234  O     0.93360   0.85939   0.71361   0.00000  Uiso   1.00
O1235  O     0.73738   0.85544   0.78213   0.00000  Uiso   1.00
O1236  O     0.92158   0.81892   0.77014   0.00000  Uiso   1.00
O1237  O     0.80426   0.73610   0.73413   0.00000  Uiso   1.00
O1238  O     0.87012   0.92286   0.71361   0.00000  Uiso   1.00
Zn1239 Zn    0.86005   0.80661   0.78734   0.00000  Uiso   1.00
Zn1240 Zn    0.80046   0.79124   0.71876   0.00000  Uiso   1.00
Zn1241 Zn    0.87723   0.86442   0.70657   0.00000  Uiso   1.00
Zn1242 Zn    0.79560   0.87106   0.78734   0.00000  Uiso   1.00
loop_
_geom_bond_atom_site_label_1
_geom_bond_atom_site_label_2
_geom_bond_distance
_geom_bond_site_symmetry_2
_ccdc_geom_bond_type
C1     O62     1.271   .     A
C1     O60     1.255   .     A
C1     C7      1.435   .     S
C2     C16     1.392   .     A
C2     Cl34    1.775   .     S
C2     C25     1.417   .     A
C3     C15     1.404   .     A
C3     Cl29    1.770   .     S
C3     C16     1.402   .     A
C4     O63     1.278   .     A
C4     C6      1.475   .     S
C4     O61     1.285   .     A
C5     C14     1.488   .     S
C5     C24     1.423   .     A
C5     C17     1.420   .     A
C6     C76     1.350   .     S
C6     O126    1.397   .     S
C7     C144    1.350   1_455 S
C7     Cl168   1.775   1_455 S
C8     C11     1.453   .     S
C8     C216    1.345   .     S
C8     H243    1.088   .     S
C9     C10     1.427   .     S
C9     C422    1.345   1_545 S
C9     Cl445   1.770   1_545 S
C10    O58     1.268   .     A
C10    O64     1.265   .     A
C11    O59     1.267   .     A
C11    O65     1.281   .     A
C12    C17     1.403   .     A
C12    C643    1.399   .     S
C12    O677    1.383   .     S
C13    O52     1.282   .     A
C13    O50     1.274   .     A
C13    C16     1.467   .     S
C14    O51     1.287   .     A
C14    O53     1.296   .     A
C15    C647    1.426   1_554 S
C15    Cl654   1.770   1_554 S
C17    O54     1.384   .     S
C18    H43     1.109   .     S
C18    H42     1.114   .     S
C18    H41     1.111   .     S
C18    O54     1.412   .     S
C19    H45     1.112   .     S
C19    H46     1.107   .     S
C19    H44     1.113   .     S
C19    O55     1.411   .     S
C20    H37     1.109   .     S
C20    O56     1.410   .     S
C20    H48     1.112   .     S
C20    H668    1.113   1_554 S
C21    O57     1.411   .     S
C21    H40     1.109   .     S
C21    H39     1.114   .     S
C21    H176    1.110   1_455 S
C22    O55     1.384   .     S
C22    C633    1.399   1_554 S
C22    C644    1.418   1_554 S
C23    C24     1.408   .     A
C23    C643    1.418   .     S
C23    C646    1.418   .     S
C24    C28     1.416   .     A
C25    C644    1.418   1_554 S
C25    C647    1.427   1_554 S
C26    C27     1.424   .     A
C26    C646    1.427   .     S
C26    C636    1.426   .     S
C27    Cl32    1.773   .     S
C27    C28     1.409   .     A
C28    Cl35    1.778   .     S
Cl30   C76     1.775   .     S
Cl31   C216    1.770   .     S
Cl33   C636    1.770   .     S
H36    C422    1.088   1_545 S
H38    C90     1.110   .     S
H47    C641    1.113   .     S
O49    Zn68    1.942   .     S
O49    Zn69    1.940   .     S
O49    Zn66    1.955   .     S
O49    Zn67    1.924   .     S
O50    Zn67    1.915   .     S
O51    Zn69    1.916   .     S
O52    Zn68    1.906   .     S
O53    Zn66    1.908   .     S
O56    C633    1.383   1_554 S
O57    C144    1.397   1_455 S
O58    Zn66    1.931   .     S
O59    Zn69    1.939   .     S
O60    Zn67    1.943   .     S
O61    Zn68    1.944   .     S
O62    Zn69    1.935   .     S
O63    Zn66    1.938   .     S
O64    Zn67    1.946   .     S
O65    Zn68    1.938   .     S
C70    O131    1.271   .     A
C70    O129    1.255   .     A
C70    C76     1.435   .     S
C71    C85     1.392   .     A
C71    Cl103   1.775   .     S
C71    C94     1.417   .     A
C72    C84     1.404   .     A
C72    Cl98    1.770   .     S
C72    C85     1.402   .     A
C73    O132    1.278   .     A
C73    C75     1.475   .     S
C73    O130    1.285   .     A
C74    C83     1.488   .     S
C74    C93     1.423   .     A
C74    C86     1.420   .     A
C75    C145    1.350   .     S
C75    O195    1.397   .     S
C77    C80     1.453   .     S
C77    C285    1.345   .     S
C77    H312    1.088   .     S
C78    C79     1.427   .     S
C78    C491    1.345   1_545 S
C78    Cl514   1.770   1_545 S
C79    O127    1.268   .     A
C79    O133    1.265   .     A
C80    O128    1.267   .     A
C80    O134    1.281   .     A
C81    C86     1.403   .     A
C81    C712    1.399   .     S
C81    O746    1.383   .     S
C82    O121    1.282   .     A
C82    O119    1.274   .     A
C82    C85     1.467   .     S
C83    O120    1.287   .     A
C83    O122    1.296   .     A
C84    C716    1.426   1_554 S
C84    Cl723   1.770   1_554 S
C86    O123    1.384   .     S
C87    H112    1.109   .     S
C87    H111    1.114   .     S
C87    H110    1.111   .     S
C87    O123    1.412   .     S
C88    H114    1.112   .     S
C88    H115    1.107   .     S
C88    H113    1.113   .     S
C88    O124    1.411   .     S
C89    H106    1.109   .     S
C89    O125    1.410   .     S
C89    H117    1.112   .     S
C89    H737    1.113   1_554 S
C90    O126    1.411   .     S
C90    H109    1.109   .     S
C90    H108    1.114   .     S
C91    O124    1.384   .     S
C91    C702    1.399   1_554 S
C91    C713    1.418   1_554 S
C92    C93     1.408   .     A
C92    C712    1.418   .     S
C92    C715    1.418   .     S
C93    C97     1.416   .     A
C94    C713    1.418   1_554 S
C94    C716    1.427   1_554 S
C95    C96     1.424   .     A
C95    C715    1.427   .     S
C95    C705    1.426   .     S
C96    Cl101   1.773   .     S
C96    C97     1.409   .     A
C97    Cl104   1.778   .     S
Cl99   C145    1.775   .     S
Cl100  C285    1.770   .     S
Cl102  C705    1.770   .     S
H105   C491    1.088   1_545 S
H107   C159    1.110   .     S
H116   C710    1.113   .     S
O118   Zn137   1.942   .     S
O118   Zn138   1.940   .     S
O118   Zn135   1.955   .     S
O118   Zn136   1.924   .     S
O119   Zn136   1.915   .     S
O120   Zn138   1.916   .     S
O121   Zn137   1.906   .     S
O122   Zn135   1.908   .     S
O125   C702    1.383   1_554 S
O127   Zn135   1.931   .     S
O128   Zn138   1.939   .     S
O129   Zn136   1.943   .     S
O130   Zn137   1.944   .     S
O131   Zn138   1.935   .     S
O132   Zn135   1.938   .     S
O133   Zn136   1.946   .     S
O134   Zn137   1.938   .     S
C139   O200    1.271   .     A
C139   O198    1.255   .     A
C139   C145    1.435   .     S
C140   C154    1.392   .     A
C140   Cl172   1.775   .     S
C140   C163    1.417   .     A
C141   C153    1.404   .     A
C141   Cl167   1.770   .     S
C141   C154    1.402   .     A
C142   O201    1.278   .     A
C142   C144    1.475   .     S
C142   O199    1.285   .     A
C143   C152    1.488   .     S
C143   C162    1.423   .     A
C143   C155    1.420   .     A
C144   C7      1.350   1_655 S
C144   O57     1.397   1_655 S
C146   C149    1.453   .     S
C146   C354    1.345   .     S
C146   H381    1.088   .     S
C147   C148    1.427   .     S
C147   C560    1.345   1_545 S
C147   Cl583   1.770   1_545 S
C148   O196    1.268   .     A
C148   O202    1.265   .     A
C149   O197    1.267   .     A
C149   O203    1.281   .     A
C150   C155    1.403   .     A
C150   C781    1.399   .     S
C150   O815    1.383   .     S
C151   O190    1.282   .     A
C151   O188    1.274   .     A
C151   C154    1.467   .     S
C152   O189    1.287   .     A
C152   O191    1.296   .     A
C153   C785    1.426   1_554 S
C153   Cl792   1.770   1_554 S
C155   O192    1.384   .     S
C156   H181    1.109   .     S
C156   H180    1.114   .     S
C156   H179    1.111   .     S
C156   O192    1.412   .     S
C157   H183    1.112   .     S
C157   H184    1.107   .     S
C157   H182    1.113   .     S
C157   O193    1.411   .     S
C158   H175    1.109   .     S
C158   O194    1.410   .     S
C158   H186    1.112   .     S
C158   H806    1.113   1_554 S
C159   O195    1.411   .     S
C159   H178    1.109   .     S
C159   H177    1.114   .     S
C160   O193    1.384   .     S
C160   C771    1.399   1_554 S
C160   C782    1.418   1_554 S
C161   C162    1.408   .     A
C161   C781    1.418   .     S
C161   C784    1.418   .     S
C162   C166    1.416   .     A
C163   C782    1.418   1_554 S
C163   C785    1.427   1_554 S
C164   C165    1.424   .     A
C164   C784    1.427   .     S
C164   C774    1.426   .     S
C165   Cl170   1.773   .     S
C165   C166    1.409   .     A
C166   Cl173   1.778   .     S
Cl168  C7      1.775   1_655 S
Cl169  C354    1.770   .     S
Cl171  C774    1.770   .     S
H174   C560    1.088   1_545 S
H176   C21     1.110   1_655 S
H185   C779    1.113   .     S
O187   Zn206   1.942   .     S
O187   Zn207   1.940   .     S
O187   Zn204   1.955   .     S
O187   Zn205   1.924   .     S
O188   Zn205   1.915   .     S
O189   Zn207   1.916   .     S
O190   Zn206   1.906   .     S
O191   Zn204   1.908   .     S
O194   C771    1.383   1_554 S
O196   Zn204   1.931   .     S
O197   Zn207   1.939   .     S
O198   Zn205   1.943   .     S
O199   Zn206   1.944   .     S
O200   Zn207   1.935   .     S
O201   Zn204   1.938   .     S
O202   Zn205   1.946   .     S
O203   Zn206   1.938   .     S
C208   O269    1.271   .     A
C208   O267    1.255   .     A
C208   C214    1.435   .     S
C209   C223    1.392   .     A
C209   Cl241   1.775   .     S
C209   C232    1.417   .     A
C210   C222    1.404   .     A
C210   Cl236   1.770   .     S
C210   C223    1.402   .     A
C211   O270    1.278   .     A
C211   C213    1.475   .     S
C211   O268    1.285   .     A
C212   C221    1.488   .     S
C212   C231    1.423   .     A
C212   C224    1.420   .     A
C213   C283    1.350   .     S
C213   O333    1.397   .     S
C214   C351    1.350   1_455 S
C214   Cl375   1.775   1_455 S
C215   C218    1.453   .     S
C215   C423    1.345   .     S
C215   H450    1.088   .     S
C216   C217    1.427   .     S
C217   O265    1.268   .     A
C217   O271    1.265   .     A
C218   O266    1.267   .     A
C218   O272    1.281   .     A
C219   C224    1.403   .     A
C219   C850    1.399   .     S
C219   O884    1.383   .     S
C220   O259    1.282   .     A
C220   O257    1.274   .     A
C220   C223    1.467   .     S
C221   O258    1.287   .     A
C221   O260    1.296   .     A
C222   C854    1.426   1_554 S
C222   Cl861   1.770   1_554 S
C224   O261    1.384   .     S
C225   H250    1.109   .     S
C225   H249    1.114   .     S
C225   H248    1.111   .     S
C225   O261    1.412   .     S
C226   H252    1.112   .     S
C226   H253    1.107   .     S
C226   H251    1.113   .     S
C226   O262    1.411   .     S
C227   H244    1.109   .     S
C227   O263    1.410   .     S
C227   H255    1.112   .     S
C227   H875    1.113   1_554 S
C228   O264    1.411   .     S
C228   H247    1.109   .     S
C228   H246    1.114   .     S
C228   H383    1.110   1_455 S
C229   O262    1.384   .     S
C229   C840    1.399   1_554 S
C229   C851    1.418   1_554 S
C230   C231    1.408   .     A
C230   C850    1.418   .     S
C230   C853    1.418   .     S
C231   C235    1.416   .     A
C232   C851    1.418   1_554 S
C232   C854    1.427   1_554 S
C233   C234    1.424   .     A
C233   C853    1.427   .     S
C233   C843    1.426   .     S
C234   Cl239   1.773   .     S
C234   C235    1.409   .     A
C235   Cl242   1.778   .     S
Cl237  C283    1.775   .     S
Cl238  C423    1.770   .     S
Cl240  C843    1.770   .     S
H245   C297    1.110   .     S
H254   C848    1.113   .     S
O256   Zn275   1.942   .     S
O256   Zn276   1.940   .     S
O256   Zn273   1.955   .     S
O256   Zn274   1.924   .     S
O257   Zn274   1.915   .     S
O258   Zn276   1.916   .     S
O259   Zn275   1.906   .     S
O260   Zn273   1.908   .     S
O263   C840    1.383   1_554 S
O264   C351    1.397   1_455 S
O265   Zn273   1.931   .     S
O266   Zn276   1.939   .     S
O267   Zn274   1.943   .     S
O268   Zn275   1.944   .     S
O269   Zn276   1.935   .     S
O270   Zn273   1.938   .     S
O271   Zn274   1.946   .     S
O272   Zn275   1.938   .     S
C277   O338    1.271   .     A
C277   O336    1.255   .     A
C277   C283    1.435   .     S
C278   C292    1.392   .     A
C278   Cl310   1.775   .     S
C278   C301    1.417   .     A
C279   C291    1.404   .     A
C279   Cl305   1.770   .     S
C279   C292    1.402   .     A
C280   O339    1.278   .     A
C280   C282    1.475   .     S
C280   O337    1.285   .     A
C281   C290    1.488   .     S
C281   C300    1.423   .     A
C281   C293    1.420   .     A
C282   C352    1.350   .     S
C282   O402    1.397   .     S
C284   C287    1.453   .     S
C284   C492    1.345   .     S
C284   H519    1.088   .     S
C285   C286    1.427   .     S
C286   O334    1.268   .     A
C286   O340    1.265   .     A
C287   O335    1.267   .     A
C287   O341    1.281   .     A
C288   C293    1.403   .     A
C288   C919    1.399   .     S
C288   O953    1.383   .     S
C289   O328    1.282   .     A
C289   O326    1.274   .     A
C289   C292    1.467   .     S
C290   O327    1.287   .     A
C290   O329    1.296   .     A
C291   C923    1.426   1_554 S
C291   Cl930   1.770   1_554 S
C293   O330    1.384   .     S
C294   H319    1.109   .     S
C294   H318    1.114   .     S
C294   H317    1.111   .     S
C294   O330    1.412   .     S
C295   H321    1.112   .     S
C295   H322    1.107   .     S
C295   H320    1.113   .     S
C295   O331    1.411   .     S
C296   H313    1.109   .     S
C296   O332    1.410   .     S
C296   H324    1.112   .     S
C296   H944    1.113   1_554 S
C297   O333    1.411   .     S
C297   H316    1.109   .     S
C297   H315    1.114   .     S
C298   O331    1.384   .     S
C298   C909    1.399   1_554 S
C298   C920    1.418   1_554 S
C299   C300    1.408   .     A
C299   C919    1.418   .     S
C299   C922    1.418   .     S
C300   C304    1.416   .     A
C301   C920    1.418   1_554 S
C301   C923    1.427   1_554 S
C302   C303    1.424   .     A
C302   C922    1.427   .     S
C302   C912    1.426   .     S
C303   Cl308   1.773   .     S
C303   C304    1.409   .     A
C304   Cl311   1.778   .     S
Cl306  C352    1.775   .     S
Cl307  C492    1.770   .     S
Cl309  C912    1.770   .     S
H314   C366    1.110   .     S
H323   C917    1.113   .     S
O325   Zn344   1.942   .     S
O325   Zn345   1.940   .     S
O325   Zn342   1.955   .     S
O325   Zn343   1.924   .     S
O326   Zn343   1.915   .     S
O327   Zn345   1.916   .     S
O328   Zn344   1.906   .     S
O329   Zn342   1.908   .     S
O332   C909    1.383   1_554 S
O334   Zn342   1.931   .     S
O335   Zn345   1.939   .     S
O336   Zn343   1.943   .     S
O337   Zn344   1.944   .     S
O338   Zn345   1.935   .     S
O339   Zn342   1.938   .     S
O340   Zn343   1.946   .     S
O341   Zn344   1.938   .     S
C346   O407    1.271   .     A
C346   O405    1.255   .     A
C346   C352    1.435   .     S
C347   C361    1.392   .     A
C347   Cl379   1.775   .     S
C347   C370    1.417   .     A
C348   C360    1.404   .     A
C348   Cl374   1.770   .     S
C348   C361    1.402   .     A
C349   O408    1.278   .     A
C349   C351    1.475   .     S
C349   O406    1.285   .     A
C350   C359    1.488   .     S
C350   C369    1.423   .     A
C350   C362    1.420   .     A
C351   C214    1.350   1_655 S
C351   O264    1.397   1_655 S
C353   C356    1.453   .     S
C353   C561    1.345   .     S
C353   H588    1.088   .     S
C354   C355    1.427   .     S
C355   O403    1.268   .     A
C355   O409    1.265   .     A
C356   O404    1.267   .     A
C356   O410    1.281   .     A
C357   C362    1.403   .     A
C357   C988    1.399   .     S
C357   O1022   1.383   .     S
C358   O397    1.282   .     A
C358   O395    1.274   .     A
C358   C361    1.467   .     S
C359   O396    1.287   .     A
C359   O398    1.296   .     A
C360   C992    1.426   1_554 S
C360   Cl999   1.770   1_554 S
C362   O399    1.384   .     S
C363   H388    1.109   .     S
C363   H387    1.114   .     S
C363   H386    1.111   .     S
C363   O399    1.412   .     S
C364   H390    1.112   .     S
C364   H391    1.107   .     S
C364   H389    1.113   .     S
C364   O400    1.411   .     S
C365   H382    1.109   .     S
C365   O401    1.410   .     S
C365   H393    1.112   .     S
C365   H1013   1.113   1_554 S
C366   O402    1.411   .     S
C366   H385    1.109   .     S
C366   H384    1.114   .     S
C367   O400    1.384   .     S
C367   C978    1.399   1_554 S
C367   C989    1.418   1_554 S
C368   C369    1.408   .     A
C368   C988    1.418   .     S
C368   C991    1.418   .     S
C369   C373    1.416   .     A
C370   C989    1.418   1_554 S
C370   C992    1.427   1_554 S
C371   C372    1.424   .     A
C371   C991    1.427   .     S
C371   C981    1.426   .     S
C372   Cl377   1.773   .     S
C372   C373    1.409   .     A
C373   Cl380   1.778   .     S
Cl375  C214    1.775   1_655 S
Cl376  C561    1.770   .     S
Cl378  C981    1.770   .     S
H383   C228    1.110   1_655 S
H392   C986    1.113   .     S
O394   Zn413   1.942   .     S
O394   Zn414   1.940   .     S
O394   Zn411   1.955   .     S
O394   Zn412   1.924   .     S
O395   Zn412   1.915   .     S
O396   Zn414   1.916   .     S
O397   Zn413   1.906   .     S
O398   Zn411   1.908   .     S
O401   C978    1.383   1_554 S
O403   Zn411   1.931   .     S
O404   Zn414   1.939   .     S
O405   Zn412   1.943   .     S
O406   Zn413   1.944   .     S
O407   Zn414   1.935   .     S
O408   Zn411   1.938   .     S
O409   Zn412   1.946   .     S
O410   Zn413   1.938   .     S
C415   O476    1.271   .     A
C415   O474    1.255   .     A
C415   C421    1.435   .     S
C416   C430    1.392   .     A
C416   Cl448   1.775   .     S
C416   C439    1.417   .     A
C417   C429    1.404   .     A
C417   Cl443   1.770   .     S
C417   C430    1.402   .     A
C418   O477    1.278   .     A
C418   C420    1.475   .     S
C418   O475    1.285   .     A
C419   C428    1.488   .     S
C419   C438    1.423   .     A
C419   C431    1.420   .     A
C420   C490    1.350   .     S
C420   O540    1.397   .     S
C421   C558    1.350   1_455 S
C421   Cl582   1.775   1_455 S
C422   C425    1.453   .     S
C422   C9      1.345   1_565 S
C422   H36     1.088   1_565 S
C423   C424    1.427   .     S
C424   O472    1.268   .     A
C424   O478    1.265   .     A
C425   O473    1.267   .     A
C425   O479    1.281   .     A
C426   C431    1.403   .     A
C426   C1057   1.399   .     S
C426   O1091   1.383   .     S
C427   O466    1.282   .     A
C427   O464    1.274   .     A
C427   C430    1.467   .     S
C428   O465    1.287   .     A
C428   O467    1.296   .     A
C429   C1061   1.426   1_554 S
C429   Cl1068  1.770   1_554 S
C431   O468    1.384   .     S
C432   H457    1.109   .     S
C432   H456    1.114   .     S
C432   H455    1.111   .     S
C432   O468    1.412   .     S
C433   H459    1.112   .     S
C433   H460    1.107   .     S
C433   H458    1.113   .     S
C433   O469    1.411   .     S
C434   H451    1.109   .     S
C434   O470    1.410   .     S
C434   H462    1.112   .     S
C434   H1082   1.113   1_554 S
C435   O471    1.411   .     S
C435   H454    1.109   .     S
C435   H453    1.114   .     S
C435   H590    1.110   1_455 S
C436   O469    1.384   .     S
C436   C1047   1.399   1_554 S
C436   C1058   1.418   1_554 S
C437   C438    1.408   .     A
C437   C1057   1.418   .     S
C437   C1060   1.418   .     S
C438   C442    1.416   .     A
C439   C1058   1.418   1_554 S
C439   C1061   1.427   1_554 S
C440   C441    1.424   .     A
C440   C1060   1.427   .     S
C440   C1050   1.426   .     S
C441   Cl446   1.773   .     S
C441   C442    1.409   .     A
C442   Cl449   1.778   .     S
Cl444  C490    1.775   .     S
Cl445  C9      1.770   1_565 S
Cl447  C1050   1.770   .     S
H452   C504    1.110   .     S
H461   C1055   1.113   .     S
O463   Zn482   1.942   .     S
O463   Zn483   1.940   .     S
O463   Zn480   1.955   .     S
O463   Zn481   1.924   .     S
O464   Zn481   1.915   .     S
O465   Zn483   1.916   .     S
O466   Zn482   1.906   .     S
O467   Zn480   1.908   .     S
O470   C1047   1.383   1_554 S
O471   C558    1.397   1_455 S
O472   Zn480   1.931   .     S
O473   Zn483   1.939   .     S
O474   Zn481   1.943   .     S
O475   Zn482   1.944   .     S
O476   Zn483   1.935   .     S
O477   Zn480   1.938   .     S
O478   Zn481   1.946   .     S
O479   Zn482   1.938   .     S
C484   O545    1.271   .     A
C484   O543    1.255   .     A
C484   C490    1.435   .     S
C485   C499    1.392   .     A
C485   Cl517   1.775   .     S
C485   C508    1.417   .     A
C486   C498    1.404   .     A
C486   Cl512   1.770   .     S
C486   C499    1.402   .     A
C487   O546    1.278   .     A
C487   C489    1.475   .     S
C487   O544    1.285   .     A
C488   C497    1.488   .     S
C488   C507    1.423   .     A
C488   C500    1.420   .     A
C489   C559    1.350   .     S
C489   O609    1.397   .     S
C491   C494    1.453   .     S
C491   C78     1.345   1_565 S
C491   H105    1.088   1_565 S
C492   C493    1.427   .     S
C493   O541    1.268   .     A
C493   O547    1.265   .     A
C494   O542    1.267   .     A
C494   O548    1.281   .     A
C495   C500    1.403   .     A
C495   C1126   1.399   .     S
C495   O1160   1.383   .     S
C496   O535    1.282   .     A
C496   O533    1.274   .     A
C496   C499    1.467   .     S
C497   O534    1.287   .     A
C497   O536    1.296   .     A
C498   C1130   1.426   1_554 S
C498   Cl1137  1.770   1_554 S
C500   O537    1.384   .     S
C501   H526    1.109   .     S
C501   H525    1.114   .     S
C501   H524    1.111   .     S
C501   O537    1.412   .     S
C502   H528    1.112   .     S
C502   H529    1.107   .     S
C502   H527    1.113   .     S
C502   O538    1.411   .     S
C503   H520    1.109   .     S
C503   O539    1.410   .     S
C503   H531    1.112   .     S
C503   H1151   1.113   1_554 S
C504   O540    1.411   .     S
C504   H523    1.109   .     S
C504   H522    1.114   .     S
C505   O538    1.384   .     S
C505   C1116   1.399   1_554 S
C505   C1127   1.418   1_554 S
C506   C507    1.408   .     A
C506   C1126   1.418   .     S
C506   C1129   1.418   .     S
C507   C511    1.416   .     A
C508   C1127   1.418   1_554 S
C508   C1130   1.427   1_554 S
C509   C510    1.424   .     A
C509   C1129   1.427   .     S
C509   C1119   1.426   .     S
C510   Cl515   1.773   .     S
C510   C511    1.409   .     A
C511   Cl518   1.778   .     S
Cl513  C559    1.775   .     S
Cl514  C78     1.770   1_565 S
Cl516  C1119   1.770   .     S
H521   C573    1.110   .     S
H530   C1124   1.113   .     S
O532   Zn551   1.942   .     S
O532   Zn552   1.940   .     S
O532   Zn549   1.955   .     S
O532   Zn550   1.924   .     S
O533   Zn550   1.915   .     S
O534   Zn552   1.916   .     S
O535   Zn551   1.906   .     S
O536   Zn549   1.908   .     S
O539   C1116   1.383   1_554 S
O541   Zn549   1.931   .     S
O542   Zn552   1.939   .     S
O543   Zn550   1.943   .     S
O544   Zn551   1.944   .     S
O545   Zn552   1.935   .     S
O546   Zn549   1.938   .     S
O547   Zn550   1.946   .     S
O548   Zn551   1.938   .     S
C553   O614    1.271   .     A
C553   O612    1.255   .     A
C553   C559    1.435   .     S
C554   C568    1.392   .     A
C554   Cl586   1.775   .     S
C554   C577    1.417   .     A
C555   C567    1.404   .     A
C555   Cl581   1.770   .     S
C555   C568    1.402   .     A
C556   O615    1.278   .     A
C556   C558    1.475   .     S
C556   O613    1.285   .     A
C557   C566    1.488   .     S
C557   C576    1.423   .     A
C557   C569    1.420   .     A
C558   C421    1.350   1_655 S
C558   O471    1.397   1_655 S
C560   C563    1.453   .     S
C560   C147    1.345   1_565 S
C560   H174    1.088   1_565 S
C561   C562    1.427   .     S
C562   O610    1.268   .     A
C562   O616    1.265   .     A
C563   O611    1.267   .     A
C563   O617    1.281   .     A
C564   C569    1.403   .     A
C564   C1195   1.399   .     S
C564   O1229   1.383   .     S
C565   O604    1.282   .     A
C565   O602    1.274   .     A
C565   C568    1.467   .     S
C566   O603    1.287   .     A
C566   O605    1.296   .     A
C567   C1199   1.426   1_554 S
C567   Cl1206  1.770   1_554 S
C569   O606    1.384   .     S
C570   H595    1.109   .     S
C570   H594    1.114   .     S
C570   H593    1.111   .     S
C570   O606    1.412   .     S
C571   H597    1.112   .     S
C571   H598    1.107   .     S
C571   H596    1.113   .     S
C571   O607    1.411   .     S
C572   H589    1.109   .     S
C572   O608    1.410   .     S
C572   H600    1.112   .     S
C572   H1220   1.113   1_554 S
C573   O609    1.411   .     S
C573   H592    1.109   .     S
C573   H591    1.114   .     S
C574   O607    1.384   .     S
C574   C1185   1.399   1_554 S
C574   C1196   1.418   1_554 S
C575   C576    1.408   .     A
C575   C1195   1.418   .     S
C575   C1198   1.418   .     S
C576   C580    1.416   .     A
C577   C1196   1.418   1_554 S
C577   C1199   1.427   1_554 S
C578   C579    1.424   .     A
C578   C1198   1.427   .     S
C578   C1188   1.426   .     S
C579   Cl584   1.773   .     S
C579   C580    1.409   .     A
C580   Cl587   1.778   .     S
Cl582  C421    1.775   1_655 S
Cl583  C147    1.770   1_565 S
Cl585  C1188   1.770   .     S
H590   C435    1.110   1_655 S
H599   C1193   1.113   .     S
O601   Zn620   1.942   .     S
O601   Zn621   1.940   .     S
O601   Zn618   1.955   .     S
O601   Zn619   1.924   .     S
O602   Zn619   1.915   .     S
O603   Zn621   1.916   .     S
O604   Zn620   1.906   .     S
O605   Zn618   1.908   .     S
O608   C1185   1.383   1_554 S
O610   Zn618   1.931   .     S
O611   Zn621   1.939   .     S
O612   Zn619   1.943   .     S
O613   Zn620   1.944   .     S
O614   Zn621   1.935   .     S
O615   Zn618   1.938   .     S
O616   Zn619   1.946   .     S
O617   Zn620   1.938   .     S
C622   O683    1.271   .     A
C622   O681    1.255   .     A
C622   C628    1.435   .     S
C623   C637    1.392   .     A
C623   Cl655   1.775   .     S
C623   C646    1.417   .     A
C624   C636    1.404   .     A
C624   Cl650   1.770   .     S
C624   C637    1.402   .     A
C625   O684    1.278   .     A
C625   C627    1.475   .     S
C625   O682    1.285   .     A
C626   C635    1.488   .     S
C626   C645    1.423   .     A
C626   C638    1.420   .     A
C627   C697    1.350   .     S
C627   O747    1.397   .     S
C628   C765    1.350   1_455 S
C628   Cl789   1.775   1_455 S
C629   C632    1.453   .     S
C629   C837    1.345   .     S
C629   H864    1.088   .     S
C630   C631    1.427   .     S
C630   C1043   1.345   1_545 S
C630   Cl1066  1.770   1_545 S
C631   O679    1.268   .     A
C631   O685    1.265   .     A
C632   O680    1.267   .     A
C632   O686    1.281   .     A
C633   C638    1.403   .     A
C633   C22     1.399   1_556 S
C633   O56     1.383   1_556 S
C634   O673    1.282   .     A
C634   O671    1.274   .     A
C634   C637    1.467   .     S
C635   O672    1.287   .     A
C635   O674    1.296   .     A
C638   O675    1.384   .     S
C639   H664    1.109   .     S
C639   H663    1.114   .     S
C639   H662    1.111   .     S
C639   O675    1.412   .     S
C640   H666    1.112   .     S
C640   H667    1.107   .     S
C640   H665    1.113   .     S
C640   O676    1.411   .     S
C641   H658    1.109   .     S
C641   O677    1.410   .     S
C641   H669    1.112   .     S
C642   O678    1.411   .     S
C642   H661    1.109   .     S
C642   H660    1.114   .     S
C642   H797    1.110   1_455 S
C643   O676    1.384   .     S
C644   C645    1.408   .     A
C644   C22     1.418   1_556 S
C644   C25     1.418   1_556 S
C645   C649    1.416   .     A
C647   C648    1.424   .     A
C647   C25     1.427   1_556 S
C647   C15     1.426   1_556 S
C648   Cl653   1.773   .     S
C648   C649    1.409   .     A
C649   Cl656   1.778   .     S
Cl651  C697    1.775   .     S
Cl652  C837    1.770   .     S
Cl654  C15     1.770   1_556 S
H657   C1043   1.088   1_545 S
H659   C711    1.110   .     S
H668   C20     1.113   1_556 S
O670   Zn689   1.942   .     S
O670   Zn690   1.940   .     S
O670   Zn687   1.955   .     S
O670   Zn688   1.924   .     S
O671   Zn688   1.915   .     S
O672   Zn690   1.916   .     S
O673   Zn689   1.906   .     S
O674   Zn687   1.908   .     S
O678   C765    1.397   1_455 S
O679   Zn687   1.931   .     S
O680   Zn690   1.939   .     S
O681   Zn688   1.943   .     S
O682   Zn689   1.944   .     S
O683   Zn690   1.935   .     S
O684   Zn687   1.938   .     S
O685   Zn688   1.946   .     S
O686   Zn689   1.938   .     S
C691   O752    1.271   .     A
C691   O750    1.255   .     A
C691   C697    1.435   .     S
C692   C706    1.392   .     A
C692   Cl724   1.775   .     S
C692   C715    1.417   .     A
C693   C705    1.404   .     A
C693   Cl719   1.770   .     S
C693   C706    1.402   .     A
C694   O753    1.278   .     A
C694   C696    1.475   .     S
C694   O751    1.285   .     A
C695   C704    1.488   .     S
C695   C714    1.423   .     A
C695   C707    1.420   .     A
C696   C766    1.350   .     S
C696   O816    1.397   .     S
C698   C701    1.453   .     S
C698   C906    1.345   .     S
C698   H933    1.088   .     S
C699   C700    1.427   .     S
C699   C1112   1.345   1_545 S
C699   Cl1135  1.770   1_545 S
C700   O748    1.268   .     A
C700   O754    1.265   .     A
C701   O749    1.267   .     A
C701   O755    1.281   .     A
C702   C707    1.403   .     A
C702   C91     1.399   1_556 S
C702   O125    1.383   1_556 S
C703   O742    1.282   .     A
C703   O740    1.274   .     A
C703   C706    1.467   .     S
C704   O741    1.287   .     A
C704   O743    1.296   .     A
C707   O744    1.384   .     S
C708   H733    1.109   .     S
C708   H732    1.114   .     S
C708   H731    1.111   .     S
C708   O744    1.412   .     S
C709   H735    1.112   .     S
C709   H736    1.107   .     S
C709   H734    1.113   .     S
C709   O745    1.411   .     S
C710   H727    1.109   .     S
C710   O746    1.410   .     S
C710   H738    1.112   .     S
C711   O747    1.411   .     S
C711   H730    1.109   .     S
C711   H729    1.114   .     S
C712   O745    1.384   .     S
C713   C714    1.408   .     A
C713   C91     1.418   1_556 S
C713   C94     1.418   1_556 S
C714   C718    1.416   .     A
C716   C717    1.424   .     A
C716   C94     1.427   1_556 S
C716   C84     1.426   1_556 S
C717   Cl722   1.773   .     S
C717   C718    1.409   .     A
C718   Cl725   1.778   .     S
Cl720  C766    1.775   .     S
Cl721  C906    1.770   .     S
Cl723  C84     1.770   1_556 S
H726   C1112   1.088   1_545 S
H728   C780    1.110   .     S
H737   C89     1.113   1_556 S
O739   Zn758   1.942   .     S
O739   Zn759   1.940   .     S
O739   Zn756   1.955   .     S
O739   Zn757   1.924   .     S
O740   Zn757   1.915   .     S
O741   Zn759   1.916   .     S
O742   Zn758   1.906   .     S
O743   Zn756   1.908   .     S
O748   Zn756   1.931   .     S
O749   Zn759   1.939   .     S
O750   Zn757   1.943   .     S
O751   Zn758   1.944   .     S
O752   Zn759   1.935   .     S
O753   Zn756   1.938   .     S
O754   Zn757   1.946   .     S
O755   Zn758   1.938   .     S
C760   O821    1.271   .     A
C760   O819    1.255   .     A
C760   C766    1.435   .     S
C761   C775    1.392   .     A
C761   Cl793   1.775   .     S
C761   C784    1.417   .     A
C762   C774    1.404   .     A
C762   Cl788   1.770   .     S
C762   C775    1.402   .     A
C763   O822    1.278   .     A
C763   C765    1.475   .     S
C763   O820    1.285   .     A
C764   C773    1.488   .     S
C764   C783    1.423   .     A
C764   C776    1.420   .     A
C765   C628    1.350   1_655 S
C765   O678    1.397   1_655 S
C767   C770    1.453   .     S
C767   C975    1.345   .     S
C767   H1002   1.088   .     S
C768   C769    1.427   .     S
C768   C1181   1.345   1_545 S
C768   Cl1204  1.770   1_545 S
C769   O817    1.268   .     A
C769   O823    1.265   .     A
C770   O818    1.267   .     A
C770   O824    1.281   .     A
C771   C776    1.403   .     A
C771   C160    1.399   1_556 S
C771   O194    1.383   1_556 S
C772   O811    1.282   .     A
C772   O809    1.274   .     A
C772   C775    1.467   .     S
C773   O810    1.287   .     A
C773   O812    1.296   .     A
C776   O813    1.384   .     S
C777   H802    1.109   .     S
C777   H801    1.114   .     S
C777   H800    1.111   .     S
C777   O813    1.412   .     S
C778   H804    1.112   .     S
C778   H805    1.107   .     S
C778   H803    1.113   .     S
C778   O814    1.411   .     S
C779   H796    1.109   .     S
C779   O815    1.410   .     S
C779   H807    1.112   .     S
C780   O816    1.411   .     S
C780   H799    1.109   .     S
C780   H798    1.114   .     S
C781   O814    1.384   .     S
C782   C783    1.408   .     A
C782   C160    1.418   1_556 S
C782   C163    1.418   1_556 S
C783   C787    1.416   .     A
C785   C786    1.424   .     A
C785   C163    1.427   1_556 S
C785   C153    1.426   1_556 S
C786   Cl791   1.773   .     S
C786   C787    1.409   .     A
C787   Cl794   1.778   .     S
Cl789  C628    1.775   1_655 S
Cl790  C975    1.770   .     S
Cl792  C153    1.770   1_556 S
H795   C1181   1.088   1_545 S
H797   C642    1.110   1_655 S
H806   C158    1.113   1_556 S
O808   Zn827   1.942   .     S
O808   Zn828   1.940   .     S
O808   Zn825   1.955   .     S
O808   Zn826   1.924   .     S
O809   Zn826   1.915   .     S
O810   Zn828   1.916   .     S
O811   Zn827   1.906   .     S
O812   Zn825   1.908   .     S
O817   Zn825   1.931   .     S
O818   Zn828   1.939   .     S
O819   Zn826   1.943   .     S
O820   Zn827   1.944   .     S
O821   Zn828   1.935   .     S
O822   Zn825   1.938   .     S
O823   Zn826   1.946   .     S
O824   Zn827   1.938   .     S
C829   O890    1.271   .     A
C829   O888    1.255   .     A
C829   C835    1.435   .     S
C830   C844    1.392   .     A
C830   Cl862   1.775   .     S
C830   C853    1.417   .     A
C831   C843    1.404   .     A
C831   Cl857   1.770   .     S
C831   C844    1.402   .     A
C832   O891    1.278   .     A
C832   C834    1.475   .     S
C832   O889    1.285   .     A
C833   C842    1.488   .     S
C833   C852    1.423   .     A
C833   C845    1.420   .     A
C834   C904    1.350   .     S
C834   O954    1.397   .     S
C835   C972    1.350   1_455 S
C835   Cl996   1.775   1_455 S
C836   C839    1.453   .     S
C836   C1044   1.345   .     S
C836   H1071   1.088   .     S
C837   C838    1.427   .     S
C838   O886    1.268   .     A
C838   O892    1.265   .     A
C839   O887    1.267   .     A
C839   O893    1.281   .     A
C840   C845    1.403   .     A
C840   C229    1.399   1_556 S
C840   O263    1.383   1_556 S
C841   O880    1.282   .     A
C841   O878    1.274   .     A
C841   C844    1.467   .     S
C842   O879    1.287   .     A
C842   O881    1.296   .     A
C845   O882    1.384   .     S
C846   H871    1.109   .     S
C846   H870    1.114   .     S
C846   H869    1.111   .     S
C846   O882    1.412   .     S
C847   H873    1.112   .     S
C847   H874    1.107   .     S
C847   H872    1.113   .     S
C847   O883    1.411   .     S
C848   H865    1.109   .     S
C848   O884    1.410   .     S
C848   H876    1.112   .     S
C849   O885    1.411   .     S
C849   H868    1.109   .     S
C849   H867    1.114   .     S
C849   H1004   1.110   1_455 S
C850   O883    1.384   .     S
C851   C852    1.408   .     A
C851   C229    1.418   1_556 S
C851   C232    1.418   1_556 S
C852   C856    1.416   .     A
C854   C855    1.424   .     A
C854   C232    1.427   1_556 S
C854   C222    1.426   1_556 S
C855   Cl860   1.773   .     S
C855   C856    1.409   .     A
C856   Cl863   1.778   .     S
Cl858  C904    1.775   .     S
Cl859  C1044   1.770   .     S
Cl861  C222    1.770   1_556 S
H866   C918    1.110   .     S
H875   C227    1.113   1_556 S
O877   Zn896   1.942   .     S
O877   Zn897   1.940   .     S
O877   Zn894   1.955   .     S
O877   Zn895   1.924   .     S
O878   Zn895   1.915   .     S
O879   Zn897   1.916   .     S
O880   Zn896   1.906   .     S
O881   Zn894   1.908   .     S
O885   C972    1.397   1_455 S
O886   Zn894   1.931   .     S
O887   Zn897   1.939   .     S
O888   Zn895   1.943   .     S
O889   Zn896   1.944   .     S
O890   Zn897   1.935   .     S
O891   Zn894   1.938   .     S
O892   Zn895   1.946   .     S
O893   Zn896   1.938   .     S
C898   O959    1.271   .     A
C898   O957    1.255   .     A
C898   C904    1.435   .     S
C899   C913    1.392   .     A
C899   Cl931   1.775   .     S
C899   C922    1.417   .     A
C900   C912    1.404   .     A
C900   Cl926   1.770   .     S
C900   C913    1.402   .     A
C901   O960    1.278   .     A
C901   C903    1.475   .     S
C901   O958    1.285   .     A
C902   C911    1.488   .     S
C902   C921    1.423   .     A
C902   C914    1.420   .     A
C903   C973    1.350   .     S
C903   O1023   1.397   .     S
C905   C908    1.453   .     S
C905   C1113   1.345   .     S
C905   H1140   1.088   .     S
C906   C907    1.427   .     S
C907   O955    1.268   .     A
C907   O961    1.265   .     A
C908   O956    1.267   .     A
C908   O962    1.281   .     A
C909   C914    1.403   .     A
C909   C298    1.399   1_556 S
C909   O332    1.383   1_556 S
C910   O949    1.282   .     A
C910   O947    1.274   .     A
C910   C913    1.467   .     S
C911   O948    1.287   .     A
C911   O950    1.296   .     A
C914   O951    1.384   .     S
C915   H940    1.109   .     S
C915   H939    1.114   .     S
C915   H938    1.111   .     S
C915   O951    1.412   .     S
C916   H942    1.112   .     S
C916   H943    1.107   .     S
C916   H941    1.113   .     S
C916   O952    1.411   .     S
C917   H934    1.109   .     S
C917   O953    1.410   .     S
C917   H945    1.112   .     S
C918   O954    1.411   .     S
C918   H937    1.109   .     S
C918   H936    1.114   .     S
C919   O952    1.384   .     S
C920   C921    1.408   .     A
C920   C298    1.418   1_556 S
C920   C301    1.418   1_556 S
C921   C925    1.416   .     A
C923   C924    1.424   .     A
C923   C301    1.427   1_556 S
C923   C291    1.426   1_556 S
C924   Cl929   1.773   .     S
C924   C925    1.409   .     A
C925   Cl932   1.778   .     S
Cl927  C973    1.775   .     S
Cl928  C1113   1.770   .     S
Cl930  C291    1.770   1_556 S
H935   C987    1.110   .     S
H944   C296    1.113   1_556 S
O946   Zn965   1.942   .     S
O946   Zn966   1.940   .     S
O946   Zn963   1.955   .     S
O946   Zn964   1.924   .     S
O947   Zn964   1.915   .     S
O948   Zn966   1.916   .     S
O949   Zn965   1.906   .     S
O950   Zn963   1.908   .     S
O955   Zn963   1.931   .     S
O956   Zn966   1.939   .     S
O957   Zn964   1.943   .     S
O958   Zn965   1.944   .     S
O959   Zn966   1.935   .     S
O960   Zn963   1.938   .     S
O961   Zn964   1.946   .     S
O962   Zn965   1.938   .     S
C967   O1028   1.271   .     A
C967   O1026   1.255   .     A
C967   C973    1.435   .     S
C968   C982    1.392   .     A
C968   Cl1000  1.775   .     S
C968   C991    1.417   .     A
C969   C981    1.404   .     A
C969   Cl995   1.770   .     S
C969   C982    1.402   .     A
C970   O1029   1.278   .     A
C970   C972    1.475   .     S
C970   O1027   1.285   .     A
C971   C980    1.488   .     S
C971   C990    1.423   .     A
C971   C983    1.420   .     A
C972   C835    1.350   1_655 S
C972   O885    1.397   1_655 S
C974   C977    1.453   .     S
C974   C1182   1.345   .     S
C974   H1209   1.088   .     S
C975   C976    1.427   .     S
C976   O1024   1.268   .     A
C976   O1030   1.265   .     A
C977   O1025   1.267   .     A
C977   O1031   1.281   .     A
C978   C983    1.403   .     A
C978   C367    1.399   1_556 S
C978   O401    1.383   1_556 S
C979   O1018   1.282   .     A
C979   O1016   1.274   .     A
C979   C982    1.467   .     S
C980   O1017   1.287   .     A
C980   O1019   1.296   .     A
C983   O1020   1.384   .     S
C984   H1009   1.109   .     S
C984   H1008   1.114   .     S
C984   H1007   1.111   .     S
C984   O1020   1.412   .     S
C985   H1011   1.112   .     S
C985   H1012   1.107   .     S
C985   H1010   1.113   .     S
C985   O1021   1.411   .     S
C986   H1003   1.109   .     S
C986   O1022   1.410   .     S
C986   H1014   1.112   .     S
C987   O1023   1.411   .     S
C987   H1006   1.109   .     S
C987   H1005   1.114   .     S
C988   O1021   1.384   .     S
C989   C990    1.408   .     A
C989   C367    1.418   1_556 S
C989   C370    1.418   1_556 S
C990   C994    1.416   .     A
C992   C993    1.424   .     A
C992   C370    1.427   1_556 S
C992   C360    1.426   1_556 S
C993   Cl998   1.773   .     S
C993   C994    1.409   .     A
C994   Cl1001  1.778   .     S
Cl996  C835    1.775   1_655 S
Cl997  C1182   1.770   .     S
Cl999  C360    1.770   1_556 S
H1004  C849    1.110   1_655 S
H1013  C365    1.113   1_556 S
O1015  Zn1034  1.942   .     S
O1015  Zn1035  1.940   .     S
O1015  Zn1032  1.955   .     S
O1015  Zn1033  1.924   .     S
O1016  Zn1033  1.915   .     S
O1017  Zn1035  1.916   .     S
O1018  Zn1034  1.906   .     S
O1019  Zn1032  1.908   .     S
O1024  Zn1032  1.931   .     S
O1025  Zn1035  1.939   .     S
O1026  Zn1033  1.943   .     S
O1027  Zn1034  1.944   .     S
O1028  Zn1035  1.935   .     S
O1029  Zn1032  1.938   .     S
O1030  Zn1033  1.946   .     S
O1031  Zn1034  1.938   .     S
C1036  O1097   1.271   .     A
C1036  O1095   1.255   .     A
C1036  C1042   1.435   .     S
C1037  C1051   1.392   .     A
C1037  Cl1069  1.775   .     S
C1037  C1060   1.417   .     A
C1038  C1050   1.404   .     A
C1038  Cl1064  1.770   .     S
C1038  C1051   1.402   .     A
C1039  O1098   1.278   .     A
C1039  C1041   1.475   .     S
C1039  O1096   1.285   .     A
C1040  C1049   1.488   .     S
C1040  C1059   1.423   .     A
C1040  C1052   1.420   .     A
C1041  C1111   1.350   .     S
C1041  O1161   1.397   .     S
C1042  C1179   1.350   1_455 S
C1042  Cl1203  1.775   1_455 S
C1043  C1046   1.453   .     S
C1043  C630    1.345   1_565 S
C1043  H657    1.088   1_565 S
C1044  C1045   1.427   .     S
C1045  O1093   1.268   .     A
C1045  O1099   1.265   .     A
C1046  O1094   1.267   .     A
C1046  O1100   1.281   .     A
C1047  C1052   1.403   .     A
C1047  C436    1.399   1_556 S
C1047  O470    1.383   1_556 S
C1048  O1087   1.282   .     A
C1048  O1085   1.274   .     A
C1048  C1051   1.467   .     S
C1049  O1086   1.287   .     A
C1049  O1088   1.296   .     A
C1052  O1089   1.384   .     S
C1053  H1078   1.109   .     S
C1053  H1077   1.114   .     S
C1053  H1076   1.111   .     S
C1053  O1089   1.412   .     S
C1054  H1080   1.112   .     S
C1054  H1081   1.107   .     S
C1054  H1079   1.113   .     S
C1054  O1090   1.411   .     S
C1055  H1072   1.109   .     S
C1055  O1091   1.410   .     S
C1055  H1083   1.112   .     S
C1056  O1092   1.411   .     S
C1056  H1075   1.109   .     S
C1056  H1074   1.114   .     S
C1056  H1211   1.110   1_455 S
C1057  O1090   1.384   .     S
C1058  C1059   1.408   .     A
C1058  C436    1.418   1_556 S
C1058  C439    1.418   1_556 S
C1059  C1063   1.416   .     A
C1061  C1062   1.424   .     A
C1061  C439    1.427   1_556 S
C1061  C429    1.426   1_556 S
C1062  Cl1067  1.773   .     S
C1062  C1063   1.409   .     A
C1063  Cl1070  1.778   .     S
Cl1065 C1111   1.775   .     S
Cl1066 C630    1.770   1_565 S
Cl1068 C429    1.770   1_556 S
H1073  C1125   1.110   .     S
H1082  C434    1.113   1_556 S
O1084  Zn1103  1.942   .     S
O1084  Zn1104  1.940   .     S
O1084  Zn1101  1.955   .     S
O1084  Zn1102  1.924   .     S
O1085  Zn1102  1.915   .     S
O1086  Zn1104  1.916   .     S
O1087  Zn1103  1.906   .     S
O1088  Zn1101  1.908   .     S
O1092  C1179   1.397   1_455 S
O1093  Zn1101  1.931   .     S
O1094  Zn1104  1.939   .     S
O1095  Zn1102  1.943   .     S
O1096  Zn1103  1.944   .     S
O1097  Zn1104  1.935   .     S
O1098  Zn1101  1.938   .     S
O1099  Zn1102  1.946   .     S
O1100  Zn1103  1.938   .     S
C1105  O1166   1.271   .     A
C1105  O1164   1.255   .     A
C1105  C1111   1.435   .     S
C1106  C1120   1.392   .     A
C1106  Cl1138  1.775   .     S
C1106  C1129   1.417   .     A
C1107  C1119   1.404   .     A
C1107  Cl1133  1.770   .     S
C1107  C1120   1.402   .     A
C1108  O1167   1.278   .     A
C1108  C1110   1.475   .     S
C1108  O1165   1.285   .     A
C1109  C1118   1.488   .     S
C1109  C1128   1.423   .     A
C1109  C1121   1.420   .     A
C1110  C1180   1.350   .     S
C1110  O1230   1.397   .     S
C1112  C1115   1.453   .     S
C1112  C699    1.345   1_565 S
C1112  H726    1.088   1_565 S
C1113  C1114   1.427   .     S
C1114  O1162   1.268   .     A
C1114  O1168   1.265   .     A
C1115  O1163   1.267   .     A
C1115  O1169   1.281   .     A
C1116  C1121   1.403   .     A
C1116  C505    1.399   1_556 S
C1116  O539    1.383   1_556 S
C1117  O1156   1.282   .     A
C1117  O1154   1.274   .     A
C1117  C1120   1.467   .     S
C1118  O1155   1.287   .     A
C1118  O1157   1.296   .     A
C1121  O1158   1.384   .     S
C1122  H1147   1.109   .     S
C1122  H1146   1.114   .     S
C1122  H1145   1.111   .     S
C1122  O1158   1.412   .     S
C1123  H1149   1.112   .     S
C1123  H1150   1.107   .     S
C1123  H1148   1.113   .     S
C1123  O1159   1.411   .     S
C1124  H1141   1.109   .     S
C1124  O1160   1.410   .     S
C1124  H1152   1.112   .     S
C1125  O1161   1.411   .     S
C1125  H1144   1.109   .     S
C1125  H1143   1.114   .     S
C1126  O1159   1.384   .     S
C1127  C1128   1.408   .     A
C1127  C505    1.418   1_556 S
C1127  C508    1.418   1_556 S
C1128  C1132   1.416   .     A
C1130  C1131   1.424   .     A
C1130  C508    1.427   1_556 S
C1130  C498    1.426   1_556 S
C1131  Cl1136  1.773   .     S
C1131  C1132   1.409   .     A
C1132  Cl1139  1.778   .     S
Cl1134 C1180   1.775   .     S
Cl1135 C699    1.770   1_565 S
Cl1137 C498    1.770   1_556 S
H1142  C1194   1.110   .     S
H1151  C503    1.113   1_556 S
O1153  Zn1172  1.942   .     S
O1153  Zn1173  1.940   .     S
O1153  Zn1170  1.955   .     S
O1153  Zn1171  1.924   .     S
O1154  Zn1171  1.915   .     S
O1155  Zn1173  1.916   .     S
O1156  Zn1172  1.906   .     S
O1157  Zn1170  1.908   .     S
O1162  Zn1170  1.931   .     S
O1163  Zn1173  1.939   .     S
O1164  Zn1171  1.943   .     S
O1165  Zn1172  1.944   .     S
O1166  Zn1173  1.935   .     S
O1167  Zn1170  1.938   .     S
O1168  Zn1171  1.946   .     S
O1169  Zn1172  1.938   .     S
C1174  O1235   1.271   .     A
C1174  O1233   1.255   .     A
C1174  C1180   1.435   .     S
C1175  C1189   1.392   .     A
C1175  Cl1207  1.775   .     S
C1175  C1198   1.417   .     A
C1176  C1188   1.404   .     A
C1176  Cl1202  1.770   .     S
C1176  C1189   1.402   .     A
C1177  O1236   1.278   .     A
C1177  C1179   1.475   .     S
C1177  O1234   1.285   .     A
C1178  C1187   1.488   .     S
C1178  C1197   1.423   .     A
C1178  C1190   1.420   .     A
C1179  C1042   1.350   1_655 S
C1179  O1092   1.397   1_655 S
C1181  C1184   1.453   .     S
C1181  C768    1.345   1_565 S
C1181  H795    1.088   1_565 S
C1182  C1183   1.427   .     S
C1183  O1231   1.268   .     A
C1183  O1237   1.265   .     A
C1184  O1232   1.267   .     A
C1184  O1238   1.281   .     A
C1185  C1190   1.403   .     A
C1185  C574    1.399   1_556 S
C1185  O608    1.383   1_556 S
C1186  O1225   1.282   .     A
C1186  O1223   1.274   .     A
C1186  C1189   1.467   .     S
C1187  O1224   1.287   .     A
C1187  O1226   1.296   .     A
C1190  O1227   1.384   .     S
C1191  H1216   1.109   .     S
C1191  H1215   1.114   .     S
C1191  H1214   1.111   .     S
C1191  O1227   1.412   .     S
C1192  H1218   1.112   .     S
C1192  H1219   1.107   .     S
C1192  H1217   1.113   .     S
C1192  O1228   1.411   .     S
C1193  H1210   1.109   .     S
C1193  O1229   1.410   .     S
C1193  H1221   1.112   .     S
C1194  O1230   1.411   .     S
C1194  H1213   1.109   .     S
C1194  H1212   1.114   .     S
C1195  O1228   1.384   .     S
C1196  C1197   1.408   .     A
C1196  C574    1.418   1_556 S
C1196  C577    1.418   1_556 S
C1197  C1201   1.416   .     A
C1199  C1200   1.424   .     A
C1199  C577    1.427   1_556 S
C1199  C567    1.426   1_556 S
C1200  Cl1205  1.773   .     S
C1200  C1201   1.409   .     A
C1201  Cl1208  1.778   .     S
Cl1203 C1042   1.775   1_655 S
Cl1204 C768    1.770   1_565 S
Cl1206 C567    1.770   1_556 S
H1211  C1056   1.110   1_655 S
H1220  C572    1.113   1_556 S
O1222  Zn1241  1.942   .     S
O1222  Zn1242  1.940   .     S
O1222  Zn1239  1.955   .     S
O1222  Zn1240  1.924   .     S
O1223  Zn1240  1.915   .     S
O1224  Zn1242  1.916   .     S
O1225  Zn1241  1.906   .     S
O1226  Zn1239  1.908   .     S
O1231  Zn1239  1.931   .     S
O1232  Zn1242  1.939   .     S
O1233  Zn1240  1.943   .     S
O1234  Zn1241  1.944   .     S
O1235  Zn1242  1.935   .     S
O1236  Zn1239  1.938   .     S
O1237  Zn1240  1.946   .     S
O1238  Zn1241  1.938   .     S
