data_str_m1_o1_o2_pcu_sym.38
_audit_creation_date              2020-01-03
_audit_creation_method            'Materials Studio'
_symmetry_space_group_name_H-M    'P1'
_symmetry_Int_Tables_number       1
_symmetry_cell_setting            triclinic
loop_
_symmetry_equiv_pos_as_xyz
  x,y,z
_cell_length_a                    36.4865
_cell_length_b                    36.4869
_cell_length_c                    34.6927
_cell_angle_alpha                 90.0001
_cell_angle_beta                  90.0003
_cell_angle_gamma                 90.0402
loop_
_atom_site_label
_atom_site_type_symbol
_atom_site_fract_x
_atom_site_fract_y
_atom_site_fract_z
_atom_site_U_iso_or_equiv
_atom_site_adp_type
_atom_site_occupancy
C1     C     0.22405   0.02071   0.04175   0.00000  Uiso   1.00
C2     C     0.03214   0.25798   0.45948   0.00000  Uiso   1.00
C3     C     0.34808   0.40192   0.74995   0.00000  Uiso   1.00
C4     C     0.40193   0.15191   0.24998   0.00000  Uiso   1.00
C5     C     0.09810   0.34806   0.74997   0.00000  Uiso   1.00
C6     C     0.34809   0.40192   0.24995   0.00000  Uiso   1.00
C7     C     0.15192   0.09809   0.74995   0.00000  Uiso   1.00
C8     C     0.09809   0.15192   0.74995   0.00000  Uiso   1.00
C9     C     0.40192   0.34809   0.24995   0.00000  Uiso   1.00
C10    C     0.15194   0.40191   0.74997   0.00000  Uiso   1.00
C11    C     0.34810   0.09806   0.24997   0.00000  Uiso   1.00
C12    C     0.40191   0.34808   0.74995   0.00000  Uiso   1.00
C13    C     0.27072   0.47407   0.54175   0.00000  Uiso   1.00
C14    C     0.09808   0.15192   0.24995   0.00000  Uiso   1.00
C15    C     0.34806   0.09810   0.74997   0.00000  Uiso   1.00
C16    C     0.15190   0.40194   0.24997   0.00000  Uiso   1.00
C17    C     0.25000   0.00000   0.10247   0.00000  Uiso   1.00
C18    C     0.25000   0.00000   0.89833   0.00000  Uiso   1.00
C19    C    -0.00000   0.25000   0.10246   0.00000  Uiso   1.00
C20    C    -0.00000   0.25000   0.89832   0.00000  Uiso   1.00
C21    C    -0.00000   0.25000   0.60247   0.00000  Uiso   1.00
C22    C     0.00000   0.25000   0.39833   0.00000  Uiso   1.00
C23    C     0.25000   0.00000   0.60247   0.00000  Uiso   1.00
C24    C     0.25818   0.03209   0.45948   0.00000  Uiso   1.00
C25    C     0.25000   0.00000   0.39833   0.00000  Uiso   1.00
C26    C     0.19775   0.04450   0.10115   0.00000  Uiso   1.00
C27    C     0.31664   0.01856   0.90106   0.00000  Uiso   1.00
C28    C     0.04438   0.19765   0.10113   0.00000  Uiso   1.00
C29    C     0.01872   0.31660   0.90106   0.00000  Uiso   1.00
C30    C     0.30225   0.45551   0.10114   0.00000  Uiso   1.00
C31    C     0.18337   0.48141   0.90106   0.00000  Uiso   1.00
C32    C     0.45562   0.30235   0.10113   0.00000  Uiso   1.00
C33    C     0.48127   0.18341   0.90105   0.00000  Uiso   1.00
C34    C     0.44785   0.29462   0.60115   0.00000  Uiso   1.00
C35    C     0.02589   0.22923   0.54176   0.00000  Uiso   1.00
C36    C     0.06676   0.26816   0.40108   0.00000  Uiso   1.00
C37    C     0.29454   0.44779   0.60114   0.00000  Uiso   1.00
C38    C     0.26859   0.06663   0.40106   0.00000  Uiso   1.00
C39    C     0.05214   0.20538   0.60115   0.00000  Uiso   1.00
C40    C     0.43324   0.23183   0.40108   0.00000  Uiso   1.00
C41    C     0.20546   0.05221   0.60114   0.00000  Uiso   1.00
C42    C     0.23142   0.43336   0.40106   0.00000  Uiso   1.00
C43    C     0.46786   0.24202   0.45948   0.00000  Uiso   1.00
C44    C     0.22928   0.02593   0.54175   0.00000  Uiso   1.00
C45    C     0.24182   0.46791   0.45948   0.00000  Uiso   1.00
C46    C     0.22397   0.02111   0.08191   0.00000  Uiso   1.00
C47    C     0.28245   0.00856   0.91932   0.00000  Uiso   1.00
C48    C     0.02104   0.22393   0.08190   0.00000  Uiso   1.00
C49    C     0.28209   0.00819   0.95948   0.00000  Uiso   1.00
C50    C     0.00863   0.28243   0.91932   0.00000  Uiso   1.00
C51    C     0.27603   0.47891   0.08190   0.00000  Uiso   1.00
C52    C     0.21755   0.49144   0.91932   0.00000  Uiso   1.00
C53    C     0.47896   0.27607   0.08190   0.00000  Uiso   1.00
C54    C     0.49137   0.21757   0.91931   0.00000  Uiso   1.00
C55    C     0.47402   0.27117   0.58192   0.00000  Uiso   1.00
C56    C     0.03250   0.25836   0.41933   0.00000  Uiso   1.00
C57    C     0.27112   0.47399   0.58191   0.00000  Uiso   1.00
C58    C     0.25856   0.03245   0.41932   0.00000  Uiso   1.00
C59    C     0.02597   0.22883   0.58192   0.00000  Uiso   1.00
C60    C     0.02064   0.22400   0.04175   0.00000  Uiso   1.00
C61    C     0.46750   0.24164   0.41933   0.00000  Uiso   1.00
C62    C     0.22888   0.02601   0.58191   0.00000  Uiso   1.00
C63    C     0.24144   0.46755   0.41932   0.00000  Uiso   1.00
C64    C     0.25000   0.00001   0.02168   0.00000  Uiso   1.00
C65    C     0.25000   0.00001   0.97952   0.00000  Uiso   1.00
C66    C    -0.00000   0.25000   0.02167   0.00000  Uiso   1.00
C67    C    -0.00000   0.25000   0.97951   0.00000  Uiso   1.00
C68    C     0.00000   0.25000   0.52169   0.00000  Uiso   1.00
C69    C     0.00000   0.25000   0.47953   0.00000  Uiso   1.00
C70    C     0.25000   0.00000   0.52168   0.00000  Uiso   1.00
C71    C     0.00824   0.28207   0.95947   0.00000  Uiso   1.00
C72    C     0.25000   0.00000   0.47952   0.00000  Uiso   1.00
C73    C     0.25000   0.00000   0.35546   0.00000  Uiso   1.00
C74    C     0.25000   0.00000   0.64483   0.00000  Uiso   1.00
C75    C     0.00000   0.25000   0.35546   0.00000  Uiso   1.00
C76    C    -0.00000   0.25000   0.64483   0.00000  Uiso   1.00
C77    C    -0.00000   0.25000   0.85546   0.00000  Uiso   1.00
C78    C     0.00000   0.25000   0.14483   0.00000  Uiso   1.00
C79    C     0.25000  -0.00000   0.85546   0.00000  Uiso   1.00
C80    C     0.25000   0.00000   0.14483   0.00000  Uiso   1.00
C81    C     0.17998   0.07002   0.24999   0.00000  Uiso   1.00
C82    C     0.27595   0.47931   0.04175   0.00000  Uiso   1.00
C83    C     0.32002   0.42998   0.74999   0.00000  Uiso   1.00
C84    C     0.42998   0.17999   0.24999   0.00000  Uiso   1.00
C85    C     0.07001   0.32002   0.74999   0.00000  Uiso   1.00
C86    C     0.32002   0.42998   0.24998   0.00000  Uiso   1.00
C87    C     0.17998   0.07002   0.74999   0.00000  Uiso   1.00
C88    C     0.07002   0.32001   0.24999   0.00000  Uiso   1.00
C89    C     0.42999   0.17998   0.74999   0.00000  Uiso   1.00
C90    C     0.17998   0.42999   0.74999   0.00000  Uiso   1.00
C91    C     0.32002   0.07002   0.24999   0.00000  Uiso   1.00
C92    C     0.42998   0.32002   0.74998   0.00000  Uiso   1.00
C93    C     0.21791   0.49183   0.95948   0.00000  Uiso   1.00
C94    C     0.07002   0.17998   0.24999   0.00000  Uiso   1.00
C95    C     0.32002   0.07001   0.74999   0.00000  Uiso   1.00
C96    C     0.17998   0.42998   0.24999   0.00000  Uiso   1.00
C97    C     0.07002   0.17998   0.74998   0.00000  Uiso   1.00
C98    C     0.42998   0.32002   0.24999   0.00000  Uiso   1.00
C99    C     0.14672   0.38043   0.21675   0.00000  Uiso   1.00
C100   C     0.35312   0.11973   0.78312   0.00000  Uiso   1.00
C101   C     0.08894   0.11608   0.26148   0.00000  Uiso   1.00
C102   C     0.41102   0.38389   0.73827   0.00000  Uiso   1.00
C103   C     0.35329   0.11956   0.21674   0.00000  Uiso   1.00
C104   C     0.47936   0.27599   0.04175   0.00000  Uiso   1.00
C105   C     0.14687   0.38027   0.78313   0.00000  Uiso   1.00
C106   C     0.41107   0.38393   0.26144   0.00000  Uiso   1.00
C107   C     0.08898   0.11611   0.73827   0.00000  Uiso   1.00
C108   C     0.11611   0.08898   0.73827   0.00000  Uiso   1.00
C109   C     0.38393   0.41107   0.26144   0.00000  Uiso   1.00
C110   C     0.11973   0.35313   0.78312   0.00000  Uiso   1.00
C111   C     0.38044   0.14671   0.21674   0.00000  Uiso   1.00
C112   C     0.38389   0.41102   0.73827   0.00000  Uiso   1.00
C113   C     0.11608   0.08894   0.26148   0.00000  Uiso   1.00
C114   C     0.38026   0.14688   0.78312   0.00000  Uiso   1.00
C115   C     0.49176   0.21793   0.95947   0.00000  Uiso   1.00
C116   C     0.11957   0.35328   0.21674   0.00000  Uiso   1.00
C117   C     0.39675   0.13040   0.71676   0.00000  Uiso   1.00
C118   C     0.10316   0.36969   0.28315   0.00000  Uiso   1.00
C119   C     0.33895   0.36608   0.76151   0.00000  Uiso   1.00
C120   C     0.16103   0.13389   0.23830   0.00000  Uiso   1.00
C121   C     0.10326   0.36959   0.71675   0.00000  Uiso   1.00
C122   C     0.39683   0.13032   0.28316   0.00000  Uiso   1.00
C123   C     0.16105   0.13392   0.76150   0.00000  Uiso   1.00
C124   C     0.33896   0.36610   0.23834   0.00000  Uiso   1.00
C125   C     0.36610   0.33896   0.23834   0.00000  Uiso   1.00
C126   C     0.47411   0.27077   0.54176   0.00000  Uiso   1.00
C127   C     0.13392   0.16105   0.76150   0.00000  Uiso   1.00
C128   C     0.36969   0.10316   0.28315   0.00000  Uiso   1.00
C129   C     0.13041   0.39674   0.71675   0.00000  Uiso   1.00
C130   C     0.13389   0.16103   0.23830   0.00000  Uiso   1.00
C131   C     0.36608   0.33895   0.76151   0.00000  Uiso   1.00
C132   C     0.13030   0.39685   0.28314   0.00000  Uiso   1.00
C133   C     0.36960   0.10325   0.71676   0.00000  Uiso   1.00
C134   C     0.09807   0.34809   0.24998   0.00000  Uiso   1.00
C135   C     0.40190   0.15194   0.74997   0.00000  Uiso   1.00
C136   C     0.15191   0.09808   0.24995   0.00000  Uiso   1.00
H137   H     0.20428   0.03709   0.02599   0.00000  Uiso   1.00
H138   H     0.05692   0.26453   0.47535   0.00000  Uiso   1.00
H139   H     0.28711   0.45431   0.52598   0.00000  Uiso   1.00
H140   H     0.26487   0.05683   0.47535   0.00000  Uiso   1.00
H141   H     0.04561   0.21280   0.52599   0.00000  Uiso   1.00
H142   H     0.44308   0.23548   0.47535   0.00000  Uiso   1.00
H143   H     0.21289   0.04569   0.52598   0.00000  Uiso   1.00
H144   H     0.23513   0.44317   0.47535   0.00000  Uiso   1.00
H145   H     0.30683   0.01488   0.97535   0.00000  Uiso   1.00
H146   H     0.03698   0.20420   0.02598   0.00000  Uiso   1.00
H147   H     0.01499   0.30680   0.97534   0.00000  Uiso   1.00
H148   H     0.29572   0.46294   0.02598   0.00000  Uiso   1.00
H149   H     0.19316   0.48513   0.97535   0.00000  Uiso   1.00
H150   H     0.46302   0.29580   0.02598   0.00000  Uiso   1.00
H151   H     0.48500   0.19320   0.97534   0.00000  Uiso   1.00
H152   H     0.45439   0.28721   0.52600   0.00000  Uiso   1.00
I153   I     0.18120   0.38828   0.16733   0.00000  Uiso   1.00
I154   I     0.39626   0.46565   0.28044   0.00000  Uiso   1.00
I155   I     0.11230   0.31827   0.83229   0.00000  Uiso   1.00
I156   I     0.38831   0.18117   0.16731   0.00000  Uiso   1.00
I157   I     0.39609   0.46551   0.71890   0.00000  Uiso   1.00
I158   I     0.10376   0.03438   0.28054   0.00000  Uiso   1.00
I159   I     0.38769   0.18175   0.83229   0.00000  Uiso   1.00
I160   I     0.11171   0.31881   0.16733   0.00000  Uiso   1.00
I161   I     0.43126   0.13822   0.66736   0.00000  Uiso   1.00
I162   I     0.06838   0.36218   0.33237   0.00000  Uiso   1.00
I163   I     0.28439   0.35379   0.78062   0.00000  Uiso   1.00
I164   I     0.31827   0.11229   0.83230   0.00000  Uiso   1.00
I165   I     0.21553   0.14611   0.21897   0.00000  Uiso   1.00
I166   I     0.06876   0.36176   0.66735   0.00000  Uiso   1.00
I167   I     0.43158   0.13786   0.33239   0.00000  Uiso   1.00
I168   I     0.21561   0.14622   0.78060   0.00000  Uiso   1.00
I169   I     0.28444   0.35386   0.21907   0.00000  Uiso   1.00
I170   I     0.35386   0.28445   0.21906   0.00000  Uiso   1.00
I171   I     0.14622   0.21561   0.78059   0.00000  Uiso   1.00
I172   I     0.36222   0.06835   0.33235   0.00000  Uiso   1.00
I173   I     0.13824   0.43124   0.66735   0.00000  Uiso   1.00
I174   I     0.14611   0.21553   0.21897   0.00000  Uiso   1.00
I175   I     0.03437   0.10377   0.28055   0.00000  Uiso   1.00
I176   I     0.35378   0.28439   0.78061   0.00000  Uiso   1.00
I177   I     0.13776   0.43167   0.33233   0.00000  Uiso   1.00
I178   I     0.36178   0.06874   0.66736   0.00000  Uiso   1.00
I179   I     0.46551   0.39609   0.71889   0.00000  Uiso   1.00
I180   I     0.31882   0.11170   0.16732   0.00000  Uiso   1.00
I181   I     0.18172   0.38772   0.83230   0.00000  Uiso   1.00
I182   I     0.46565   0.39627   0.28044   0.00000  Uiso   1.00
I183   I     0.03449   0.10391   0.71891   0.00000  Uiso   1.00
I184   I     0.10391   0.03449   0.71891   0.00000  Uiso   1.00
N185   N     0.17677   0.06325   0.11654   0.00000  Uiso   1.00
N186   N     0.09427   0.27597   0.38663   0.00000  Uiso   1.00
N187   N     0.31331   0.42683   0.61654   0.00000  Uiso   1.00
N188   N     0.27660   0.09409   0.38660   0.00000  Uiso   1.00
N189   N     0.07307   0.18658   0.61655   0.00000  Uiso   1.00
N190   N     0.40574   0.22401   0.38663   0.00000  Uiso   1.00
N191   N     0.18669   0.07317   0.61654   0.00000  Uiso   1.00
N192   N     0.22342   0.40591   0.38660   0.00000  Uiso   1.00
N193   N     0.34410   0.02654   0.88659   0.00000  Uiso   1.00
N194   N     0.06309   0.17663   0.11652   0.00000  Uiso   1.00
N195   N     0.02677   0.34403   0.88659   0.00000  Uiso   1.00
N196   N     0.32323   0.43676   0.11653   0.00000  Uiso   1.00
N197   N     0.15592   0.47340   0.88659   0.00000  Uiso   1.00
N198   N     0.43691   0.32337   0.11652   0.00000  Uiso   1.00
N199   N     0.47322   0.15597   0.88659   0.00000  Uiso   1.00
N200   N     0.42692   0.31342   0.61655   0.00000  Uiso   1.00
O201   O     0.25000   0.00000   0.25000   0.00000  Uiso   1.00
O202   O     0.25000   0.46964   0.66317   0.00000  Uiso   1.00
O203   O     0.46964   0.25000   0.33683   0.00000  Uiso   1.00
O204   O     0.03036   0.25000   0.66317   0.00000  Uiso   1.00
O205   O    -0.00000   0.21964   0.83683   0.00000  Uiso   1.00
O206   O    -0.00000   0.28036   0.16317   0.00000  Uiso   1.00
O207   O     0.28036   0.00000   0.83683   0.00000  Uiso   1.00
O208   O     0.21964   0.00000   0.16317   0.00000  Uiso   1.00
O209   O    -0.00000   0.28036   0.83683   0.00000  Uiso   1.00
O210   O    -0.00000   0.21964   0.16317   0.00000  Uiso   1.00
O211   O     0.21964   0.00000   0.83683   0.00000  Uiso   1.00
O212   O     0.25000   0.00000   0.75000   0.00000  Uiso   1.00
O213   O     0.28036   0.00000   0.16317   0.00000  Uiso   1.00
O214   O     0.20725   0.07307   0.27282   0.00000  Uiso   1.00
O215   O     0.29274   0.42693   0.72718   0.00000  Uiso   1.00
O216   O     0.42693   0.20726   0.27282   0.00000  Uiso   1.00
O217   O     0.07307   0.29275   0.72718   0.00000  Uiso   1.00
O218   O     0.29274   0.42693   0.27282   0.00000  Uiso   1.00
O219   O     0.20725   0.07307   0.72718   0.00000  Uiso   1.00
O220   O     0.07307   0.29275   0.27282   0.00000  Uiso   1.00
O221   O     0.42693   0.20726   0.72718   0.00000  Uiso   1.00
O222   O     0.20725   0.42693   0.72718   0.00000  Uiso   1.00
O223   O    -0.00000   0.25000   0.25000   0.00000  Uiso   1.00
O224   O     0.29274   0.07307   0.27282   0.00000  Uiso   1.00
O225   O     0.42693   0.29275   0.72718   0.00000  Uiso   1.00
O226   O     0.07307   0.20726   0.27282   0.00000  Uiso   1.00
O227   O     0.29274   0.07307   0.72718   0.00000  Uiso   1.00
O228   O     0.20725   0.42693   0.27282   0.00000  Uiso   1.00
O229   O     0.07307   0.20726   0.72718   0.00000  Uiso   1.00
O230   O     0.42693   0.29275   0.27282   0.00000  Uiso   1.00
O231   O     0.45725   0.32307   0.77282   0.00000  Uiso   1.00
O232   O     0.04274   0.17693   0.22718   0.00000  Uiso   1.00
O233   O     0.17693   0.45726   0.77282   0.00000  Uiso   1.00
O234   O     0.00000   0.25000   0.75000   0.00000  Uiso   1.00
O235   O     0.32307   0.04275   0.22718   0.00000  Uiso   1.00
O236   O     0.04274   0.17693   0.77282   0.00000  Uiso   1.00
O237   O     0.45725   0.32307   0.22718   0.00000  Uiso   1.00
O238   O     0.32307   0.04275   0.77282   0.00000  Uiso   1.00
O239   O     0.17693   0.45726   0.22718   0.00000  Uiso   1.00
O240   O     0.45725   0.17693   0.22718   0.00000  Uiso   1.00
O241   O     0.04274   0.32307   0.77282   0.00000  Uiso   1.00
O242   O     0.17693   0.04275   0.22718   0.00000  Uiso   1.00
O243   O     0.32307   0.45726   0.77282   0.00000  Uiso   1.00
O244   O     0.04274   0.32307   0.22718   0.00000  Uiso   1.00
O245   O     0.25000   0.46964   0.33683   0.00000  Uiso   1.00
O246   O     0.45725   0.17693   0.77282   0.00000  Uiso   1.00
O247   O     0.32307   0.45726   0.22718   0.00000  Uiso   1.00
O248   O     0.17693   0.04275   0.77282   0.00000  Uiso   1.00
O249   O     0.25000   0.03036   0.66317   0.00000  Uiso   1.00
O250   O     0.03036   0.25000   0.33683   0.00000  Uiso   1.00
O251   O     0.46964   0.25000   0.66317   0.00000  Uiso   1.00
O252   O     0.25000   0.03036   0.33683   0.00000  Uiso   1.00
Zn253  Zn    0.20660   0.00000   0.21760   0.00000  Uiso   1.00
Zn254  Zn    0.04340   0.25000   0.28240   0.00000  Uiso   1.00
Zn255  Zn    0.25000   0.45660   0.71760   0.00000  Uiso   1.00
Zn256  Zn    0.25000   0.04340   0.28240   0.00000  Uiso   1.00
Zn257  Zn    0.04340   0.25000   0.71760   0.00000  Uiso   1.00
Zn258  Zn    0.45660   0.25000   0.28240   0.00000  Uiso   1.00
Zn259  Zn    0.25000   0.04340   0.71760   0.00000  Uiso   1.00
Zn260  Zn    0.25000   0.45660   0.28240   0.00000  Uiso   1.00
Zn261  Zn    0.29340   0.00000   0.78240   0.00000  Uiso   1.00
Zn262  Zn    0.00000   0.20660   0.21760   0.00000  Uiso   1.00
Zn263  Zn   -0.00000   0.29340   0.78240   0.00000  Uiso   1.00
Zn264  Zn    0.29340   0.00000   0.21760   0.00000  Uiso   1.00
Zn265  Zn    0.20660   0.00000   0.78240   0.00000  Uiso   1.00
Zn266  Zn   -0.00000   0.29340   0.21760   0.00000  Uiso   1.00
Zn267  Zn    0.00000   0.20660   0.78240   0.00000  Uiso   1.00
Zn268  Zn    0.45660   0.25000   0.71760   0.00000  Uiso   1.00
C269   C     0.72405   0.02071   0.04175   0.00000  Uiso   1.00
C270   C     0.53214   0.25798   0.45948   0.00000  Uiso   1.00
C271   C     0.84808   0.40192   0.74995   0.00000  Uiso   1.00
C272   C     0.90193   0.15191   0.24998   0.00000  Uiso   1.00
C273   C     0.59810   0.34806   0.74997   0.00000  Uiso   1.00
C274   C     0.84809   0.40192   0.24995   0.00000  Uiso   1.00
C275   C     0.65192   0.09809   0.74995   0.00000  Uiso   1.00
C276   C     0.59809   0.15192   0.74995   0.00000  Uiso   1.00
C277   C     0.90192   0.34809   0.24995   0.00000  Uiso   1.00
C278   C     0.65194   0.40191   0.74997   0.00000  Uiso   1.00
C279   C     0.84810   0.09806   0.24997   0.00000  Uiso   1.00
C280   C     0.90191   0.34808   0.74995   0.00000  Uiso   1.00
C281   C     0.77072   0.47407   0.54175   0.00000  Uiso   1.00
C282   C     0.59808   0.15192   0.24995   0.00000  Uiso   1.00
C283   C     0.84806   0.09810   0.74997   0.00000  Uiso   1.00
C284   C     0.65190   0.40194   0.24997   0.00000  Uiso   1.00
C285   C     0.75000   0.00000   0.10247   0.00000  Uiso   1.00
C286   C     0.75000   0.00000   0.89833   0.00000  Uiso   1.00
C287   C     0.50000   0.25000   0.10246   0.00000  Uiso   1.00
C288   C     0.50000   0.25000   0.89832   0.00000  Uiso   1.00
C289   C     0.50000   0.25000   0.60247   0.00000  Uiso   1.00
C290   C     0.50000   0.25000   0.39833   0.00000  Uiso   1.00
C291   C     0.75000   0.00000   0.60247   0.00000  Uiso   1.00
C292   C     0.75818   0.03209   0.45948   0.00000  Uiso   1.00
C293   C     0.75000   0.00000   0.39833   0.00000  Uiso   1.00
C294   C     0.69775   0.04450   0.10115   0.00000  Uiso   1.00
C295   C     0.81664   0.01856   0.90106   0.00000  Uiso   1.00
C296   C     0.54438   0.19765   0.10113   0.00000  Uiso   1.00
C297   C     0.51872   0.31660   0.90106   0.00000  Uiso   1.00
C298   C     0.80225   0.45551   0.10114   0.00000  Uiso   1.00
C299   C     0.68337   0.48141   0.90106   0.00000  Uiso   1.00
C300   C     0.95562   0.30235   0.10113   0.00000  Uiso   1.00
C301   C     0.98127   0.18341   0.90105   0.00000  Uiso   1.00
C302   C     0.94785   0.29462   0.60115   0.00000  Uiso   1.00
C303   C     0.52589   0.22923   0.54176   0.00000  Uiso   1.00
C304   C     0.56676   0.26816   0.40108   0.00000  Uiso   1.00
C305   C     0.79454   0.44779   0.60114   0.00000  Uiso   1.00
C306   C     0.76859   0.06663   0.40106   0.00000  Uiso   1.00
C307   C     0.55214   0.20538   0.60115   0.00000  Uiso   1.00
C308   C     0.93324   0.23183   0.40108   0.00000  Uiso   1.00
C309   C     0.70546   0.05221   0.60114   0.00000  Uiso   1.00
C310   C     0.73142   0.43336   0.40106   0.00000  Uiso   1.00
C311   C     0.96786   0.24202   0.45948   0.00000  Uiso   1.00
C312   C     0.72928   0.02593   0.54175   0.00000  Uiso   1.00
C313   C     0.74182   0.46791   0.45948   0.00000  Uiso   1.00
C314   C     0.72397   0.02111   0.08191   0.00000  Uiso   1.00
C315   C     0.78245   0.00856   0.91932   0.00000  Uiso   1.00
C316   C     0.52104   0.22393   0.08190   0.00000  Uiso   1.00
C317   C     0.78209   0.00819   0.95948   0.00000  Uiso   1.00
C318   C     0.50863   0.28243   0.91932   0.00000  Uiso   1.00
C319   C     0.77603   0.47891   0.08190   0.00000  Uiso   1.00
C320   C     0.71755   0.49144   0.91932   0.00000  Uiso   1.00
C321   C     0.97896   0.27607   0.08190   0.00000  Uiso   1.00
C322   C     0.99137   0.21757   0.91931   0.00000  Uiso   1.00
C323   C     0.97402   0.27117   0.58192   0.00000  Uiso   1.00
C324   C     0.53250   0.25836   0.41933   0.00000  Uiso   1.00
C325   C     0.77112   0.47399   0.58191   0.00000  Uiso   1.00
C326   C     0.75856   0.03245   0.41932   0.00000  Uiso   1.00
C327   C     0.52597   0.22883   0.58192   0.00000  Uiso   1.00
C328   C     0.52064   0.22400   0.04175   0.00000  Uiso   1.00
C329   C     0.96750   0.24164   0.41933   0.00000  Uiso   1.00
C330   C     0.72888   0.02601   0.58191   0.00000  Uiso   1.00
C331   C     0.74144   0.46755   0.41932   0.00000  Uiso   1.00
C332   C     0.75000   0.00001   0.02168   0.00000  Uiso   1.00
C333   C     0.75000   0.00001   0.97952   0.00000  Uiso   1.00
C334   C     0.50000   0.25000   0.02167   0.00000  Uiso   1.00
C335   C     0.50000   0.25000   0.97951   0.00000  Uiso   1.00
C336   C     0.50000   0.25000   0.52169   0.00000  Uiso   1.00
C337   C     0.50000   0.25000   0.47953   0.00000  Uiso   1.00
C338   C     0.75000   0.00000   0.52168   0.00000  Uiso   1.00
C339   C     0.50824   0.28207   0.95947   0.00000  Uiso   1.00
C340   C     0.75000   0.00000   0.47952   0.00000  Uiso   1.00
C341   C     0.75000   0.00000   0.35546   0.00000  Uiso   1.00
C342   C     0.75000   0.00000   0.64483   0.00000  Uiso   1.00
C343   C     0.50000   0.25000   0.35546   0.00000  Uiso   1.00
C344   C     0.50000   0.25000   0.64483   0.00000  Uiso   1.00
C345   C     0.50000   0.25000   0.85546   0.00000  Uiso   1.00
C346   C     0.50000   0.25000   0.14483   0.00000  Uiso   1.00
C347   C     0.75000  -0.00000   0.85546   0.00000  Uiso   1.00
C348   C     0.75000   0.00000   0.14483   0.00000  Uiso   1.00
C349   C     0.67998   0.07002   0.24999   0.00000  Uiso   1.00
C350   C     0.77595   0.47931   0.04175   0.00000  Uiso   1.00
C351   C     0.82002   0.42998   0.74999   0.00000  Uiso   1.00
C352   C     0.92998   0.17999   0.24999   0.00000  Uiso   1.00
C353   C     0.57001   0.32002   0.74999   0.00000  Uiso   1.00
C354   C     0.82002   0.42998   0.24998   0.00000  Uiso   1.00
C355   C     0.67998   0.07002   0.74999   0.00000  Uiso   1.00
C356   C     0.57002   0.32001   0.24999   0.00000  Uiso   1.00
C357   C     0.92999   0.17998   0.74999   0.00000  Uiso   1.00
C358   C     0.67998   0.42999   0.74999   0.00000  Uiso   1.00
C359   C     0.82002   0.07002   0.24999   0.00000  Uiso   1.00
C360   C     0.92998   0.32002   0.74998   0.00000  Uiso   1.00
C361   C     0.71791   0.49183   0.95948   0.00000  Uiso   1.00
C362   C     0.57002   0.17998   0.24999   0.00000  Uiso   1.00
C363   C     0.82002   0.07001   0.74999   0.00000  Uiso   1.00
C364   C     0.67998   0.42998   0.24999   0.00000  Uiso   1.00
C365   C     0.57002   0.17998   0.74998   0.00000  Uiso   1.00
C366   C     0.92998   0.32002   0.24999   0.00000  Uiso   1.00
C367   C     0.64672   0.38043   0.21675   0.00000  Uiso   1.00
C368   C     0.85312   0.11973   0.78312   0.00000  Uiso   1.00
C369   C     0.58894   0.11608   0.26148   0.00000  Uiso   1.00
C370   C     0.91102   0.38389   0.73827   0.00000  Uiso   1.00
C371   C     0.85329   0.11956   0.21674   0.00000  Uiso   1.00
C372   C     0.97936   0.27599   0.04175   0.00000  Uiso   1.00
C373   C     0.64687   0.38027   0.78313   0.00000  Uiso   1.00
C374   C     0.91107   0.38393   0.26144   0.00000  Uiso   1.00
C375   C     0.58898   0.11611   0.73827   0.00000  Uiso   1.00
C376   C     0.61611   0.08898   0.73827   0.00000  Uiso   1.00
C377   C     0.88393   0.41107   0.26144   0.00000  Uiso   1.00
C378   C     0.61973   0.35313   0.78312   0.00000  Uiso   1.00
C379   C     0.88044   0.14671   0.21674   0.00000  Uiso   1.00
C380   C     0.88389   0.41102   0.73827   0.00000  Uiso   1.00
C381   C     0.61608   0.08894   0.26148   0.00000  Uiso   1.00
C382   C     0.88026   0.14688   0.78312   0.00000  Uiso   1.00
C383   C     0.99176   0.21793   0.95947   0.00000  Uiso   1.00
C384   C     0.61957   0.35328   0.21674   0.00000  Uiso   1.00
C385   C     0.89675   0.13040   0.71676   0.00000  Uiso   1.00
C386   C     0.60316   0.36969   0.28315   0.00000  Uiso   1.00
C387   C     0.83895   0.36608   0.76151   0.00000  Uiso   1.00
C388   C     0.66103   0.13389   0.23830   0.00000  Uiso   1.00
C389   C     0.60326   0.36959   0.71675   0.00000  Uiso   1.00
C390   C     0.89683   0.13032   0.28316   0.00000  Uiso   1.00
C391   C     0.66105   0.13392   0.76150   0.00000  Uiso   1.00
C392   C     0.83896   0.36610   0.23834   0.00000  Uiso   1.00
C393   C     0.86610   0.33896   0.23834   0.00000  Uiso   1.00
C394   C     0.97411   0.27077   0.54176   0.00000  Uiso   1.00
C395   C     0.63392   0.16105   0.76150   0.00000  Uiso   1.00
C396   C     0.86969   0.10316   0.28315   0.00000  Uiso   1.00
C397   C     0.63041   0.39674   0.71675   0.00000  Uiso   1.00
C398   C     0.63389   0.16103   0.23830   0.00000  Uiso   1.00
C399   C     0.86608   0.33895   0.76151   0.00000  Uiso   1.00
C400   C     0.63030   0.39685   0.28314   0.00000  Uiso   1.00
C401   C     0.86960   0.10325   0.71676   0.00000  Uiso   1.00
C402   C     0.59807   0.34809   0.24998   0.00000  Uiso   1.00
C403   C     0.90190   0.15194   0.74997   0.00000  Uiso   1.00
C404   C     0.65191   0.09808   0.24995   0.00000  Uiso   1.00
H405   H     0.70428   0.03709   0.02599   0.00000  Uiso   1.00
H406   H     0.55692   0.26453   0.47535   0.00000  Uiso   1.00
H407   H     0.78711   0.45431   0.52598   0.00000  Uiso   1.00
H408   H     0.76487   0.05683   0.47535   0.00000  Uiso   1.00
H409   H     0.54561   0.21280   0.52599   0.00000  Uiso   1.00
H410   H     0.94308   0.23548   0.47535   0.00000  Uiso   1.00
H411   H     0.71289   0.04569   0.52598   0.00000  Uiso   1.00
H412   H     0.73513   0.44317   0.47535   0.00000  Uiso   1.00
H413   H     0.80683   0.01488   0.97535   0.00000  Uiso   1.00
H414   H     0.53698   0.20420   0.02598   0.00000  Uiso   1.00
H415   H     0.51499   0.30680   0.97534   0.00000  Uiso   1.00
H416   H     0.79572   0.46294   0.02598   0.00000  Uiso   1.00
H417   H     0.69316   0.48513   0.97535   0.00000  Uiso   1.00
H418   H     0.96302   0.29580   0.02598   0.00000  Uiso   1.00
H419   H     0.98500   0.19320   0.97534   0.00000  Uiso   1.00
H420   H     0.95439   0.28721   0.52600   0.00000  Uiso   1.00
I421   I     0.68120   0.38828   0.16733   0.00000  Uiso   1.00
I422   I     0.89626   0.46565   0.28044   0.00000  Uiso   1.00
I423   I     0.61230   0.31827   0.83229   0.00000  Uiso   1.00
I424   I     0.88831   0.18117   0.16731   0.00000  Uiso   1.00
I425   I     0.89609   0.46551   0.71890   0.00000  Uiso   1.00
I426   I     0.60376   0.03438   0.28054   0.00000  Uiso   1.00
I427   I     0.88769   0.18175   0.83229   0.00000  Uiso   1.00
I428   I     0.61171   0.31881   0.16733   0.00000  Uiso   1.00
I429   I     0.93126   0.13822   0.66736   0.00000  Uiso   1.00
I430   I     0.56838   0.36218   0.33237   0.00000  Uiso   1.00
I431   I     0.78439   0.35379   0.78062   0.00000  Uiso   1.00
I432   I     0.81827   0.11229   0.83230   0.00000  Uiso   1.00
I433   I     0.71553   0.14611   0.21897   0.00000  Uiso   1.00
I434   I     0.56876   0.36176   0.66735   0.00000  Uiso   1.00
I435   I     0.93158   0.13786   0.33239   0.00000  Uiso   1.00
I436   I     0.71561   0.14622   0.78060   0.00000  Uiso   1.00
I437   I     0.78444   0.35386   0.21907   0.00000  Uiso   1.00
I438   I     0.85386   0.28445   0.21906   0.00000  Uiso   1.00
I439   I     0.64622   0.21561   0.78059   0.00000  Uiso   1.00
I440   I     0.86222   0.06835   0.33235   0.00000  Uiso   1.00
I441   I     0.63824   0.43124   0.66735   0.00000  Uiso   1.00
I442   I     0.64611   0.21553   0.21897   0.00000  Uiso   1.00
I443   I     0.53437   0.10377   0.28055   0.00000  Uiso   1.00
I444   I     0.85378   0.28439   0.78061   0.00000  Uiso   1.00
I445   I     0.63776   0.43167   0.33233   0.00000  Uiso   1.00
I446   I     0.86178   0.06874   0.66736   0.00000  Uiso   1.00
I447   I     0.96551   0.39609   0.71889   0.00000  Uiso   1.00
I448   I     0.81882   0.11170   0.16732   0.00000  Uiso   1.00
I449   I     0.68172   0.38772   0.83230   0.00000  Uiso   1.00
I450   I     0.96565   0.39627   0.28044   0.00000  Uiso   1.00
I451   I     0.53449   0.10391   0.71891   0.00000  Uiso   1.00
I452   I     0.60391   0.03449   0.71891   0.00000  Uiso   1.00
N453   N     0.67677   0.06325   0.11654   0.00000  Uiso   1.00
N454   N     0.59427   0.27597   0.38663   0.00000  Uiso   1.00
N455   N     0.81331   0.42683   0.61654   0.00000  Uiso   1.00
N456   N     0.77660   0.09409   0.38660   0.00000  Uiso   1.00
N457   N     0.57307   0.18658   0.61655   0.00000  Uiso   1.00
N458   N     0.90574   0.22401   0.38663   0.00000  Uiso   1.00
N459   N     0.68669   0.07317   0.61654   0.00000  Uiso   1.00
N460   N     0.72342   0.40591   0.38660   0.00000  Uiso   1.00
N461   N     0.84410   0.02654   0.88659   0.00000  Uiso   1.00
N462   N     0.56309   0.17663   0.11652   0.00000  Uiso   1.00
N463   N     0.52677   0.34403   0.88659   0.00000  Uiso   1.00
N464   N     0.82323   0.43676   0.11653   0.00000  Uiso   1.00
N465   N     0.65592   0.47340   0.88659   0.00000  Uiso   1.00
N466   N     0.93691   0.32337   0.11652   0.00000  Uiso   1.00
N467   N     0.97322   0.15597   0.88659   0.00000  Uiso   1.00
N468   N     0.92692   0.31342   0.61655   0.00000  Uiso   1.00
O469   O     0.75000   0.00000   0.25000   0.00000  Uiso   1.00
O470   O     0.75000   0.46964   0.66317   0.00000  Uiso   1.00
O471   O     0.96964   0.25000   0.33683   0.00000  Uiso   1.00
O472   O     0.53036   0.25000   0.66317   0.00000  Uiso   1.00
O473   O     0.50000   0.21964   0.83683   0.00000  Uiso   1.00
O474   O     0.50000   0.28036   0.16317   0.00000  Uiso   1.00
O475   O     0.78036   0.00000   0.83683   0.00000  Uiso   1.00
O476   O     0.71964   0.00000   0.16317   0.00000  Uiso   1.00
O477   O     0.50000   0.28036   0.83683   0.00000  Uiso   1.00
O478   O     0.50000   0.21964   0.16317   0.00000  Uiso   1.00
O479   O     0.71964   0.00000   0.83683   0.00000  Uiso   1.00
O480   O     0.75000   0.00000   0.75000   0.00000  Uiso   1.00
O481   O     0.78036   0.00000   0.16317   0.00000  Uiso   1.00
O482   O     0.70725   0.07307   0.27282   0.00000  Uiso   1.00
O483   O     0.79274   0.42693   0.72718   0.00000  Uiso   1.00
O484   O     0.92693   0.20726   0.27282   0.00000  Uiso   1.00
O485   O     0.57307   0.29275   0.72718   0.00000  Uiso   1.00
O486   O     0.79274   0.42693   0.27282   0.00000  Uiso   1.00
O487   O     0.70725   0.07307   0.72718   0.00000  Uiso   1.00
O488   O     0.57307   0.29275   0.27282   0.00000  Uiso   1.00
O489   O     0.92693   0.20726   0.72718   0.00000  Uiso   1.00
O490   O     0.70725   0.42693   0.72718   0.00000  Uiso   1.00
O491   O     0.50000   0.25000   0.25000   0.00000  Uiso   1.00
O492   O     0.79274   0.07307   0.27282   0.00000  Uiso   1.00
O493   O     0.92693   0.29275   0.72718   0.00000  Uiso   1.00
O494   O     0.57307   0.20726   0.27282   0.00000  Uiso   1.00
O495   O     0.79274   0.07307   0.72718   0.00000  Uiso   1.00
O496   O     0.70725   0.42693   0.27282   0.00000  Uiso   1.00
O497   O     0.57307   0.20726   0.72718   0.00000  Uiso   1.00
O498   O     0.92693   0.29275   0.27282   0.00000  Uiso   1.00
O499   O     0.95725   0.32307   0.77282   0.00000  Uiso   1.00
O500   O     0.54274   0.17693   0.22718   0.00000  Uiso   1.00
O501   O     0.67693   0.45726   0.77282   0.00000  Uiso   1.00
O502   O     0.50000   0.25000   0.75000   0.00000  Uiso   1.00
O503   O     0.82307   0.04275   0.22718   0.00000  Uiso   1.00
O504   O     0.54274   0.17693   0.77282   0.00000  Uiso   1.00
O505   O     0.95725   0.32307   0.22718   0.00000  Uiso   1.00
O506   O     0.82307   0.04275   0.77282   0.00000  Uiso   1.00
O507   O     0.67693   0.45726   0.22718   0.00000  Uiso   1.00
O508   O     0.95725   0.17693   0.22718   0.00000  Uiso   1.00
O509   O     0.54274   0.32307   0.77282   0.00000  Uiso   1.00
O510   O     0.67693   0.04275   0.22718   0.00000  Uiso   1.00
O511   O     0.82307   0.45726   0.77282   0.00000  Uiso   1.00
O512   O     0.54274   0.32307   0.22718   0.00000  Uiso   1.00
O513   O     0.75000   0.46964   0.33683   0.00000  Uiso   1.00
O514   O     0.95725   0.17693   0.77282   0.00000  Uiso   1.00
O515   O     0.82307   0.45726   0.22718   0.00000  Uiso   1.00
O516   O     0.67693   0.04275   0.77282   0.00000  Uiso   1.00
O517   O     0.75000   0.03036   0.66317   0.00000  Uiso   1.00
O518   O     0.53036   0.25000   0.33683   0.00000  Uiso   1.00
O519   O     0.96964   0.25000   0.66317   0.00000  Uiso   1.00
O520   O     0.75000   0.03036   0.33683   0.00000  Uiso   1.00
Zn521  Zn    0.70660   0.00000   0.21760   0.00000  Uiso   1.00
Zn522  Zn    0.54340   0.25000   0.28240   0.00000  Uiso   1.00
Zn523  Zn    0.75000   0.45660   0.71760   0.00000  Uiso   1.00
Zn524  Zn    0.75000   0.04340   0.28240   0.00000  Uiso   1.00
Zn525  Zn    0.54340   0.25000   0.71760   0.00000  Uiso   1.00
Zn526  Zn    0.95660   0.25000   0.28240   0.00000  Uiso   1.00
Zn527  Zn    0.75000   0.04340   0.71760   0.00000  Uiso   1.00
Zn528  Zn    0.75000   0.45660   0.28240   0.00000  Uiso   1.00
Zn529  Zn    0.79340   0.00000   0.78240   0.00000  Uiso   1.00
Zn530  Zn    0.50000   0.20660   0.21760   0.00000  Uiso   1.00
Zn531  Zn    0.50000   0.29340   0.78240   0.00000  Uiso   1.00
Zn532  Zn    0.79340   0.00000   0.21760   0.00000  Uiso   1.00
Zn533  Zn    0.70660   0.00000   0.78240   0.00000  Uiso   1.00
Zn534  Zn    0.50000   0.29340   0.21760   0.00000  Uiso   1.00
Zn535  Zn    0.50000   0.20660   0.78240   0.00000  Uiso   1.00
Zn536  Zn    0.95660   0.25000   0.71760   0.00000  Uiso   1.00
C537   C     0.22405   0.52071   0.04175   0.00000  Uiso   1.00
C538   C     0.03214   0.75798   0.45948   0.00000  Uiso   1.00
C539   C     0.34808   0.90192   0.74995   0.00000  Uiso   1.00
C540   C     0.40193   0.65191   0.24998   0.00000  Uiso   1.00
C541   C     0.09810   0.84806   0.74997   0.00000  Uiso   1.00
C542   C     0.34809   0.90192   0.24995   0.00000  Uiso   1.00
C543   C     0.15192   0.59809   0.74995   0.00000  Uiso   1.00
C544   C     0.09809   0.65192   0.74995   0.00000  Uiso   1.00
C545   C     0.40192   0.84809   0.24995   0.00000  Uiso   1.00
C546   C     0.15194   0.90191   0.74997   0.00000  Uiso   1.00
C547   C     0.34810   0.59806   0.24997   0.00000  Uiso   1.00
C548   C     0.40191   0.84808   0.74995   0.00000  Uiso   1.00
C549   C     0.27072   0.97407   0.54175   0.00000  Uiso   1.00
C550   C     0.09808   0.65192   0.24995   0.00000  Uiso   1.00
C551   C     0.34806   0.59810   0.74997   0.00000  Uiso   1.00
C552   C     0.15190   0.90194   0.24997   0.00000  Uiso   1.00
C553   C     0.25000   0.50000   0.10247   0.00000  Uiso   1.00
C554   C     0.25000   0.50000   0.89833   0.00000  Uiso   1.00
C555   C    -0.00000   0.75000   0.10246   0.00000  Uiso   1.00
C556   C    -0.00000   0.75000   0.89832   0.00000  Uiso   1.00
C557   C    -0.00000   0.75000   0.60247   0.00000  Uiso   1.00
C558   C     0.00000   0.75000   0.39833   0.00000  Uiso   1.00
C559   C     0.25000   0.50000   0.60247   0.00000  Uiso   1.00
C560   C     0.25818   0.53209   0.45948   0.00000  Uiso   1.00
C561   C     0.25000   0.50000   0.39833   0.00000  Uiso   1.00
C562   C     0.19775   0.54450   0.10115   0.00000  Uiso   1.00
C563   C     0.31664   0.51856   0.90106   0.00000  Uiso   1.00
C564   C     0.04438   0.69765   0.10113   0.00000  Uiso   1.00
C565   C     0.01872   0.81660   0.90106   0.00000  Uiso   1.00
C566   C     0.30225   0.95551   0.10114   0.00000  Uiso   1.00
C567   C     0.18337   0.98141   0.90106   0.00000  Uiso   1.00
C568   C     0.45562   0.80235   0.10113   0.00000  Uiso   1.00
C569   C     0.48127   0.68341   0.90105   0.00000  Uiso   1.00
C570   C     0.44785   0.79462   0.60115   0.00000  Uiso   1.00
C571   C     0.02589   0.72923   0.54176   0.00000  Uiso   1.00
C572   C     0.06676   0.76816   0.40108   0.00000  Uiso   1.00
C573   C     0.29454   0.94779   0.60114   0.00000  Uiso   1.00
C574   C     0.26859   0.56663   0.40106   0.00000  Uiso   1.00
C575   C     0.05214   0.70538   0.60115   0.00000  Uiso   1.00
C576   C     0.43324   0.73183   0.40108   0.00000  Uiso   1.00
C577   C     0.20546   0.55221   0.60114   0.00000  Uiso   1.00
C578   C     0.23142   0.93336   0.40106   0.00000  Uiso   1.00
C579   C     0.46786   0.74202   0.45948   0.00000  Uiso   1.00
C580   C     0.22928   0.52593   0.54175   0.00000  Uiso   1.00
C581   C     0.24182   0.96791   0.45948   0.00000  Uiso   1.00
C582   C     0.22397   0.52111   0.08191   0.00000  Uiso   1.00
C583   C     0.28245   0.50856   0.91932   0.00000  Uiso   1.00
C584   C     0.02104   0.72393   0.08190   0.00000  Uiso   1.00
C585   C     0.28209   0.50819   0.95948   0.00000  Uiso   1.00
C586   C     0.00863   0.78243   0.91932   0.00000  Uiso   1.00
C587   C     0.27603   0.97891   0.08190   0.00000  Uiso   1.00
C588   C     0.21755   0.99144   0.91932   0.00000  Uiso   1.00
C589   C     0.47896   0.77607   0.08190   0.00000  Uiso   1.00
C590   C     0.49137   0.71757   0.91931   0.00000  Uiso   1.00
C591   C     0.47402   0.77117   0.58192   0.00000  Uiso   1.00
C592   C     0.03250   0.75836   0.41933   0.00000  Uiso   1.00
C593   C     0.27112   0.97399   0.58191   0.00000  Uiso   1.00
C594   C     0.25856   0.53245   0.41932   0.00000  Uiso   1.00
C595   C     0.02597   0.72883   0.58192   0.00000  Uiso   1.00
C596   C     0.02064   0.72400   0.04175   0.00000  Uiso   1.00
C597   C     0.46750   0.74164   0.41933   0.00000  Uiso   1.00
C598   C     0.22888   0.52601   0.58191   0.00000  Uiso   1.00
C599   C     0.24144   0.96755   0.41932   0.00000  Uiso   1.00
C600   C     0.25000   0.50001   0.02168   0.00000  Uiso   1.00
C601   C     0.25000   0.50001   0.97952   0.00000  Uiso   1.00
C602   C    -0.00000   0.75000   0.02167   0.00000  Uiso   1.00
C603   C    -0.00000   0.75000   0.97951   0.00000  Uiso   1.00
C604   C     0.00000   0.75000   0.52169   0.00000  Uiso   1.00
C605   C     0.00000   0.75000   0.47953   0.00000  Uiso   1.00
C606   C     0.25000   0.50000   0.52168   0.00000  Uiso   1.00
C607   C     0.00824   0.78207   0.95947   0.00000  Uiso   1.00
C608   C     0.25000   0.50000   0.47952   0.00000  Uiso   1.00
C609   C     0.25000   0.50000   0.35546   0.00000  Uiso   1.00
C610   C     0.25000   0.50000   0.64483   0.00000  Uiso   1.00
C611   C     0.00000   0.75000   0.35546   0.00000  Uiso   1.00
C612   C    -0.00000   0.75000   0.64483   0.00000  Uiso   1.00
C613   C    -0.00000   0.75000   0.85546   0.00000  Uiso   1.00
C614   C     0.00000   0.75000   0.14483   0.00000  Uiso   1.00
C615   C     0.25000   0.50000   0.85546   0.00000  Uiso   1.00
C616   C     0.25000   0.50000   0.14483   0.00000  Uiso   1.00
C617   C     0.17998   0.57002   0.24999   0.00000  Uiso   1.00
C618   C     0.27595   0.97931   0.04175   0.00000  Uiso   1.00
C619   C     0.32002   0.92998   0.74999   0.00000  Uiso   1.00
C620   C     0.42998   0.67999   0.24999   0.00000  Uiso   1.00
C621   C     0.07001   0.82002   0.74999   0.00000  Uiso   1.00
C622   C     0.32002   0.92998   0.24998   0.00000  Uiso   1.00
C623   C     0.17998   0.57002   0.74999   0.00000  Uiso   1.00
C624   C     0.07002   0.82001   0.24999   0.00000  Uiso   1.00
C625   C     0.42999   0.67998   0.74999   0.00000  Uiso   1.00
C626   C     0.17998   0.92999   0.74999   0.00000  Uiso   1.00
C627   C     0.32002   0.57002   0.24999   0.00000  Uiso   1.00
C628   C     0.42998   0.82002   0.74998   0.00000  Uiso   1.00
C629   C     0.21791   0.99183   0.95948   0.00000  Uiso   1.00
C630   C     0.07002   0.67998   0.24999   0.00000  Uiso   1.00
C631   C     0.32002   0.57001   0.74999   0.00000  Uiso   1.00
C632   C     0.17998   0.92998   0.24999   0.00000  Uiso   1.00
C633   C     0.07002   0.67998   0.74998   0.00000  Uiso   1.00
C634   C     0.42998   0.82002   0.24999   0.00000  Uiso   1.00
C635   C     0.14672   0.88043   0.21675   0.00000  Uiso   1.00
C636   C     0.35312   0.61973   0.78312   0.00000  Uiso   1.00
C637   C     0.08894   0.61608   0.26148   0.00000  Uiso   1.00
C638   C     0.41102   0.88389   0.73827   0.00000  Uiso   1.00
C639   C     0.35329   0.61956   0.21674   0.00000  Uiso   1.00
C640   C     0.47936   0.77599   0.04175   0.00000  Uiso   1.00
C641   C     0.14687   0.88027   0.78313   0.00000  Uiso   1.00
C642   C     0.41107   0.88393   0.26144   0.00000  Uiso   1.00
C643   C     0.08898   0.61611   0.73827   0.00000  Uiso   1.00
C644   C     0.11611   0.58898   0.73827   0.00000  Uiso   1.00
C645   C     0.38393   0.91107   0.26144   0.00000  Uiso   1.00
C646   C     0.11973   0.85313   0.78312   0.00000  Uiso   1.00
C647   C     0.38044   0.64671   0.21674   0.00000  Uiso   1.00
C648   C     0.38389   0.91102   0.73827   0.00000  Uiso   1.00
C649   C     0.11608   0.58894   0.26148   0.00000  Uiso   1.00
C650   C     0.38026   0.64688   0.78312   0.00000  Uiso   1.00
C651   C     0.49176   0.71793   0.95947   0.00000  Uiso   1.00
C652   C     0.11957   0.85328   0.21674   0.00000  Uiso   1.00
C653   C     0.39675   0.63040   0.71676   0.00000  Uiso   1.00
C654   C     0.10316   0.86969   0.28315   0.00000  Uiso   1.00
C655   C     0.33895   0.86608   0.76151   0.00000  Uiso   1.00
C656   C     0.16103   0.63389   0.23830   0.00000  Uiso   1.00
C657   C     0.10326   0.86959   0.71675   0.00000  Uiso   1.00
C658   C     0.39683   0.63032   0.28316   0.00000  Uiso   1.00
C659   C     0.16105   0.63392   0.76150   0.00000  Uiso   1.00
C660   C     0.33896   0.86610   0.23834   0.00000  Uiso   1.00
C661   C     0.36610   0.83896   0.23834   0.00000  Uiso   1.00
C662   C     0.47411   0.77077   0.54176   0.00000  Uiso   1.00
C663   C     0.13392   0.66105   0.76150   0.00000  Uiso   1.00
C664   C     0.36969   0.60316   0.28315   0.00000  Uiso   1.00
C665   C     0.13041   0.89674   0.71675   0.00000  Uiso   1.00
C666   C     0.13389   0.66103   0.23830   0.00000  Uiso   1.00
C667   C     0.36608   0.83895   0.76151   0.00000  Uiso   1.00
C668   C     0.13030   0.89685   0.28314   0.00000  Uiso   1.00
C669   C     0.36960   0.60325   0.71676   0.00000  Uiso   1.00
C670   C     0.09807   0.84809   0.24998   0.00000  Uiso   1.00
C671   C     0.40190   0.65194   0.74997   0.00000  Uiso   1.00
C672   C     0.15191   0.59808   0.24995   0.00000  Uiso   1.00
H673   H     0.20428   0.53709   0.02599   0.00000  Uiso   1.00
H674   H     0.05692   0.76453   0.47535   0.00000  Uiso   1.00
H675   H     0.28711   0.95431   0.52598   0.00000  Uiso   1.00
H676   H     0.26487   0.55683   0.47535   0.00000  Uiso   1.00
H677   H     0.04561   0.71280   0.52599   0.00000  Uiso   1.00
H678   H     0.44308   0.73548   0.47535   0.00000  Uiso   1.00
H679   H     0.21289   0.54569   0.52598   0.00000  Uiso   1.00
H680   H     0.23513   0.94317   0.47535   0.00000  Uiso   1.00
H681   H     0.30683   0.51488   0.97535   0.00000  Uiso   1.00
H682   H     0.03698   0.70420   0.02598   0.00000  Uiso   1.00
H683   H     0.01499   0.80680   0.97534   0.00000  Uiso   1.00
H684   H     0.29572   0.96294   0.02598   0.00000  Uiso   1.00
H685   H     0.19316   0.98513   0.97535   0.00000  Uiso   1.00
H686   H     0.46302   0.79580   0.02598   0.00000  Uiso   1.00
H687   H     0.48500   0.69320   0.97534   0.00000  Uiso   1.00
H688   H     0.45439   0.78721   0.52600   0.00000  Uiso   1.00
I689   I     0.18120   0.88828   0.16733   0.00000  Uiso   1.00
I690   I     0.39626   0.96565   0.28044   0.00000  Uiso   1.00
I691   I     0.11230   0.81827   0.83229   0.00000  Uiso   1.00
I692   I     0.38831   0.68117   0.16731   0.00000  Uiso   1.00
I693   I     0.39609   0.96551   0.71890   0.00000  Uiso   1.00
I694   I     0.10376   0.53438   0.28054   0.00000  Uiso   1.00
I695   I     0.38769   0.68175   0.83229   0.00000  Uiso   1.00
I696   I     0.11171   0.81881   0.16733   0.00000  Uiso   1.00
I697   I     0.43126   0.63822   0.66736   0.00000  Uiso   1.00
I698   I     0.06838   0.86218   0.33237   0.00000  Uiso   1.00
I699   I     0.28439   0.85379   0.78062   0.00000  Uiso   1.00
I700   I     0.31827   0.61229   0.83230   0.00000  Uiso   1.00
I701   I     0.21553   0.64611   0.21897   0.00000  Uiso   1.00
I702   I     0.06876   0.86176   0.66735   0.00000  Uiso   1.00
I703   I     0.43158   0.63786   0.33239   0.00000  Uiso   1.00
I704   I     0.21561   0.64622   0.78060   0.00000  Uiso   1.00
I705   I     0.28444   0.85386   0.21907   0.00000  Uiso   1.00
I706   I     0.35386   0.78445   0.21906   0.00000  Uiso   1.00
I707   I     0.14622   0.71561   0.78059   0.00000  Uiso   1.00
I708   I     0.36222   0.56835   0.33235   0.00000  Uiso   1.00
I709   I     0.13824   0.93124   0.66735   0.00000  Uiso   1.00
I710   I     0.14611   0.71553   0.21897   0.00000  Uiso   1.00
I711   I     0.03437   0.60377   0.28055   0.00000  Uiso   1.00
I712   I     0.35378   0.78439   0.78061   0.00000  Uiso   1.00
I713   I     0.13776   0.93167   0.33233   0.00000  Uiso   1.00
I714   I     0.36178   0.56874   0.66736   0.00000  Uiso   1.00
I715   I     0.46551   0.89609   0.71889   0.00000  Uiso   1.00
I716   I     0.31882   0.61170   0.16732   0.00000  Uiso   1.00
I717   I     0.18172   0.88772   0.83230   0.00000  Uiso   1.00
I718   I     0.46565   0.89627   0.28044   0.00000  Uiso   1.00
I719   I     0.03449   0.60391   0.71891   0.00000  Uiso   1.00
I720   I     0.10391   0.53449   0.71891   0.00000  Uiso   1.00
N721   N     0.17677   0.56325   0.11654   0.00000  Uiso   1.00
N722   N     0.09427   0.77597   0.38663   0.00000  Uiso   1.00
N723   N     0.31331   0.92683   0.61654   0.00000  Uiso   1.00
N724   N     0.27660   0.59409   0.38660   0.00000  Uiso   1.00
N725   N     0.07307   0.68658   0.61655   0.00000  Uiso   1.00
N726   N     0.40574   0.72401   0.38663   0.00000  Uiso   1.00
N727   N     0.18669   0.57317   0.61654   0.00000  Uiso   1.00
N728   N     0.22342   0.90591   0.38660   0.00000  Uiso   1.00
N729   N     0.34410   0.52654   0.88659   0.00000  Uiso   1.00
N730   N     0.06309   0.67663   0.11652   0.00000  Uiso   1.00
N731   N     0.02677   0.84403   0.88659   0.00000  Uiso   1.00
N732   N     0.32323   0.93676   0.11653   0.00000  Uiso   1.00
N733   N     0.15592   0.97340   0.88659   0.00000  Uiso   1.00
N734   N     0.43691   0.82337   0.11652   0.00000  Uiso   1.00
N735   N     0.47322   0.65597   0.88659   0.00000  Uiso   1.00
N736   N     0.42692   0.81342   0.61655   0.00000  Uiso   1.00
O737   O     0.25000   0.50000   0.25000   0.00000  Uiso   1.00
O738   O     0.25000   0.96964   0.66317   0.00000  Uiso   1.00
O739   O     0.46964   0.75000   0.33683   0.00000  Uiso   1.00
O740   O     0.03036   0.75000   0.66317   0.00000  Uiso   1.00
O741   O    -0.00000   0.71964   0.83683   0.00000  Uiso   1.00
O742   O    -0.00000   0.78036   0.16317   0.00000  Uiso   1.00
O743   O     0.28036   0.50000   0.83683   0.00000  Uiso   1.00
O744   O     0.21964   0.50000   0.16317   0.00000  Uiso   1.00
O745   O    -0.00000   0.78036   0.83683   0.00000  Uiso   1.00
O746   O    -0.00000   0.71964   0.16317   0.00000  Uiso   1.00
O747   O     0.21964   0.50000   0.83683   0.00000  Uiso   1.00
O748   O     0.25000   0.50000   0.75000   0.00000  Uiso   1.00
O749   O     0.28036   0.50000   0.16317   0.00000  Uiso   1.00
O750   O     0.20725   0.57307   0.27282   0.00000  Uiso   1.00
O751   O     0.29274   0.92693   0.72718   0.00000  Uiso   1.00
O752   O     0.42693   0.70726   0.27282   0.00000  Uiso   1.00
O753   O     0.07307   0.79275   0.72718   0.00000  Uiso   1.00
O754   O     0.29274   0.92693   0.27282   0.00000  Uiso   1.00
O755   O     0.20725   0.57307   0.72718   0.00000  Uiso   1.00
O756   O     0.07307   0.79275   0.27282   0.00000  Uiso   1.00
O757   O     0.42693   0.70726   0.72718   0.00000  Uiso   1.00
O758   O     0.20725   0.92693   0.72718   0.00000  Uiso   1.00
O759   O    -0.00000   0.75000   0.25000   0.00000  Uiso   1.00
O760   O     0.29274   0.57307   0.27282   0.00000  Uiso   1.00
O761   O     0.42693   0.79275   0.72718   0.00000  Uiso   1.00
O762   O     0.07307   0.70726   0.27282   0.00000  Uiso   1.00
O763   O     0.29274   0.57307   0.72718   0.00000  Uiso   1.00
O764   O     0.20725   0.92693   0.27282   0.00000  Uiso   1.00
O765   O     0.07307   0.70726   0.72718   0.00000  Uiso   1.00
O766   O     0.42693   0.79275   0.27282   0.00000  Uiso   1.00
O767   O     0.45725   0.82307   0.77282   0.00000  Uiso   1.00
O768   O     0.04274   0.67693   0.22718   0.00000  Uiso   1.00
O769   O     0.17693   0.95726   0.77282   0.00000  Uiso   1.00
O770   O     0.00000   0.75000   0.75000   0.00000  Uiso   1.00
O771   O     0.32307   0.54275   0.22718   0.00000  Uiso   1.00
O772   O     0.04274   0.67693   0.77282   0.00000  Uiso   1.00
O773   O     0.45725   0.82307   0.22718   0.00000  Uiso   1.00
O774   O     0.32307   0.54275   0.77282   0.00000  Uiso   1.00
O775   O     0.17693   0.95726   0.22718   0.00000  Uiso   1.00
O776   O     0.45725   0.67693   0.22718   0.00000  Uiso   1.00
O777   O     0.04274   0.82307   0.77282   0.00000  Uiso   1.00
O778   O     0.17693   0.54275   0.22718   0.00000  Uiso   1.00
O779   O     0.32307   0.95726   0.77282   0.00000  Uiso   1.00
O780   O     0.04274   0.82307   0.22718   0.00000  Uiso   1.00
O781   O     0.25000   0.96964   0.33683   0.00000  Uiso   1.00
O782   O     0.45725   0.67693   0.77282   0.00000  Uiso   1.00
O783   O     0.32307   0.95726   0.22718   0.00000  Uiso   1.00
O784   O     0.17693   0.54275   0.77282   0.00000  Uiso   1.00
O785   O     0.25000   0.53036   0.66317   0.00000  Uiso   1.00
O786   O     0.03036   0.75000   0.33683   0.00000  Uiso   1.00
O787   O     0.46964   0.75000   0.66317   0.00000  Uiso   1.00
O788   O     0.25000   0.53036   0.33683   0.00000  Uiso   1.00
Zn789  Zn    0.20660   0.50000   0.21760   0.00000  Uiso   1.00
Zn790  Zn    0.04340   0.75000   0.28240   0.00000  Uiso   1.00
Zn791  Zn    0.25000   0.95660   0.71760   0.00000  Uiso   1.00
Zn792  Zn    0.25000   0.54340   0.28240   0.00000  Uiso   1.00
Zn793  Zn    0.04340   0.75000   0.71760   0.00000  Uiso   1.00
Zn794  Zn    0.45660   0.75000   0.28240   0.00000  Uiso   1.00
Zn795  Zn    0.25000   0.54340   0.71760   0.00000  Uiso   1.00
Zn796  Zn    0.25000   0.95660   0.28240   0.00000  Uiso   1.00
Zn797  Zn    0.29340   0.50000   0.78240   0.00000  Uiso   1.00
Zn798  Zn    0.00000   0.70660   0.21760   0.00000  Uiso   1.00
Zn799  Zn   -0.00000   0.79340   0.78240   0.00000  Uiso   1.00
Zn800  Zn    0.29340   0.50000   0.21760   0.00000  Uiso   1.00
Zn801  Zn    0.20660   0.50000   0.78240   0.00000  Uiso   1.00
Zn802  Zn   -0.00000   0.79340   0.21760   0.00000  Uiso   1.00
Zn803  Zn    0.00000   0.70660   0.78240   0.00000  Uiso   1.00
Zn804  Zn    0.45660   0.75000   0.71760   0.00000  Uiso   1.00
C805   C     0.72405   0.52071   0.04175   0.00000  Uiso   1.00
C806   C     0.53214   0.75798   0.45948   0.00000  Uiso   1.00
C807   C     0.84808   0.90192   0.74995   0.00000  Uiso   1.00
C808   C     0.90193   0.65191   0.24998   0.00000  Uiso   1.00
C809   C     0.59810   0.84806   0.74997   0.00000  Uiso   1.00
C810   C     0.84809   0.90192   0.24995   0.00000  Uiso   1.00
C811   C     0.65192   0.59809   0.74995   0.00000  Uiso   1.00
C812   C     0.59809   0.65192   0.74995   0.00000  Uiso   1.00
C813   C     0.90192   0.84809   0.24995   0.00000  Uiso   1.00
C814   C     0.65194   0.90191   0.74997   0.00000  Uiso   1.00
C815   C     0.84810   0.59806   0.24997   0.00000  Uiso   1.00
C816   C     0.90191   0.84808   0.74995   0.00000  Uiso   1.00
C817   C     0.77072   0.97407   0.54175   0.00000  Uiso   1.00
C818   C     0.59808   0.65192   0.24995   0.00000  Uiso   1.00
C819   C     0.84806   0.59810   0.74997   0.00000  Uiso   1.00
C820   C     0.65190   0.90194   0.24997   0.00000  Uiso   1.00
C821   C     0.75000   0.50000   0.10247   0.00000  Uiso   1.00
C822   C     0.75000   0.50000   0.89833   0.00000  Uiso   1.00
C823   C     0.50000   0.75000   0.10246   0.00000  Uiso   1.00
C824   C     0.50000   0.75000   0.89832   0.00000  Uiso   1.00
C825   C     0.50000   0.75000   0.60247   0.00000  Uiso   1.00
C826   C     0.50000   0.75000   0.39833   0.00000  Uiso   1.00
C827   C     0.75000   0.50000   0.60247   0.00000  Uiso   1.00
C828   C     0.75818   0.53209   0.45948   0.00000  Uiso   1.00
C829   C     0.75000   0.50000   0.39833   0.00000  Uiso   1.00
C830   C     0.69775   0.54450   0.10115   0.00000  Uiso   1.00
C831   C     0.81664   0.51856   0.90106   0.00000  Uiso   1.00
C832   C     0.54438   0.69765   0.10113   0.00000  Uiso   1.00
C833   C     0.51872   0.81660   0.90106   0.00000  Uiso   1.00
C834   C     0.80225   0.95551   0.10114   0.00000  Uiso   1.00
C835   C     0.68337   0.98141   0.90106   0.00000  Uiso   1.00
C836   C     0.95562   0.80235   0.10113   0.00000  Uiso   1.00
C837   C     0.98127   0.68341   0.90105   0.00000  Uiso   1.00
C838   C     0.94785   0.79462   0.60115   0.00000  Uiso   1.00
C839   C     0.52589   0.72923   0.54176   0.00000  Uiso   1.00
C840   C     0.56676   0.76816   0.40108   0.00000  Uiso   1.00
C841   C     0.79454   0.94779   0.60114   0.00000  Uiso   1.00
C842   C     0.76859   0.56663   0.40106   0.00000  Uiso   1.00
C843   C     0.55214   0.70538   0.60115   0.00000  Uiso   1.00
C844   C     0.93324   0.73183   0.40108   0.00000  Uiso   1.00
C845   C     0.70546   0.55221   0.60114   0.00000  Uiso   1.00
C846   C     0.73142   0.93336   0.40106   0.00000  Uiso   1.00
C847   C     0.96786   0.74202   0.45948   0.00000  Uiso   1.00
C848   C     0.72928   0.52593   0.54175   0.00000  Uiso   1.00
C849   C     0.74182   0.96791   0.45948   0.00000  Uiso   1.00
C850   C     0.72397   0.52111   0.08191   0.00000  Uiso   1.00
C851   C     0.78245   0.50856   0.91932   0.00000  Uiso   1.00
C852   C     0.52104   0.72393   0.08190   0.00000  Uiso   1.00
C853   C     0.78209   0.50819   0.95948   0.00000  Uiso   1.00
C854   C     0.50863   0.78243   0.91932   0.00000  Uiso   1.00
C855   C     0.77603   0.97891   0.08190   0.00000  Uiso   1.00
C856   C     0.71755   0.99144   0.91932   0.00000  Uiso   1.00
C857   C     0.97896   0.77607   0.08190   0.00000  Uiso   1.00
C858   C     0.99137   0.71757   0.91931   0.00000  Uiso   1.00
C859   C     0.97402   0.77117   0.58192   0.00000  Uiso   1.00
C860   C     0.53250   0.75836   0.41933   0.00000  Uiso   1.00
C861   C     0.77112   0.97399   0.58191   0.00000  Uiso   1.00
C862   C     0.75856   0.53245   0.41932   0.00000  Uiso   1.00
C863   C     0.52597   0.72883   0.58192   0.00000  Uiso   1.00
C864   C     0.52064   0.72400   0.04175   0.00000  Uiso   1.00
C865   C     0.96750   0.74164   0.41933   0.00000  Uiso   1.00
C866   C     0.72888   0.52601   0.58191   0.00000  Uiso   1.00
C867   C     0.74144   0.96755   0.41932   0.00000  Uiso   1.00
C868   C     0.75000   0.50001   0.02168   0.00000  Uiso   1.00
C869   C     0.75000   0.50001   0.97952   0.00000  Uiso   1.00
C870   C     0.50000   0.75000   0.02167   0.00000  Uiso   1.00
C871   C     0.50000   0.75000   0.97951   0.00000  Uiso   1.00
C872   C     0.50000   0.75000   0.52169   0.00000  Uiso   1.00
C873   C     0.50000   0.75000   0.47953   0.00000  Uiso   1.00
C874   C     0.75000   0.50000   0.52168   0.00000  Uiso   1.00
C875   C     0.50824   0.78207   0.95947   0.00000  Uiso   1.00
C876   C     0.75000   0.50000   0.47952   0.00000  Uiso   1.00
C877   C     0.75000   0.50000   0.35546   0.00000  Uiso   1.00
C878   C     0.75000   0.50000   0.64483   0.00000  Uiso   1.00
C879   C     0.50000   0.75000   0.35546   0.00000  Uiso   1.00
C880   C     0.50000   0.75000   0.64483   0.00000  Uiso   1.00
C881   C     0.50000   0.75000   0.85546   0.00000  Uiso   1.00
C882   C     0.50000   0.75000   0.14483   0.00000  Uiso   1.00
C883   C     0.75000   0.50000   0.85546   0.00000  Uiso   1.00
C884   C     0.75000   0.50000   0.14483   0.00000  Uiso   1.00
C885   C     0.67998   0.57002   0.24999   0.00000  Uiso   1.00
C886   C     0.77595   0.97931   0.04175   0.00000  Uiso   1.00
C887   C     0.82002   0.92998   0.74999   0.00000  Uiso   1.00
C888   C     0.92998   0.67999   0.24999   0.00000  Uiso   1.00
C889   C     0.57001   0.82002   0.74999   0.00000  Uiso   1.00
C890   C     0.82002   0.92998   0.24998   0.00000  Uiso   1.00
C891   C     0.67998   0.57002   0.74999   0.00000  Uiso   1.00
C892   C     0.57002   0.82001   0.24999   0.00000  Uiso   1.00
C893   C     0.92999   0.67998   0.74999   0.00000  Uiso   1.00
C894   C     0.67998   0.92999   0.74999   0.00000  Uiso   1.00
C895   C     0.82002   0.57002   0.24999   0.00000  Uiso   1.00
C896   C     0.92998   0.82002   0.74998   0.00000  Uiso   1.00
C897   C     0.71791   0.99183   0.95948   0.00000  Uiso   1.00
C898   C     0.57002   0.67998   0.24999   0.00000  Uiso   1.00
C899   C     0.82002   0.57001   0.74999   0.00000  Uiso   1.00
C900   C     0.67998   0.92998   0.24999   0.00000  Uiso   1.00
C901   C     0.57002   0.67998   0.74998   0.00000  Uiso   1.00
C902   C     0.92998   0.82002   0.24999   0.00000  Uiso   1.00
C903   C     0.64672   0.88043   0.21675   0.00000  Uiso   1.00
C904   C     0.85312   0.61973   0.78312   0.00000  Uiso   1.00
C905   C     0.58894   0.61608   0.26148   0.00000  Uiso   1.00
C906   C     0.91102   0.88389   0.73827   0.00000  Uiso   1.00
C907   C     0.85329   0.61956   0.21674   0.00000  Uiso   1.00
C908   C     0.97936   0.77599   0.04175   0.00000  Uiso   1.00
C909   C     0.64687   0.88027   0.78313   0.00000  Uiso   1.00
C910   C     0.91107   0.88393   0.26144   0.00000  Uiso   1.00
C911   C     0.58898   0.61611   0.73827   0.00000  Uiso   1.00
C912   C     0.61611   0.58898   0.73827   0.00000  Uiso   1.00
C913   C     0.88393   0.91107   0.26144   0.00000  Uiso   1.00
C914   C     0.61973   0.85313   0.78312   0.00000  Uiso   1.00
C915   C     0.88044   0.64671   0.21674   0.00000  Uiso   1.00
C916   C     0.88389   0.91102   0.73827   0.00000  Uiso   1.00
C917   C     0.61608   0.58894   0.26148   0.00000  Uiso   1.00
C918   C     0.88026   0.64688   0.78312   0.00000  Uiso   1.00
C919   C     0.99176   0.71793   0.95947   0.00000  Uiso   1.00
C920   C     0.61957   0.85328   0.21674   0.00000  Uiso   1.00
C921   C     0.89675   0.63040   0.71676   0.00000  Uiso   1.00
C922   C     0.60316   0.86969   0.28315   0.00000  Uiso   1.00
C923   C     0.83895   0.86608   0.76151   0.00000  Uiso   1.00
C924   C     0.66103   0.63389   0.23830   0.00000  Uiso   1.00
C925   C     0.60326   0.86959   0.71675   0.00000  Uiso   1.00
C926   C     0.89683   0.63032   0.28316   0.00000  Uiso   1.00
C927   C     0.66105   0.63392   0.76150   0.00000  Uiso   1.00
C928   C     0.83896   0.86610   0.23834   0.00000  Uiso   1.00
C929   C     0.86610   0.83896   0.23834   0.00000  Uiso   1.00
C930   C     0.97411   0.77077   0.54176   0.00000  Uiso   1.00
C931   C     0.63392   0.66105   0.76150   0.00000  Uiso   1.00
C932   C     0.86969   0.60316   0.28315   0.00000  Uiso   1.00
C933   C     0.63041   0.89674   0.71675   0.00000  Uiso   1.00
C934   C     0.63389   0.66103   0.23830   0.00000  Uiso   1.00
C935   C     0.86608   0.83895   0.76151   0.00000  Uiso   1.00
C936   C     0.63030   0.89685   0.28314   0.00000  Uiso   1.00
C937   C     0.86960   0.60325   0.71676   0.00000  Uiso   1.00
C938   C     0.59807   0.84809   0.24998   0.00000  Uiso   1.00
C939   C     0.90190   0.65194   0.74997   0.00000  Uiso   1.00
C940   C     0.65191   0.59808   0.24995   0.00000  Uiso   1.00
H941   H     0.70428   0.53709   0.02599   0.00000  Uiso   1.00
H942   H     0.55692   0.76453   0.47535   0.00000  Uiso   1.00
H943   H     0.78711   0.95431   0.52598   0.00000  Uiso   1.00
H944   H     0.76487   0.55683   0.47535   0.00000  Uiso   1.00
H945   H     0.54561   0.71280   0.52599   0.00000  Uiso   1.00
H946   H     0.94308   0.73548   0.47535   0.00000  Uiso   1.00
H947   H     0.71289   0.54569   0.52598   0.00000  Uiso   1.00
H948   H     0.73513   0.94317   0.47535   0.00000  Uiso   1.00
H949   H     0.80683   0.51488   0.97535   0.00000  Uiso   1.00
H950   H     0.53698   0.70420   0.02598   0.00000  Uiso   1.00
H951   H     0.51499   0.80680   0.97534   0.00000  Uiso   1.00
H952   H     0.79572   0.96294   0.02598   0.00000  Uiso   1.00
H953   H     0.69316   0.98513   0.97535   0.00000  Uiso   1.00
H954   H     0.96302   0.79580   0.02598   0.00000  Uiso   1.00
H955   H     0.98500   0.69320   0.97534   0.00000  Uiso   1.00
H956   H     0.95439   0.78721   0.52600   0.00000  Uiso   1.00
I957   I     0.68120   0.88828   0.16733   0.00000  Uiso   1.00
I958   I     0.89626   0.96565   0.28044   0.00000  Uiso   1.00
I959   I     0.61230   0.81827   0.83229   0.00000  Uiso   1.00
I960   I     0.88831   0.68117   0.16731   0.00000  Uiso   1.00
I961   I     0.89609   0.96551   0.71890   0.00000  Uiso   1.00
I962   I     0.60376   0.53438   0.28054   0.00000  Uiso   1.00
I963   I     0.88769   0.68175   0.83229   0.00000  Uiso   1.00
I964   I     0.61171   0.81881   0.16733   0.00000  Uiso   1.00
I965   I     0.93126   0.63822   0.66736   0.00000  Uiso   1.00
I966   I     0.56838   0.86218   0.33237   0.00000  Uiso   1.00
I967   I     0.78439   0.85379   0.78062   0.00000  Uiso   1.00
I968   I     0.81827   0.61229   0.83230   0.00000  Uiso   1.00
I969   I     0.71553   0.64611   0.21897   0.00000  Uiso   1.00
I970   I     0.56876   0.86176   0.66735   0.00000  Uiso   1.00
I971   I     0.93158   0.63786   0.33239   0.00000  Uiso   1.00
I972   I     0.71561   0.64622   0.78060   0.00000  Uiso   1.00
I973   I     0.78444   0.85386   0.21907   0.00000  Uiso   1.00
I974   I     0.85386   0.78445   0.21906   0.00000  Uiso   1.00
I975   I     0.64622   0.71561   0.78059   0.00000  Uiso   1.00
I976   I     0.86222   0.56835   0.33235   0.00000  Uiso   1.00
I977   I     0.63824   0.93124   0.66735   0.00000  Uiso   1.00
I978   I     0.64611   0.71553   0.21897   0.00000  Uiso   1.00
I979   I     0.53437   0.60377   0.28055   0.00000  Uiso   1.00
I980   I     0.85378   0.78439   0.78061   0.00000  Uiso   1.00
I981   I     0.63776   0.93167   0.33233   0.00000  Uiso   1.00
I982   I     0.86178   0.56874   0.66736   0.00000  Uiso   1.00
I983   I     0.96551   0.89609   0.71889   0.00000  Uiso   1.00
I984   I     0.81882   0.61170   0.16732   0.00000  Uiso   1.00
I985   I     0.68172   0.88772   0.83230   0.00000  Uiso   1.00
I986   I     0.96565   0.89627   0.28044   0.00000  Uiso   1.00
I987   I     0.53449   0.60391   0.71891   0.00000  Uiso   1.00
I988   I     0.60391   0.53449   0.71891   0.00000  Uiso   1.00
N989   N     0.67677   0.56325   0.11654   0.00000  Uiso   1.00
N990   N     0.59427   0.77597   0.38663   0.00000  Uiso   1.00
N991   N     0.81331   0.92683   0.61654   0.00000  Uiso   1.00
N992   N     0.77660   0.59409   0.38660   0.00000  Uiso   1.00
N993   N     0.57307   0.68658   0.61655   0.00000  Uiso   1.00
N994   N     0.90574   0.72401   0.38663   0.00000  Uiso   1.00
N995   N     0.68669   0.57317   0.61654   0.00000  Uiso   1.00
N996   N     0.72342   0.90591   0.38660   0.00000  Uiso   1.00
N997   N     0.84410   0.52654   0.88659   0.00000  Uiso   1.00
N998   N     0.56309   0.67663   0.11652   0.00000  Uiso   1.00
N999   N     0.52677   0.84403   0.88659   0.00000  Uiso   1.00
N1000  N     0.82323   0.93676   0.11653   0.00000  Uiso   1.00
N1001  N     0.65592   0.97340   0.88659   0.00000  Uiso   1.00
N1002  N     0.93691   0.82337   0.11652   0.00000  Uiso   1.00
N1003  N     0.97322   0.65597   0.88659   0.00000  Uiso   1.00
N1004  N     0.92692   0.81342   0.61655   0.00000  Uiso   1.00
O1005  O     0.75000   0.50000   0.25000   0.00000  Uiso   1.00
O1006  O     0.75000   0.96964   0.66317   0.00000  Uiso   1.00
O1007  O     0.96964   0.75000   0.33683   0.00000  Uiso   1.00
O1008  O     0.53036   0.75000   0.66317   0.00000  Uiso   1.00
O1009  O     0.50000   0.71964   0.83683   0.00000  Uiso   1.00
O1010  O     0.50000   0.78036   0.16317   0.00000  Uiso   1.00
O1011  O     0.78036   0.50000   0.83683   0.00000  Uiso   1.00
O1012  O     0.71964   0.50000   0.16317   0.00000  Uiso   1.00
O1013  O     0.50000   0.78036   0.83683   0.00000  Uiso   1.00
O1014  O     0.50000   0.71964   0.16317   0.00000  Uiso   1.00
O1015  O     0.71964   0.50000   0.83683   0.00000  Uiso   1.00
O1016  O     0.75000   0.50000   0.75000   0.00000  Uiso   1.00
O1017  O     0.78036   0.50000   0.16317   0.00000  Uiso   1.00
O1018  O     0.70725   0.57307   0.27282   0.00000  Uiso   1.00
O1019  O     0.79274   0.92693   0.72718   0.00000  Uiso   1.00
O1020  O     0.92693   0.70726   0.27282   0.00000  Uiso   1.00
O1021  O     0.57307   0.79275   0.72718   0.00000  Uiso   1.00
O1022  O     0.79274   0.92693   0.27282   0.00000  Uiso   1.00
O1023  O     0.70725   0.57307   0.72718   0.00000  Uiso   1.00
O1024  O     0.57307   0.79275   0.27282   0.00000  Uiso   1.00
O1025  O     0.92693   0.70726   0.72718   0.00000  Uiso   1.00
O1026  O     0.70725   0.92693   0.72718   0.00000  Uiso   1.00
O1027  O     0.50000   0.75000   0.25000   0.00000  Uiso   1.00
O1028  O     0.79274   0.57307   0.27282   0.00000  Uiso   1.00
O1029  O     0.92693   0.79275   0.72718   0.00000  Uiso   1.00
O1030  O     0.57307   0.70726   0.27282   0.00000  Uiso   1.00
O1031  O     0.79274   0.57307   0.72718   0.00000  Uiso   1.00
O1032  O     0.70725   0.92693   0.27282   0.00000  Uiso   1.00
O1033  O     0.57307   0.70726   0.72718   0.00000  Uiso   1.00
O1034  O     0.92693   0.79275   0.27282   0.00000  Uiso   1.00
O1035  O     0.95725   0.82307   0.77282   0.00000  Uiso   1.00
O1036  O     0.54274   0.67693   0.22718   0.00000  Uiso   1.00
O1037  O     0.67693   0.95726   0.77282   0.00000  Uiso   1.00
O1038  O     0.50000   0.75000   0.75000   0.00000  Uiso   1.00
O1039  O     0.82307   0.54275   0.22718   0.00000  Uiso   1.00
O1040  O     0.54274   0.67693   0.77282   0.00000  Uiso   1.00
O1041  O     0.95725   0.82307   0.22718   0.00000  Uiso   1.00
O1042  O     0.82307   0.54275   0.77282   0.00000  Uiso   1.00
O1043  O     0.67693   0.95726   0.22718   0.00000  Uiso   1.00
O1044  O     0.95725   0.67693   0.22718   0.00000  Uiso   1.00
O1045  O     0.54274   0.82307   0.77282   0.00000  Uiso   1.00
O1046  O     0.67693   0.54275   0.22718   0.00000  Uiso   1.00
O1047  O     0.82307   0.95726   0.77282   0.00000  Uiso   1.00
O1048  O     0.54274   0.82307   0.22718   0.00000  Uiso   1.00
O1049  O     0.75000   0.96964   0.33683   0.00000  Uiso   1.00
O1050  O     0.95725   0.67693   0.77282   0.00000  Uiso   1.00
O1051  O     0.82307   0.95726   0.22718   0.00000  Uiso   1.00
O1052  O     0.67693   0.54275   0.77282   0.00000  Uiso   1.00
O1053  O     0.75000   0.53036   0.66317   0.00000  Uiso   1.00
O1054  O     0.53036   0.75000   0.33683   0.00000  Uiso   1.00
O1055  O     0.96964   0.75000   0.66317   0.00000  Uiso   1.00
O1056  O     0.75000   0.53036   0.33683   0.00000  Uiso   1.00
Zn1057 Zn    0.70660   0.50000   0.21760   0.00000  Uiso   1.00
Zn1058 Zn    0.54340   0.75000   0.28240   0.00000  Uiso   1.00
Zn1059 Zn    0.75000   0.95660   0.71760   0.00000  Uiso   1.00
Zn1060 Zn    0.75000   0.54340   0.28240   0.00000  Uiso   1.00
Zn1061 Zn    0.54340   0.75000   0.71760   0.00000  Uiso   1.00
Zn1062 Zn    0.95660   0.75000   0.28240   0.00000  Uiso   1.00
Zn1063 Zn    0.75000   0.54340   0.71760   0.00000  Uiso   1.00
Zn1064 Zn    0.75000   0.95660   0.28240   0.00000  Uiso   1.00
Zn1065 Zn    0.79340   0.50000   0.78240   0.00000  Uiso   1.00
Zn1066 Zn    0.50000   0.70660   0.21760   0.00000  Uiso   1.00
Zn1067 Zn    0.50000   0.79340   0.78240   0.00000  Uiso   1.00
Zn1068 Zn    0.79340   0.50000   0.21760   0.00000  Uiso   1.00
Zn1069 Zn    0.70660   0.50000   0.78240   0.00000  Uiso   1.00
Zn1070 Zn    0.50000   0.79340   0.21760   0.00000  Uiso   1.00
Zn1071 Zn    0.50000   0.70660   0.78240   0.00000  Uiso   1.00
Zn1072 Zn    0.95660   0.75000   0.71760   0.00000  Uiso   1.00
loop_
_geom_bond_atom_site_label_1
_geom_bond_atom_site_label_2
_geom_bond_distance
_geom_bond_site_symmetry_2
_ccdc_geom_bond_type
C1     C64     1.397   .     A
C1     H137    1.085   .     S
C1     C46     1.393   .     A
C2     H138    1.085   .     S
C2     C69     1.394   .     A
C2     C56     1.393   .     A
C3     C119    1.407   .     A
C3     C112    1.407   .     A
C3     C83     1.449   .     S
C4     C84     1.448   .     S
C4     C111    1.407   .     A
C4     C122    1.407   .     A
C5     C121    1.407   .     A
C5     C110    1.407   .     A
C5     C85     1.448   .     S
C6     C124    1.407   .     A
C6     C86     1.449   .     S
C6     C109    1.407   .     A
C7     C87     1.449   .     S
C7     C108    1.407   .     A
C7     C123    1.407   .     A
C8     C97     1.449   .     S
C8     C127    1.407   .     A
C8     C107    1.407   .     A
C9     C98     1.449   .     S
C9     C106    1.407   .     A
C9     C125    1.407   .     A
C10    C129    1.407   .     A
C10    C90     1.448   .     S
C10    C105    1.407   .     A
C11    C91     1.448   .     S
C11    C103    1.407   .     A
C11    C128    1.407   .     A
C12    C131    1.407   .     A
C12    C102    1.407   .     A
C12    C92     1.449   .     S
C13    H139    1.085   .     S
C13    C57     1.393   .     A
C13    C606    1.397   .     S
C14    C101    1.407   .     A
C14    C130    1.407   .     A
C14    C94     1.449   .     S
C15    C100    1.407   .     A
C15    C95     1.448   .     S
C15    C133    1.407   .     A
C16    C132    1.407   .     A
C16    C96     1.448   .     S
C16    C99     1.407   .     A
C17    C46     1.416   .     A
C17    C80     1.470   .     S
C17    C587    1.416   1_545 S
C18    C47     1.424   .     A
C18    C588    1.424   1_545 S
C18    C79     1.487   .     S
C19    C321    1.416   1_455 A
C19    C48     1.416   .     S
C19    C78     1.470   .     S
C20    C77     1.487   .     S
C20    C322    1.424   1_455 A
C20    C50     1.424   .     S
C21    C76     1.470   .     S
C21    C323    1.416   1_455 A
C21    C59     1.416   .     S
C22    C75     1.487   .     S
C22    C56     1.425   .     A
C22    C329    1.425   1_455 S
C23    C62     1.416   .     A
C23    C593    1.416   1_545 S
C23    C74     1.470   .     S
C24    C72     1.394   .     A
C24    H140    1.085   .     S
C24    C58     1.393   .     A
C25    C599    1.424   1_545 A
C25    C73     1.487   .     S
C25    C58     1.424   .     S
C26    N185    1.157   .     T
C26    C46     1.446   .     S
C27    N193    1.158   .     T
C27    C47     1.446   .     S
C28    N194    1.157   .     T
C28    C48     1.446   .     S
C29    C50     1.446   .     S
C29    N195    1.158   .     T
C30    C51     1.446   .     S
C30    N196    1.157   .     T
C31    N197    1.158   .     T
C31    C52     1.446   .     S
C32    C53     1.446   .     S
C32    N198    1.157   .     T
C33    N199    1.157   .     T
C33    C54     1.446   .     S
C34    C55     1.446   .     S
C34    N200    1.157   .     T
C35    C59     1.393   .     A
C35    H141    1.085   .     S
C35    C68     1.397   .     A
C36    C56     1.446   .     S
C36    N186    1.158   .     T
C37    N187    1.157   .     T
C37    C57     1.446   .     S
C38    C58     1.446   .     S
C38    N188    1.158   .     T
C39    N189    1.157   .     T
C39    C59     1.446   .     S
C40    C61     1.446   .     S
C40    N190    1.158   .     T
C41    C62     1.446   .     S
C41    N191    1.157   .     T
C42    C63     1.446   .     S
C42    N192    1.158   .     T
C43    H142    1.085   .     S
C43    C61     1.393   .     A
C43    C337    1.394   .     S
C44    H143    1.085   .     S
C44    C70     1.397   .     A
C44    C62     1.393   .     A
C45    C63     1.393   .     A
C45    H144    1.085   .     S
C45    C608    1.394   .     S
C47    C49     1.393   .     A
C48    C60     1.393   .     A
C49    C65     1.394   .     A
C49    H145    1.085   .     S
C50    C71     1.393   .     A
C51    C82     1.393   .     A
C51    C553    1.416   .     S
C52    C93     1.393   .     A
C52    C554    1.424   .     S
C53    C104    1.393   .     A
C53    C287    1.416   .     A
C54    C288    1.424   .     A
C54    C115    1.393   .     A
C55    C289    1.416   .     A
C55    C126    1.393   .     A
C57    C559    1.416   .     S
C60    H146    1.085   .     S
C60    C66     1.397   .     S
C61    C290    1.425   .     S
C63    C561    1.424   .     A
C64    C65     1.463   1_554 S
C64    C618    1.397   1_545 S
C65    C64     1.463   1_556 S
C65    C629    1.394   1_545 S
C66    C372    1.397   1_455 A
C66    C67     1.463   1_554 S
C67    C383    1.394   1_455 A
C67    C66     1.463   1_556 S
C67    C71     1.394   .     S
C68    C69     1.463   .     S
C68    C394    1.397   1_455 S
C69    C311    1.394   1_455 S
C70    C72     1.463   .     S
C70    C549    1.397   1_545 S
C71    H147    1.085   .     S
C72    C581    1.394   1_545 S
C73    O781    1.283   1_545 A
C73    O252    1.283   .     S
C74    O738    1.277   1_545 A
C74    O249    1.277   .     S
C75    O250    1.283   .     A
C75    O471    1.283   1_455 S
C76    O519    1.277   1_455 A
C76    O204    1.277   .     S
C77    O209    1.283   .     A
C77    O205    1.283   .     A
C78    O206    1.277   .     S
C78    O210    1.277   .     S
C79    O207    1.283   .     S
C79    O211    1.283   .     S
C80    O208    1.277   .     S
C80    O213    1.277   .     S
C81    C136    1.449   .     S
C81    O242    1.276   .     A
C81    O214    1.277   .     A
C82    H148    1.085   .     S
C82    C600    1.397   .     S
C83    O243    1.277   .     A
C83    O215    1.276   .     A
C84    O240    1.276   .     A
C84    O216    1.277   .     A
C85    O217    1.276   .     A
C85    O241    1.277   .     A
C86    O247    1.276   .     A
C86    O218    1.277   .     A
C87    O248    1.277   .     A
C87    O219    1.276   .     A
C88    O220    1.277   .     A
C88    O244    1.276   .     A
C88    C134    1.448   .     S
C89    C135    1.448   .     S
C89    O246    1.277   .     A
C89    O221    1.276   .     A
C90    O233    1.277   .     A
C90    O222    1.276   .     A
C91    O235    1.276   .     A
C91    O224    1.277   .     A
C92    O231    1.277   .     A
C92    O225    1.276   .     A
C93    H149    1.085   .     S
C93    C601    1.394   .     S
C94    O232    1.276   .     A
C94    O226    1.277   .     A
C95    O227    1.276   .     A
C95    O238    1.277   .     A
C96    O228    1.277   .     A
C96    O239    1.276   .     A
C97    O229    1.276   .     A
C97    O236    1.277   .     A
C98    O237    1.276   .     A
C98    O230    1.277   .     A
C99    C116    1.400   .     A
C99    I153    2.146   .     S
C100   C114    1.400   .     A
C100   I164    2.145   .     S
C101   C113    1.401   .     A
C101   I175    2.145   .     S
C102   C112    1.401   .     A
C102   I179    2.145   .     S
C103   C111    1.400   .     A
C103   I180    2.146   .     S
C104   H150    1.085   .     S
C104   C334    1.397   .     A
C105   C110    1.400   .     A
C105   I181    2.145   .     S
C106   I182    2.145   .     S
C106   C109    1.401   .     A
C107   C108    1.401   .     A
C107   I183    2.145   .     S
C108   I184    2.145   .     S
C109   I154    2.145   .     S
C110   I155    2.145   .     S
C111   I156    2.146   .     S
C112   I157    2.145   .     S
C113   C136    1.407   .     A
C113   I158    2.145   .     S
C114   C135    1.407   .     A
C114   I159    2.145   .     S
C115   C335    1.394   .     A
C115   H151    1.085   .     S
C116   I160    2.146   .     S
C116   C134    1.407   .     A
C117   C133    1.400   .     A
C117   I161    2.145   .     S
C117   C135    1.407   .     A
C118   C134    1.407   .     A
C118   I162    2.145   .     S
C118   C132    1.400   .     A
C119   C131    1.401   .     A
C119   I163    2.145   .     S
C120   C130    1.401   .     A
C120   I165    2.145   .     S
C120   C136    1.407   .     A
C121   I166    2.145   .     S
C121   C129    1.400   .     A
C122   C128    1.400   .     A
C122   I167    2.145   .     S
C123   I168    2.145   .     S
C123   C127    1.401   .     A
C124   I169    2.145   .     S
C124   C125    1.401   .     A
C125   I170    2.145   .     S
C126   H152    1.085   .     S
C126   C336    1.397   .     S
C127   I171    2.145   .     S
C128   I172    2.145   .     S
C129   I173    2.145   .     S
C130   I174    2.145   .     S
C131   I176    2.145   .     S
C132   I177    2.145   .     S
C133   I178    2.145   .     S
O201   Zn256   1.942   .     S
O201   Zn253   1.942   .     S
O201   Zn796   1.942   1_545 S
O201   Zn264   1.942   .     S
O202   C610    1.277   .     A
O202   Zn255   1.947   .     S
O203   Zn258   1.947   .     S
O203   C343    1.283   .     S
O204   Zn257   1.947   .     S
O205   Zn267   1.947   .     S
O206   Zn266   1.947   .     S
O207   Zn261   1.947   .     S
O208   Zn253   1.947   .     S
O209   Zn263   1.947   .     S
O210   Zn262   1.947   .     S
O211   Zn265   1.947   .     S
O212   Zn259   1.942   .     S
O212   Zn791   1.942   1_545 S
O212   Zn261   1.942   .     S
O212   Zn265   1.942   .     S
O213   Zn264   1.947   .     S
O214   Zn256   1.928   .     S
O215   Zn255   1.928   .     S
O216   Zn258   1.927   .     S
O217   Zn257   1.927   .     S
O218   Zn260   1.928   .     S
O219   Zn259   1.928   .     S
O220   Zn254   1.927   .     S
O221   Zn268   1.927   .     S
O222   Zn255   1.927   .     S
O223   Zn266   1.942   .     S
O223   Zn526   1.942   1_455 S
O223   Zn254   1.942   .     S
O223   Zn262   1.942   .     S
O224   Zn256   1.927   .     S
O225   Zn268   1.928   .     S
O226   Zn254   1.928   .     S
O227   Zn259   1.927   .     S
O228   Zn260   1.927   .     S
O229   Zn257   1.928   .     S
O230   Zn258   1.928   .     S
O231   Zn531   1.928   .     S
O232   Zn262   1.928   .     S
O233   Zn801   1.927   .     S
O234   Zn257   1.942   .     S
O234   Zn267   1.942   .     S
O234   Zn263   1.942   .     S
O234   Zn536   1.942   1_455 S
O235   Zn264   1.927   .     S
O236   Zn267   1.928   .     S
O237   Zn534   1.928   .     S
O238   Zn261   1.927   .     S
O239   Zn789   1.927   .     S
O240   Zn530   1.927   .     S
O241   Zn263   1.927   .     S
O242   Zn253   1.928   .     S
O243   Zn797   1.928   .     S
O244   Zn266   1.927   .     S
O245   Zn260   1.947   .     S
O245   C609    1.283   .     A
O246   Zn535   1.927   .     S
O247   Zn800   1.928   .     S
O248   Zn265   1.928   .     S
O249   Zn259   1.947   .     S
O250   Zn254   1.947   .     S
O251   C344    1.277   .     A
O251   Zn268   1.947   .     S
O252   Zn256   1.947   .     S
Zn253  O775    1.927   1_545 S
Zn255  O748    1.942   .     S
Zn258  O491    1.942   .     S
Zn260  O737    1.942   .     S
Zn261  O779    1.928   1_545 S
Zn262  O508    1.927   1_455 S
Zn263  O499    1.928   1_455 S
Zn264  O783    1.928   1_545 S
Zn265  O769    1.927   1_545 S
Zn266  O505    1.928   1_455 S
Zn267  O514    1.927   1_455 S
Zn268  O502    1.942   .     S
C269   C332    1.397   .     A
C269   H405    1.085   .     S
C269   C314    1.393   .     A
C270   H406    1.085   .     S
C270   C337    1.394   .     A
C270   C324    1.393   .     A
C271   C387    1.407   .     A
C271   C380    1.407   .     A
C271   C351    1.449   .     S
C272   C352    1.448   .     S
C272   C379    1.407   .     A
C272   C390    1.407   .     A
C273   C389    1.407   .     A
C273   C378    1.407   .     A
C273   C353    1.448   .     S
C274   C392    1.407   .     A
C274   C354    1.449   .     S
C274   C377    1.407   .     A
C275   C355    1.449   .     S
C275   C376    1.407   .     A
C275   C391    1.407   .     A
C276   C365    1.449   .     S
C276   C395    1.407   .     A
C276   C375    1.407   .     A
C277   C366    1.449   .     S
C277   C374    1.407   .     A
C277   C393    1.407   .     A
C278   C397    1.407   .     A
C278   C358    1.448   .     S
C278   C373    1.407   .     A
C279   C359    1.448   .     S
C279   C371    1.407   .     A
C279   C396    1.407   .     A
C280   C399    1.407   .     A
C280   C370    1.407   .     A
C280   C360    1.449   .     S
C281   H407    1.085   .     S
C281   C325    1.393   .     A
C281   C874    1.397   .     S
C282   C369    1.407   .     A
C282   C398    1.407   .     A
C282   C362    1.449   .     S
C283   C368    1.407   .     A
C283   C363    1.448   .     S
C283   C401    1.407   .     A
C284   C400    1.407   .     A
C284   C364    1.448   .     S
C284   C367    1.407   .     A
C285   C314    1.416   .     A
C285   C348    1.470   .     S
C285   C855    1.416   1_545 S
C286   C315    1.424   .     A
C286   C856    1.424   1_545 S
C286   C347    1.487   .     S
C287   C316    1.416   .     S
C287   C346    1.470   .     S
C288   C345    1.487   .     S
C288   C318    1.424   .     S
C289   C344    1.470   .     S
C289   C327    1.416   .     S
C290   C343    1.487   .     S
C290   C324    1.425   .     A
C291   C330    1.416   .     A
C291   C861    1.416   1_545 S
C291   C342    1.470   .     S
C292   C340    1.394   .     A
C292   H408    1.085   .     S
C292   C326    1.393   .     A
C293   C867    1.424   1_545 A
C293   C341    1.487   .     S
C293   C326    1.424   .     S
C294   N453    1.157   .     T
C294   C314    1.446   .     S
C295   N461    1.158   .     T
C295   C315    1.446   .     S
C296   N462    1.157   .     T
C296   C316    1.446   .     S
C297   C318    1.446   .     S
C297   N463    1.158   .     T
C298   C319    1.446   .     S
C298   N464    1.157   .     T
C299   N465    1.158   .     T
C299   C320    1.446   .     S
C300   C321    1.446   .     S
C300   N466    1.157   .     T
C301   N467    1.157   .     T
C301   C322    1.446   .     S
C302   C323    1.446   .     S
C302   N468    1.157   .     T
C303   C327    1.393   .     A
C303   H409    1.085   .     S
C303   C336    1.397   .     A
C304   C324    1.446   .     S
C304   N454    1.158   .     T
C305   N455    1.157   .     T
C305   C325    1.446   .     S
C306   C326    1.446   .     S
C306   N456    1.158   .     T
C307   N457    1.157   .     T
C307   C327    1.446   .     S
C308   C329    1.446   .     S
C308   N458    1.158   .     T
C309   C330    1.446   .     S
C309   N459    1.157   .     T
C310   C331    1.446   .     S
C310   N460    1.158   .     T
C311   H410    1.085   .     S
C311   C329    1.393   .     A
C311   C69     1.394   1_655 S
C312   H411    1.085   .     S
C312   C338    1.397   .     A
C312   C330    1.393   .     A
C313   C331    1.393   .     A
C313   H412    1.085   .     S
C313   C876    1.394   .     S
C315   C317    1.393   .     A
C316   C328    1.393   .     A
C317   C333    1.394   .     A
C317   H413    1.085   .     S
C318   C339    1.393   .     A
C319   C350    1.393   .     A
C319   C821    1.416   .     S
C320   C361    1.393   .     A
C320   C822    1.424   .     S
C321   C372    1.393   .     A
C321   C19     1.416   1_655 A
C322   C20     1.424   1_655 A
C322   C383    1.393   .     A
C323   C21     1.416   1_655 A
C323   C394    1.393   .     A
C325   C827    1.416   .     S
C328   H414    1.085   .     S
C328   C334    1.397   .     S
C329   C22     1.425   1_655 S
C331   C829    1.424   .     A
C332   C333    1.463   1_554 S
C332   C886    1.397   1_545 S
C333   C332    1.463   1_556 S
C333   C897    1.394   1_545 S
C334   C335    1.463   1_554 S
C335   C334    1.463   1_556 S
C335   C339    1.394   .     S
C336   C337    1.463   .     S
C338   C340    1.463   .     S
C338   C817    1.397   1_545 S
C339   H415    1.085   .     S
C340   C849    1.394   1_545 S
C341   O1049   1.283   1_545 A
C341   O520    1.283   .     S
C342   O1006   1.277   1_545 A
C342   O517    1.277   .     S
C343   O518    1.283   .     A
C344   O472    1.277   .     S
C345   O477    1.283   .     A
C345   O473    1.283   .     A
C346   O474    1.277   .     S
C346   O478    1.277   .     S
C347   O475    1.283   .     S
C347   O479    1.283   .     S
C348   O476    1.277   .     S
C348   O481    1.277   .     S
C349   C404    1.449   .     S
C349   O510    1.276   .     A
C349   O482    1.277   .     A
C350   H416    1.085   .     S
C350   C868    1.397   .     S
C351   O511    1.277   .     A
C351   O483    1.276   .     A
C352   O508    1.276   .     A
C352   O484    1.277   .     A
C353   O485    1.276   .     A
C353   O509    1.277   .     A
C354   O515    1.276   .     A
C354   O486    1.277   .     A
C355   O516    1.277   .     A
C355   O487    1.276   .     A
C356   O488    1.277   .     A
C356   O512    1.276   .     A
C356   C402    1.448   .     S
C357   C403    1.448   .     S
C357   O514    1.277   .     A
C357   O489    1.276   .     A
C358   O501    1.277   .     A
C358   O490    1.276   .     A
C359   O503    1.276   .     A
C359   O492    1.277   .     A
C360   O499    1.277   .     A
C360   O493    1.276   .     A
C361   H417    1.085   .     S
C361   C869    1.394   .     S
C362   O500    1.276   .     A
C362   O494    1.277   .     A
C363   O495    1.276   .     A
C363   O506    1.277   .     A
C364   O496    1.277   .     A
C364   O507    1.276   .     A
C365   O497    1.276   .     A
C365   O504    1.277   .     A
C366   O505    1.276   .     A
C366   O498    1.277   .     A
C367   C384    1.400   .     A
C367   I421    2.146   .     S
C368   C382    1.400   .     A
C368   I432    2.145   .     S
C369   C381    1.401   .     A
C369   I443    2.145   .     S
C370   C380    1.401   .     A
C370   I447    2.145   .     S
C371   C379    1.400   .     A
C371   I448    2.146   .     S
C372   H418    1.085   .     S
C372   C66     1.397   1_655 A
C373   C378    1.400   .     A
C373   I449    2.145   .     S
C374   I450    2.145   .     S
C374   C377    1.401   .     A
C375   C376    1.401   .     A
C375   I451    2.145   .     S
C376   I452    2.145   .     S
C377   I422    2.145   .     S
C378   I423    2.145   .     S
C379   I424    2.146   .     S
C380   I425    2.145   .     S
C381   C404    1.407   .     A
C381   I426    2.145   .     S
C382   C403    1.407   .     A
C382   I427    2.145   .     S
C383   C67     1.394   1_655 A
C383   H419    1.085   .     S
C384   I428    2.146   .     S
C384   C402    1.407   .     A
C385   C401    1.400   .     A
C385   I429    2.145   .     S
C385   C403    1.407   .     A
C386   C402    1.407   .     A
C386   I430    2.145   .     S
C386   C400    1.400   .     A
C387   C399    1.401   .     A
C387   I431    2.145   .     S
C388   C398    1.401   .     A
C388   I433    2.145   .     S
C388   C404    1.407   .     A
C389   I434    2.145   .     S
C389   C397    1.400   .     A
C390   C396    1.400   .     A
C390   I435    2.145   .     S
C391   I436    2.145   .     S
C391   C395    1.401   .     A
C392   I437    2.145   .     S
C392   C393    1.401   .     A
C393   I438    2.145   .     S
C394   H420    1.085   .     S
C394   C68     1.397   1_655 S
C395   I439    2.145   .     S
C396   I440    2.145   .     S
C397   I441    2.145   .     S
C398   I442    2.145   .     S
C399   I444    2.145   .     S
C400   I445    2.145   .     S
C401   I446    2.145   .     S
O469   Zn524   1.942   .     S
O469   Zn521   1.942   .     S
O469   Zn1064  1.942   1_545 S
O469   Zn532   1.942   .     S
O470   C878    1.277   .     A
O470   Zn523   1.947   .     S
O471   Zn526   1.947   .     S
O471   C75     1.283   1_655 S
O472   Zn525   1.947   .     S
O473   Zn535   1.947   .     S
O474   Zn534   1.947   .     S
O475   Zn529   1.947   .     S
O476   Zn521   1.947   .     S
O477   Zn531   1.947   .     S
O478   Zn530   1.947   .     S
O479   Zn533   1.947   .     S
O480   Zn527   1.942   .     S
O480   Zn1059  1.942   1_545 S
O480   Zn529   1.942   .     S
O480   Zn533   1.942   .     S
O481   Zn532   1.947   .     S
O482   Zn524   1.928   .     S
O483   Zn523   1.928   .     S
O484   Zn526   1.927   .     S
O485   Zn525   1.927   .     S
O486   Zn528   1.928   .     S
O487   Zn527   1.928   .     S
O488   Zn522   1.927   .     S
O489   Zn536   1.927   .     S
O490   Zn523   1.927   .     S
O491   Zn534   1.942   .     S
O491   Zn522   1.942   .     S
O491   Zn530   1.942   .     S
O492   Zn524   1.927   .     S
O493   Zn536   1.928   .     S
O494   Zn522   1.928   .     S
O495   Zn527   1.927   .     S
O496   Zn528   1.927   .     S
O497   Zn525   1.928   .     S
O498   Zn526   1.928   .     S
O499   Zn263   1.928   1_655 S
O500   Zn530   1.928   .     S
O501   Zn1069  1.927   .     S
O502   Zn525   1.942   .     S
O502   Zn535   1.942   .     S
O502   Zn531   1.942   .     S
O503   Zn532   1.927   .     S
O504   Zn535   1.928   .     S
O505   Zn266   1.928   1_655 S
O506   Zn529   1.927   .     S
O507   Zn1057  1.927   .     S
O508   Zn262   1.927   1_655 S
O509   Zn531   1.927   .     S
O510   Zn521   1.928   .     S
O511   Zn1065  1.928   .     S
O512   Zn534   1.927   .     S
O513   Zn528   1.947   .     S
O513   C877    1.283   .     A
O514   Zn267   1.927   1_655 S
O515   Zn1068  1.928   .     S
O516   Zn533   1.928   .     S
O517   Zn527   1.947   .     S
O518   Zn522   1.947   .     S
O519   C76     1.277   1_655 A
O519   Zn536   1.947   .     S
O520   Zn524   1.947   .     S
Zn521  O1043   1.927   1_545 S
Zn523  O1016   1.942   .     S
Zn526  O223    1.942   1_655 S
Zn528  O1005   1.942   .     S
Zn529  O1047   1.928   1_545 S
Zn532  O1051   1.928   1_545 S
Zn533  O1037   1.927   1_545 S
Zn536  O234    1.942   1_655 S
C537   C600    1.397   .     A
C537   H673    1.085   .     S
C537   C582    1.393   .     A
C538   H674    1.085   .     S
C538   C605    1.394   .     A
C538   C592    1.393   .     A
C539   C655    1.407   .     A
C539   C648    1.407   .     A
C539   C619    1.449   .     S
C540   C620    1.448   .     S
C540   C647    1.407   .     A
C540   C658    1.407   .     A
C541   C657    1.407   .     A
C541   C646    1.407   .     A
C541   C621    1.448   .     S
C542   C660    1.407   .     A
C542   C622    1.449   .     S
C542   C645    1.407   .     A
C543   C623    1.449   .     S
C543   C644    1.407   .     A
C543   C659    1.407   .     A
C544   C633    1.449   .     S
C544   C663    1.407   .     A
C544   C643    1.407   .     A
C545   C634    1.449   .     S
C545   C642    1.407   .     A
C545   C661    1.407   .     A
C546   C665    1.407   .     A
C546   C626    1.448   .     S
C546   C641    1.407   .     A
C547   C627    1.448   .     S
C547   C639    1.407   .     A
C547   C664    1.407   .     A
C548   C667    1.407   .     A
C548   C638    1.407   .     A
C548   C628    1.449   .     S
C549   H675    1.085   .     S
C549   C593    1.393   .     A
C549   C70     1.397   1_565 S
C550   C637    1.407   .     A
C550   C666    1.407   .     A
C550   C630    1.449   .     S
C551   C636    1.407   .     A
C551   C631    1.448   .     S
C551   C669    1.407   .     A
C552   C668    1.407   .     A
C552   C632    1.448   .     S
C552   C635    1.407   .     A
C553   C582    1.416   .     A
C553   C616    1.470   .     S
C554   C583    1.424   .     A
C554   C615    1.487   .     S
C555   C857    1.416   1_455 A
C555   C584    1.416   .     S
C555   C614    1.470   .     S
C556   C613    1.487   .     S
C556   C858    1.424   1_455 A
C556   C586    1.424   .     S
C557   C612    1.470   .     S
C557   C859    1.416   1_455 A
C557   C595    1.416   .     S
C558   C611    1.487   .     S
C558   C592    1.425   .     A
C558   C865    1.425   1_455 S
C559   C598    1.416   .     A
C559   C610    1.470   .     S
C560   C608    1.394   .     A
C560   H676    1.085   .     S
C560   C594    1.393   .     A
C561   C609    1.487   .     S
C561   C594    1.424   .     S
C562   N721    1.157   .     T
C562   C582    1.446   .     S
C563   N729    1.158   .     T
C563   C583    1.446   .     S
C564   N730    1.157   .     T
C564   C584    1.446   .     S
C565   C586    1.446   .     S
C565   N731    1.158   .     T
C566   C587    1.446   .     S
C566   N732    1.157   .     T
C567   N733    1.158   .     T
C567   C588    1.446   .     S
C568   C589    1.446   .     S
C568   N734    1.157   .     T
C569   N735    1.157   .     T
C569   C590    1.446   .     S
C570   C591    1.446   .     S
C570   N736    1.157   .     T
C571   C595    1.393   .     A
C571   H677    1.085   .     S
C571   C604    1.397   .     A
C572   C592    1.446   .     S
C572   N722    1.158   .     T
C573   N723    1.157   .     T
C573   C593    1.446   .     S
C574   C594    1.446   .     S
C574   N724    1.158   .     T
C575   N725    1.157   .     T
C575   C595    1.446   .     S
C576   C597    1.446   .     S
C576   N726    1.158   .     T
C577   C598    1.446   .     S
C577   N727    1.157   .     T
C578   C599    1.446   .     S
C578   N728    1.158   .     T
C579   H678    1.085   .     S
C579   C597    1.393   .     A
C579   C873    1.394   .     S
C580   H679    1.085   .     S
C580   C606    1.397   .     A
C580   C598    1.393   .     A
C581   C599    1.393   .     A
C581   H680    1.085   .     S
C581   C72     1.394   1_565 S
C583   C585    1.393   .     A
C584   C596    1.393   .     A
C585   C601    1.394   .     A
C585   H681    1.085   .     S
C586   C607    1.393   .     A
C587   C618    1.393   .     A
C587   C17     1.416   1_565 S
C588   C629    1.393   .     A
C588   C18     1.424   1_565 S
C589   C640    1.393   .     A
C589   C823    1.416   .     A
C590   C824    1.424   .     A
C590   C651    1.393   .     A
C591   C825    1.416   .     A
C591   C662    1.393   .     A
C593   C23     1.416   1_565 S
C596   H682    1.085   .     S
C596   C602    1.397   .     S
C597   C826    1.425   .     S
C599   C25     1.424   1_565 A
C600   C601    1.463   1_554 S
C601   C600    1.463   1_556 S
C602   C908    1.397   1_455 A
C602   C603    1.463   1_554 S
C603   C919    1.394   1_455 A
C603   C602    1.463   1_556 S
C603   C607    1.394   .     S
C604   C605    1.463   .     S
C604   C930    1.397   1_455 S
C605   C847    1.394   1_455 S
C606   C608    1.463   .     S
C607   H683    1.085   .     S
C609   O788    1.283   .     S
C610   O785    1.277   .     S
C611   O786    1.283   .     A
C611   O1007   1.283   1_455 S
C612   O1055   1.277   1_455 A
C612   O740    1.277   .     S
C613   O745    1.283   .     A
C613   O741    1.283   .     A
C614   O742    1.277   .     S
C614   O746    1.277   .     S
C615   O743    1.283   .     S
C615   O747    1.283   .     S
C616   O744    1.277   .     S
C616   O749    1.277   .     S
C617   C672    1.449   .     S
C617   O778    1.276   .     A
C617   O750    1.277   .     A
C618   H684    1.085   .     S
C618   C64     1.397   1_565 S
C619   O779    1.277   .     A
C619   O751    1.276   .     A
C620   O776    1.276   .     A
C620   O752    1.277   .     A
C621   O753    1.276   .     A
C621   O777    1.277   .     A
C622   O783    1.276   .     A
C622   O754    1.277   .     A
C623   O784    1.277   .     A
C623   O755    1.276   .     A
C624   O756    1.277   .     A
C624   O780    1.276   .     A
C624   C670    1.448   .     S
C625   C671    1.448   .     S
C625   O782    1.277   .     A
C625   O757    1.276   .     A
C626   O769    1.277   .     A
C626   O758    1.276   .     A
C627   O771    1.276   .     A
C627   O760    1.277   .     A
C628   O767    1.277   .     A
C628   O761    1.276   .     A
C629   H685    1.085   .     S
C629   C65     1.394   1_565 S
C630   O768    1.276   .     A
C630   O762    1.277   .     A
C631   O763    1.276   .     A
C631   O774    1.277   .     A
C632   O764    1.277   .     A
C632   O775    1.276   .     A
C633   O765    1.276   .     A
C633   O772    1.277   .     A
C634   O773    1.276   .     A
C634   O766    1.277   .     A
C635   C652    1.400   .     A
C635   I689    2.146   .     S
C636   C650    1.400   .     A
C636   I700    2.145   .     S
C637   C649    1.401   .     A
C637   I711    2.145   .     S
C638   C648    1.401   .     A
C638   I715    2.145   .     S
C639   C647    1.400   .     A
C639   I716    2.146   .     S
C640   H686    1.085   .     S
C640   C870    1.397   .     A
C641   C646    1.400   .     A
C641   I717    2.145   .     S
C642   I718    2.145   .     S
C642   C645    1.401   .     A
C643   C644    1.401   .     A
C643   I719    2.145   .     S
C644   I720    2.145   .     S
C645   I690    2.145   .     S
C646   I691    2.145   .     S
C647   I692    2.146   .     S
C648   I693    2.145   .     S
C649   C672    1.407   .     A
C649   I694    2.145   .     S
C650   C671    1.407   .     A
C650   I695    2.145   .     S
C651   C871    1.394   .     A
C651   H687    1.085   .     S
C652   I696    2.146   .     S
C652   C670    1.407   .     A
C653   C669    1.400   .     A
C653   I697    2.145   .     S
C653   C671    1.407   .     A
C654   C670    1.407   .     A
C654   I698    2.145   .     S
C654   C668    1.400   .     A
C655   C667    1.401   .     A
C655   I699    2.145   .     S
C656   C666    1.401   .     A
C656   I701    2.145   .     S
C656   C672    1.407   .     A
C657   I702    2.145   .     S
C657   C665    1.400   .     A
C658   C664    1.400   .     A
C658   I703    2.145   .     S
C659   I704    2.145   .     S
C659   C663    1.401   .     A
C660   I705    2.145   .     S
C660   C661    1.401   .     A
C661   I706    2.145   .     S
C662   H688    1.085   .     S
C662   C872    1.397   .     S
C663   I707    2.145   .     S
C664   I708    2.145   .     S
C665   I709    2.145   .     S
C666   I710    2.145   .     S
C667   I712    2.145   .     S
C668   I713    2.145   .     S
C669   I714    2.145   .     S
O737   Zn792   1.942   .     S
O737   Zn789   1.942   .     S
O737   Zn800   1.942   .     S
O738   C74     1.277   1_565 A
O738   Zn791   1.947   .     S
O739   Zn794   1.947   .     S
O739   C879    1.283   .     S
O740   Zn793   1.947   .     S
O741   Zn803   1.947   .     S
O742   Zn802   1.947   .     S
O743   Zn797   1.947   .     S
O744   Zn789   1.947   .     S
O745   Zn799   1.947   .     S
O746   Zn798   1.947   .     S
O747   Zn801   1.947   .     S
O748   Zn795   1.942   .     S
O748   Zn797   1.942   .     S
O748   Zn801   1.942   .     S
O749   Zn800   1.947   .     S
O750   Zn792   1.928   .     S
O751   Zn791   1.928   .     S
O752   Zn794   1.927   .     S
O753   Zn793   1.927   .     S
O754   Zn796   1.928   .     S
O755   Zn795   1.928   .     S
O756   Zn790   1.927   .     S
O757   Zn804   1.927   .     S
O758   Zn791   1.927   .     S
O759   Zn802   1.942   .     S
O759   Zn1062  1.942   1_455 S
O759   Zn790   1.942   .     S
O759   Zn798   1.942   .     S
O760   Zn792   1.927   .     S
O761   Zn804   1.928   .     S
O762   Zn790   1.928   .     S
O763   Zn795   1.927   .     S
O764   Zn796   1.927   .     S
O765   Zn793   1.928   .     S
O766   Zn794   1.928   .     S
O767   Zn1067  1.928   .     S
O768   Zn798   1.928   .     S
O769   Zn265   1.927   1_565 S
O770   Zn793   1.942   .     S
O770   Zn803   1.942   .     S
O770   Zn799   1.942   .     S
O770   Zn1072  1.942   1_455 S
O771   Zn800   1.927   .     S
O772   Zn803   1.928   .     S
O773   Zn1070  1.928   .     S
O774   Zn797   1.927   .     S
O775   Zn253   1.927   1_565 S
O776   Zn1066  1.927   .     S
O777   Zn799   1.927   .     S
O778   Zn789   1.928   .     S
O779   Zn261   1.928   1_565 S
O780   Zn802   1.927   .     S
O781   Zn796   1.947   .     S
O781   C73     1.283   1_565 A
O782   Zn1071  1.927   .     S
O783   Zn264   1.928   1_565 S
O784   Zn801   1.928   .     S
O785   Zn795   1.947   .     S
O786   Zn790   1.947   .     S
O787   C880    1.277   .     A
O787   Zn804   1.947   .     S
O788   Zn792   1.947   .     S
Zn791  O212    1.942   1_565 S
Zn794  O1027   1.942   .     S
Zn796  O201    1.942   1_565 S
Zn798  O1044   1.927   1_455 S
Zn799  O1035   1.928   1_455 S
Zn802  O1041   1.928   1_455 S
Zn803  O1050   1.927   1_455 S
Zn804  O1038   1.942   .     S
C805   C868    1.397   .     A
C805   H941    1.085   .     S
C805   C850    1.393   .     A
C806   H942    1.085   .     S
C806   C873    1.394   .     A
C806   C860    1.393   .     A
C807   C923    1.407   .     A
C807   C916    1.407   .     A
C807   C887    1.449   .     S
C808   C888    1.448   .     S
C808   C915    1.407   .     A
C808   C926    1.407   .     A
C809   C925    1.407   .     A
C809   C914    1.407   .     A
C809   C889    1.448   .     S
C810   C928    1.407   .     A
C810   C890    1.449   .     S
C810   C913    1.407   .     A
C811   C891    1.449   .     S
C811   C912    1.407   .     A
C811   C927    1.407   .     A
C812   C901    1.449   .     S
C812   C931    1.407   .     A
C812   C911    1.407   .     A
C813   C902    1.449   .     S
C813   C910    1.407   .     A
C813   C929    1.407   .     A
C814   C933    1.407   .     A
C814   C894    1.448   .     S
C814   C909    1.407   .     A
C815   C895    1.448   .     S
C815   C907    1.407   .     A
C815   C932    1.407   .     A
C816   C935    1.407   .     A
C816   C906    1.407   .     A
C816   C896    1.449   .     S
C817   H943    1.085   .     S
C817   C861    1.393   .     A
C817   C338    1.397   1_565 S
C818   C905    1.407   .     A
C818   C934    1.407   .     A
C818   C898    1.449   .     S
C819   C904    1.407   .     A
C819   C899    1.448   .     S
C819   C937    1.407   .     A
C820   C936    1.407   .     A
C820   C900    1.448   .     S
C820   C903    1.407   .     A
C821   C850    1.416   .     A
C821   C884    1.470   .     S
C822   C851    1.424   .     A
C822   C883    1.487   .     S
C823   C852    1.416   .     S
C823   C882    1.470   .     S
C824   C881    1.487   .     S
C824   C854    1.424   .     S
C825   C880    1.470   .     S
C825   C863    1.416   .     S
C826   C879    1.487   .     S
C826   C860    1.425   .     A
C827   C866    1.416   .     A
C827   C878    1.470   .     S
C828   C876    1.394   .     A
C828   H944    1.085   .     S
C828   C862    1.393   .     A
C829   C877    1.487   .     S
C829   C862    1.424   .     S
C830   N989    1.157   .     T
C830   C850    1.446   .     S
C831   N997    1.158   .     T
C831   C851    1.446   .     S
C832   N998    1.157   .     T
C832   C852    1.446   .     S
C833   C854    1.446   .     S
C833   N999    1.158   .     T
C834   C855    1.446   .     S
C834   N1000   1.157   .     T
C835   N1001   1.158   .     T
C835   C856    1.446   .     S
C836   C857    1.446   .     S
C836   N1002   1.157   .     T
C837   N1003   1.157   .     T
C837   C858    1.446   .     S
C838   C859    1.446   .     S
C838   N1004   1.157   .     T
C839   C863    1.393   .     A
C839   H945    1.085   .     S
C839   C872    1.397   .     A
C840   C860    1.446   .     S
C840   N990    1.158   .     T
C841   N991    1.157   .     T
C841   C861    1.446   .     S
C842   C862    1.446   .     S
C842   N992    1.158   .     T
C843   N993    1.157   .     T
C843   C863    1.446   .     S
C844   C865    1.446   .     S
C844   N994    1.158   .     T
C845   C866    1.446   .     S
C845   N995    1.157   .     T
C846   C867    1.446   .     S
C846   N996    1.158   .     T
C847   H946    1.085   .     S
C847   C865    1.393   .     A
C847   C605    1.394   1_655 S
C848   H947    1.085   .     S
C848   C874    1.397   .     A
C848   C866    1.393   .     A
C849   C867    1.393   .     A
C849   H948    1.085   .     S
C849   C340    1.394   1_565 S
C851   C853    1.393   .     A
C852   C864    1.393   .     A
C853   C869    1.394   .     A
C853   H949    1.085   .     S
C854   C875    1.393   .     A
C855   C886    1.393   .     A
C855   C285    1.416   1_565 S
C856   C897    1.393   .     A
C856   C286    1.424   1_565 S
C857   C908    1.393   .     A
C857   C555    1.416   1_655 A
C858   C556    1.424   1_655 A
C858   C919    1.393   .     A
C859   C557    1.416   1_655 A
C859   C930    1.393   .     A
C861   C291    1.416   1_565 S
C864   H950    1.085   .     S
C864   C870    1.397   .     S
C865   C558    1.425   1_655 S
C867   C293    1.424   1_565 A
C868   C869    1.463   1_554 S
C869   C868    1.463   1_556 S
C870   C871    1.463   1_554 S
C871   C870    1.463   1_556 S
C871   C875    1.394   .     S
C872   C873    1.463   .     S
C874   C876    1.463   .     S
C875   H951    1.085   .     S
C877   O1056   1.283   .     S
C878   O1053   1.277   .     S
C879   O1054   1.283   .     A
C880   O1008   1.277   .     S
C881   O1013   1.283   .     A
C881   O1009   1.283   .     A
C882   O1010   1.277   .     S
C882   O1014   1.277   .     S
C883   O1011   1.283   .     S
C883   O1015   1.283   .     S
C884   O1012   1.277   .     S
C884   O1017   1.277   .     S
C885   C940    1.449   .     S
C885   O1046   1.276   .     A
C885   O1018   1.277   .     A
C886   H952    1.085   .     S
C886   C332    1.397   1_565 S
C887   O1047   1.277   .     A
C887   O1019   1.276   .     A
C888   O1044   1.276   .     A
C888   O1020   1.277   .     A
C889   O1021   1.276   .     A
C889   O1045   1.277   .     A
C890   O1051   1.276   .     A
C890   O1022   1.277   .     A
C891   O1052   1.277   .     A
C891   O1023   1.276   .     A
C892   O1024   1.277   .     A
C892   O1048   1.276   .     A
C892   C938    1.448   .     S
C893   C939    1.448   .     S
C893   O1050   1.277   .     A
C893   O1025   1.276   .     A
C894   O1037   1.277   .     A
C894   O1026   1.276   .     A
C895   O1039   1.276   .     A
C895   O1028   1.277   .     A
C896   O1035   1.277   .     A
C896   O1029   1.276   .     A
C897   H953    1.085   .     S
C897   C333    1.394   1_565 S
C898   O1036   1.276   .     A
C898   O1030   1.277   .     A
C899   O1031   1.276   .     A
C899   O1042   1.277   .     A
C900   O1032   1.277   .     A
C900   O1043   1.276   .     A
C901   O1033   1.276   .     A
C901   O1040   1.277   .     A
C902   O1041   1.276   .     A
C902   O1034   1.277   .     A
C903   C920    1.400   .     A
C903   I957    2.146   .     S
C904   C918    1.400   .     A
C904   I968    2.145   .     S
C905   C917    1.401   .     A
C905   I979    2.145   .     S
C906   C916    1.401   .     A
C906   I983    2.145   .     S
C907   C915    1.400   .     A
C907   I984    2.146   .     S
C908   H954    1.085   .     S
C908   C602    1.397   1_655 A
C909   C914    1.400   .     A
C909   I985    2.145   .     S
C910   I986    2.145   .     S
C910   C913    1.401   .     A
C911   C912    1.401   .     A
C911   I987    2.145   .     S
C912   I988    2.145   .     S
C913   I958    2.145   .     S
C914   I959    2.145   .     S
C915   I960    2.146   .     S
C916   I961    2.145   .     S
C917   C940    1.407   .     A
C917   I962    2.145   .     S
C918   C939    1.407   .     A
C918   I963    2.145   .     S
C919   C603    1.394   1_655 A
C919   H955    1.085   .     S
C920   I964    2.146   .     S
C920   C938    1.407   .     A
C921   C937    1.400   .     A
C921   I965    2.145   .     S
C921   C939    1.407   .     A
C922   C938    1.407   .     A
C922   I966    2.145   .     S
C922   C936    1.400   .     A
C923   C935    1.401   .     A
C923   I967    2.145   .     S
C924   C934    1.401   .     A
C924   I969    2.145   .     S
C924   C940    1.407   .     A
C925   I970    2.145   .     S
C925   C933    1.400   .     A
C926   C932    1.400   .     A
C926   I971    2.145   .     S
C927   I972    2.145   .     S
C927   C931    1.401   .     A
C928   I973    2.145   .     S
C928   C929    1.401   .     A
C929   I974    2.145   .     S
C930   H956    1.085   .     S
C930   C604    1.397   1_655 S
C931   I975    2.145   .     S
C932   I976    2.145   .     S
C933   I977    2.145   .     S
C934   I978    2.145   .     S
C935   I980    2.145   .     S
C936   I981    2.145   .     S
C937   I982    2.145   .     S
O1005  Zn1060  1.942   .     S
O1005  Zn1057  1.942   .     S
O1005  Zn1068  1.942   .     S
O1006  C342    1.277   1_565 A
O1006  Zn1059  1.947   .     S
O1007  Zn1062  1.947   .     S
O1007  C611    1.283   1_655 S
O1008  Zn1061  1.947   .     S
O1009  Zn1071  1.947   .     S
O1010  Zn1070  1.947   .     S
O1011  Zn1065  1.947   .     S
O1012  Zn1057  1.947   .     S
O1013  Zn1067  1.947   .     S
O1014  Zn1066  1.947   .     S
O1015  Zn1069  1.947   .     S
O1016  Zn1063  1.942   .     S
O1016  Zn1065  1.942   .     S
O1016  Zn1069  1.942   .     S
O1017  Zn1068  1.947   .     S
O1018  Zn1060  1.928   .     S
O1019  Zn1059  1.928   .     S
O1020  Zn1062  1.927   .     S
O1021  Zn1061  1.927   .     S
O1022  Zn1064  1.928   .     S
O1023  Zn1063  1.928   .     S
O1024  Zn1058  1.927   .     S
O1025  Zn1072  1.927   .     S
O1026  Zn1059  1.927   .     S
O1027  Zn1070  1.942   .     S
O1027  Zn1058  1.942   .     S
O1027  Zn1066  1.942   .     S
O1028  Zn1060  1.927   .     S
O1029  Zn1072  1.928   .     S
O1030  Zn1058  1.928   .     S
O1031  Zn1063  1.927   .     S
O1032  Zn1064  1.927   .     S
O1033  Zn1061  1.928   .     S
O1034  Zn1062  1.928   .     S
O1035  Zn799   1.928   1_655 S
O1036  Zn1066  1.928   .     S
O1037  Zn533   1.927   1_565 S
O1038  Zn1061  1.942   .     S
O1038  Zn1071  1.942   .     S
O1038  Zn1067  1.942   .     S
O1039  Zn1068  1.927   .     S
O1040  Zn1071  1.928   .     S
O1041  Zn802   1.928   1_655 S
O1042  Zn1065  1.927   .     S
O1043  Zn521   1.927   1_565 S
O1044  Zn798   1.927   1_655 S
O1045  Zn1067  1.927   .     S
O1046  Zn1057  1.928   .     S
O1047  Zn529   1.928   1_565 S
O1048  Zn1070  1.927   .     S
O1049  Zn1064  1.947   .     S
O1049  C341    1.283   1_565 A
O1050  Zn803   1.927   1_655 S
O1051  Zn532   1.928   1_565 S
O1052  Zn1069  1.928   .     S
O1053  Zn1063  1.947   .     S
O1054  Zn1058  1.947   .     S
O1055  C612    1.277   1_655 A
O1055  Zn1072  1.947   .     S
O1056  Zn1060  1.947   .     S
Zn1059 O480    1.942   1_565 S
Zn1062 O759    1.942   1_655 S
Zn1064 O469    1.942   1_565 S
Zn1072 O770    1.942   1_655 S
