data_str_m1_o10_o18_pcu_sym.220
_audit_creation_date              2020-01-03
_audit_creation_method            'Materials Studio'
_symmetry_space_group_name_H-M    'P1'
_symmetry_Int_Tables_number       1
_symmetry_cell_setting            triclinic
loop_
_symmetry_equiv_pos_as_xyz
  x,y,z
_cell_length_a                    32.5558
_cell_length_b                    32.5239
_cell_length_c                    35.8038
_cell_angle_alpha                 98.2168
_cell_angle_beta                  73.0901
_cell_angle_gamma                 98.5947
loop_
_atom_site_label
_atom_site_type_symbol
_atom_site_fract_x
_atom_site_fract_y
_atom_site_fract_z
_atom_site_U_iso_or_equiv
_atom_site_adp_type
_atom_site_occupancy
C1     C     0.05250   0.15994   0.25871   0.00000  Uiso   1.00
C2     C     0.18711   0.12082   0.46189   0.00000  Uiso   1.00
C3     C     0.20498   0.09894   0.48257   0.00000  Uiso   1.00
C4     C     0.28103   0.17355   0.24120   0.00000  Uiso   1.00
C5     C     0.20096   0.11031   0.02255   0.00000  Uiso   1.00
C6     C     0.17743   0.14420   0.04233   0.00000  Uiso   1.00
C7     C     0.22058   0.08824   0.04255   0.00000  Uiso   1.00
C8     C     0.21717   0.10008   0.08267   0.00000  Uiso   1.00
C9     C     0.17989   0.15976   0.08067   0.00000  Uiso   1.00
C10    C     0.32703   0.17615   0.23758   0.00000  Uiso   1.00
C11    C     0.00711   0.15757   0.26213   0.00000  Uiso   1.00
C12    C     0.10267   0.21986   0.42079   0.00000  Uiso   1.00
C13    C     0.18083   0.32214   0.23811   0.00000  Uiso   1.00
C14    C     0.15152   0.01208   0.26206   0.00000  Uiso   1.00
C15    C     0.15592   0.05612   0.25887   0.00000  Uiso   1.00
C16    C     0.17684   0.27765   0.24135   0.00000  Uiso   1.00
C17    C     0.18781   0.14557   0.14409   0.00000  Uiso   1.00
C18    C     0.14541   0.18769   0.35613   0.00000  Uiso   1.00
C19    C     0.13439   0.19429   0.39925   0.00000  Uiso   1.00
C20    C     0.19676   0.13596   0.10156   0.00000  Uiso   1.00
C21    C     0.09144   0.22422   0.46166   0.00000  Uiso   1.00
C22    C     0.15476   0.17327   0.41904   0.00000  Uiso   1.00
C23    C     0.14287   0.17595   0.46028   0.00000  Uiso   1.00
C24    C     0.11135   0.20263   0.48154   0.00000  Uiso   1.00
C25    C     0.16188   0.15338   0.48093   0.00000  Uiso   1.00
C26    C     0.15375   0.16243   0.02228   0.00000  Uiso   1.00
C27    C     0.12014   0.18708   0.04248   0.00000  Uiso   1.00
C28    C     0.09948   0.20690   0.02241   0.00000  Uiso   1.00
H29    H     0.07410   0.22580   0.03903   0.00000  Uiso   1.00
H30    H     0.10757   0.18968   0.07403   0.00000  Uiso   1.00
H31    H     0.19165   0.10981   0.43126   0.00000  Uiso   1.00
H32    H     0.25577   0.04303   0.03904   0.00000  Uiso   1.00
H33    H     0.17979   0.20998   0.11845   0.00000  Uiso   1.00
H34    H     0.23558   0.09064   0.12809   0.00000  Uiso   1.00
H35    H     0.01674   0.19322   0.21486   0.00000  Uiso   1.00
H36    H     0.31805   0.14053   0.28519   0.00000  Uiso   1.00
H37    H     0.20791   0.00275   0.21607   0.00000  Uiso   1.00
H38    H     0.12408   0.33224   0.28419   0.00000  Uiso   1.00
H39    H     0.22284   0.07334   0.46660   0.00000  Uiso   1.00
H40    H     0.06696   0.24430   0.47776   0.00000  Uiso   1.00
H41    H     0.08642   0.23637   0.40608   0.00000  Uiso   1.00
H42    H     0.18053   0.15563   0.40160   0.00000  Uiso   1.00
O43    O     0.16667   0.16667   0.25000   0.00000  Uiso   1.00
O44    O     0.15693   0.12393   0.16625   0.00000  Uiso   1.00
O45    O     0.12687   0.20646   0.33749   0.00000  Uiso   1.00
O46    O     0.21088   0.17493   0.15877   0.00000  Uiso   1.00
O47    O     0.17198   0.16135   0.33749   0.00000  Uiso   1.00
O48    O     0.24219   0.05472   0.02213   0.00000  Uiso   1.00
O49    O     0.16783   0.19910   0.09612   0.00000  Uiso   1.00
O50    O     0.23433   0.07611   0.10216   0.00000  Uiso   1.00
O51    O     0.17849   0.08101   0.27820   0.00000  Uiso   1.00
O52    O     0.14581   0.26136   0.26767   0.00000  Uiso   1.00
O53    O     0.07452   0.13251   0.23607   0.00000  Uiso   1.00
O54    O     0.26785   0.19179   0.21805   0.00000  Uiso   1.00
O55    O     0.06990   0.18960   0.27820   0.00000  Uiso   1.00
O56    O     0.25440   0.15277   0.26767   0.00000  Uiso   1.00
O57    O     0.13800   0.06903   0.23607   0.00000  Uiso   1.00
O58    O     0.20437   0.25527   0.21805   0.00000  Uiso   1.00
Zn59   Zn    0.19244   0.14090   0.28277   0.00000  Uiso   1.00
Zn60   Zn    0.13459   0.12378   0.22257   0.00000  Uiso   1.00
Zn61   Zn    0.21166   0.19664   0.21188   0.00000  Uiso   1.00
Zn62   Zn    0.12798   0.20535   0.28277   0.00000  Uiso   1.00
C63    C     0.38583   0.15994   0.25871   0.00000  Uiso   1.00
C64    C     0.52044   0.12082   0.46189   0.00000  Uiso   1.00
C65    C     0.53832   0.09894   0.48257   0.00000  Uiso   1.00
C66    C     0.61437   0.17355   0.24120   0.00000  Uiso   1.00
C67    C     0.53430   0.11031   0.02255   0.00000  Uiso   1.00
C68    C     0.51076   0.14420   0.04233   0.00000  Uiso   1.00
C69    C     0.55391   0.08824   0.04255   0.00000  Uiso   1.00
C70    C     0.55050   0.10008   0.08267   0.00000  Uiso   1.00
C71    C     0.51323   0.15976   0.08067   0.00000  Uiso   1.00
C72    C     0.66036   0.17615   0.23758   0.00000  Uiso   1.00
C73    C     0.34044   0.15757   0.26213   0.00000  Uiso   1.00
C74    C     0.43600   0.21986   0.42079   0.00000  Uiso   1.00
C75    C     0.51417   0.32214   0.23811   0.00000  Uiso   1.00
C76    C     0.48486   0.01208   0.26206   0.00000  Uiso   1.00
C77    C     0.48925   0.05612   0.25887   0.00000  Uiso   1.00
C78    C     0.51017   0.27765   0.24135   0.00000  Uiso   1.00
C79    C     0.52114   0.14557   0.14409   0.00000  Uiso   1.00
C80    C     0.47874   0.18769   0.35613   0.00000  Uiso   1.00
C81    C     0.46772   0.19429   0.39925   0.00000  Uiso   1.00
C82    C     0.53009   0.13596   0.10156   0.00000  Uiso   1.00
C83    C     0.42477   0.22422   0.46166   0.00000  Uiso   1.00
C84    C     0.48809   0.17327   0.41904   0.00000  Uiso   1.00
C85    C     0.47621   0.17595   0.46028   0.00000  Uiso   1.00
C86    C     0.44468   0.20263   0.48154   0.00000  Uiso   1.00
C87    C     0.49521   0.15338   0.48093   0.00000  Uiso   1.00
C88    C     0.48708   0.16243   0.02228   0.00000  Uiso   1.00
C89    C     0.45347   0.18708   0.04248   0.00000  Uiso   1.00
C90    C     0.43281   0.20690   0.02241   0.00000  Uiso   1.00
H91    H     0.40744   0.22580   0.03903   0.00000  Uiso   1.00
H92    H     0.44090   0.18968   0.07403   0.00000  Uiso   1.00
H93    H     0.52498   0.10981   0.43126   0.00000  Uiso   1.00
H94    H     0.58911   0.04303   0.03904   0.00000  Uiso   1.00
H95    H     0.51313   0.20998   0.11845   0.00000  Uiso   1.00
H96    H     0.56892   0.09064   0.12809   0.00000  Uiso   1.00
H97    H     0.35007   0.19322   0.21486   0.00000  Uiso   1.00
H98    H     0.65139   0.14053   0.28519   0.00000  Uiso   1.00
H99    H     0.54124   0.00275   0.21607   0.00000  Uiso   1.00
H100   H     0.45741   0.33224   0.28419   0.00000  Uiso   1.00
H101   H     0.55618   0.07334   0.46660   0.00000  Uiso   1.00
H102   H     0.40030   0.24430   0.47776   0.00000  Uiso   1.00
H103   H     0.41975   0.23637   0.40608   0.00000  Uiso   1.00
H104   H     0.51386   0.15563   0.40160   0.00000  Uiso   1.00
O105   O     0.50000   0.16667   0.25000   0.00000  Uiso   1.00
O106   O     0.49027   0.12393   0.16625   0.00000  Uiso   1.00
O107   O     0.46020   0.20646   0.33749   0.00000  Uiso   1.00
O108   O     0.54421   0.17493   0.15877   0.00000  Uiso   1.00
O109   O     0.50532   0.16135   0.33749   0.00000  Uiso   1.00
O110   O     0.57552   0.05472   0.02213   0.00000  Uiso   1.00
O111   O     0.50116   0.19910   0.09612   0.00000  Uiso   1.00
O112   O     0.56766   0.07611   0.10216   0.00000  Uiso   1.00
O113   O     0.51182   0.08101   0.27820   0.00000  Uiso   1.00
O114   O     0.47914   0.26136   0.26767   0.00000  Uiso   1.00
O115   O     0.40785   0.13251   0.23607   0.00000  Uiso   1.00
O116   O     0.60119   0.19179   0.21805   0.00000  Uiso   1.00
O117   O     0.40323   0.18960   0.27820   0.00000  Uiso   1.00
O118   O     0.58773   0.15277   0.26767   0.00000  Uiso   1.00
O119   O     0.47133   0.06903   0.23607   0.00000  Uiso   1.00
O120   O     0.53771   0.25527   0.21805   0.00000  Uiso   1.00
Zn121  Zn    0.52577   0.14090   0.28277   0.00000  Uiso   1.00
Zn122  Zn    0.46792   0.12378   0.22257   0.00000  Uiso   1.00
Zn123  Zn    0.54500   0.19664   0.21188   0.00000  Uiso   1.00
Zn124  Zn    0.46131   0.20535   0.28277   0.00000  Uiso   1.00
C125   C     0.71916   0.15994   0.25871   0.00000  Uiso   1.00
C126   C     0.85377   0.12082   0.46189   0.00000  Uiso   1.00
C127   C     0.87165   0.09894   0.48257   0.00000  Uiso   1.00
C128   C     0.94770   0.17355   0.24120   0.00000  Uiso   1.00
C129   C     0.86763   0.11031   0.02255   0.00000  Uiso   1.00
C130   C     0.84409   0.14420   0.04233   0.00000  Uiso   1.00
C131   C     0.88725   0.08824   0.04255   0.00000  Uiso   1.00
C132   C     0.88384   0.10008   0.08267   0.00000  Uiso   1.00
C133   C     0.84656   0.15976   0.08067   0.00000  Uiso   1.00
C134   C     0.99369   0.17615   0.23758   0.00000  Uiso   1.00
C135   C     0.67378   0.15757   0.26213   0.00000  Uiso   1.00
C136   C     0.76933   0.21986   0.42079   0.00000  Uiso   1.00
C137   C     0.84750   0.32214   0.23811   0.00000  Uiso   1.00
C138   C     0.81819   0.01208   0.26206   0.00000  Uiso   1.00
C139   C     0.82259   0.05612   0.25887   0.00000  Uiso   1.00
C140   C     0.84350   0.27765   0.24135   0.00000  Uiso   1.00
C141   C     0.85447   0.14557   0.14409   0.00000  Uiso   1.00
C142   C     0.81208   0.18769   0.35613   0.00000  Uiso   1.00
C143   C     0.80105   0.19429   0.39925   0.00000  Uiso   1.00
C144   C     0.86343   0.13596   0.10156   0.00000  Uiso   1.00
C145   C     0.75810   0.22422   0.46166   0.00000  Uiso   1.00
C146   C     0.82143   0.17327   0.41904   0.00000  Uiso   1.00
C147   C     0.80954   0.17595   0.46028   0.00000  Uiso   1.00
C148   C     0.77802   0.20263   0.48154   0.00000  Uiso   1.00
C149   C     0.82854   0.15338   0.48093   0.00000  Uiso   1.00
C150   C     0.82042   0.16243   0.02228   0.00000  Uiso   1.00
C151   C     0.78681   0.18708   0.04248   0.00000  Uiso   1.00
C152   C     0.76614   0.20690   0.02241   0.00000  Uiso   1.00
H153   H     0.74077   0.22580   0.03903   0.00000  Uiso   1.00
H154   H     0.77424   0.18968   0.07403   0.00000  Uiso   1.00
H155   H     0.85831   0.10981   0.43126   0.00000  Uiso   1.00
H156   H     0.92244   0.04303   0.03904   0.00000  Uiso   1.00
H157   H     0.84646   0.20998   0.11845   0.00000  Uiso   1.00
H158   H     0.90225   0.09064   0.12809   0.00000  Uiso   1.00
H159   H     0.68340   0.19322   0.21486   0.00000  Uiso   1.00
H160   H     0.98472   0.14053   0.28519   0.00000  Uiso   1.00
H161   H     0.87457   0.00275   0.21607   0.00000  Uiso   1.00
H162   H     0.79074   0.33224   0.28419   0.00000  Uiso   1.00
H163   H     0.88951   0.07334   0.46660   0.00000  Uiso   1.00
H164   H     0.73363   0.24430   0.47776   0.00000  Uiso   1.00
H165   H     0.75308   0.23637   0.40608   0.00000  Uiso   1.00
H166   H     0.84720   0.15563   0.40160   0.00000  Uiso   1.00
O167   O     0.83333   0.16667   0.25000   0.00000  Uiso   1.00
O168   O     0.82360   0.12393   0.16625   0.00000  Uiso   1.00
O169   O     0.79354   0.20646   0.33749   0.00000  Uiso   1.00
O170   O     0.87755   0.17493   0.15877   0.00000  Uiso   1.00
O171   O     0.83865   0.16135   0.33749   0.00000  Uiso   1.00
O172   O     0.90885   0.05472   0.02213   0.00000  Uiso   1.00
O173   O     0.83450   0.19910   0.09612   0.00000  Uiso   1.00
O174   O     0.90100   0.07611   0.10216   0.00000  Uiso   1.00
O175   O     0.84515   0.08101   0.27820   0.00000  Uiso   1.00
O176   O     0.81247   0.26136   0.26767   0.00000  Uiso   1.00
O177   O     0.74119   0.13251   0.23607   0.00000  Uiso   1.00
O178   O     0.93452   0.19179   0.21805   0.00000  Uiso   1.00
O179   O     0.73656   0.18960   0.27820   0.00000  Uiso   1.00
O180   O     0.92106   0.15277   0.26767   0.00000  Uiso   1.00
O181   O     0.80467   0.06903   0.23607   0.00000  Uiso   1.00
O182   O     0.87104   0.25527   0.21805   0.00000  Uiso   1.00
Zn183  Zn    0.85910   0.14090   0.28277   0.00000  Uiso   1.00
Zn184  Zn    0.80125   0.12378   0.22257   0.00000  Uiso   1.00
Zn185  Zn    0.87833   0.19664   0.21188   0.00000  Uiso   1.00
Zn186  Zn    0.79465   0.20535   0.28277   0.00000  Uiso   1.00
C187   C     0.05250   0.49327   0.25871   0.00000  Uiso   1.00
C188   C     0.18711   0.45416   0.46189   0.00000  Uiso   1.00
C189   C     0.20498   0.43227   0.48257   0.00000  Uiso   1.00
C190   C     0.28103   0.50689   0.24120   0.00000  Uiso   1.00
C191   C     0.20096   0.44365   0.02255   0.00000  Uiso   1.00
C192   C     0.17743   0.47753   0.04233   0.00000  Uiso   1.00
C193   C     0.22058   0.42157   0.04255   0.00000  Uiso   1.00
C194   C     0.21717   0.43342   0.08267   0.00000  Uiso   1.00
C195   C     0.17989   0.49309   0.08067   0.00000  Uiso   1.00
C196   C     0.32703   0.50948   0.23758   0.00000  Uiso   1.00
C197   C     0.00711   0.49091   0.26213   0.00000  Uiso   1.00
C198   C     0.10267   0.55320   0.42079   0.00000  Uiso   1.00
C199   C     0.18083   0.65547   0.23811   0.00000  Uiso   1.00
C200   C     0.15152   0.34541   0.26206   0.00000  Uiso   1.00
C201   C     0.15592   0.38945   0.25887   0.00000  Uiso   1.00
C202   C     0.17684   0.61099   0.24135   0.00000  Uiso   1.00
C203   C     0.18781   0.47890   0.14409   0.00000  Uiso   1.00
C204   C     0.14541   0.52102   0.35613   0.00000  Uiso   1.00
C205   C     0.13439   0.52763   0.39925   0.00000  Uiso   1.00
C206   C     0.19676   0.46929   0.10156   0.00000  Uiso   1.00
C207   C     0.09144   0.55755   0.46166   0.00000  Uiso   1.00
C208   C     0.15476   0.50660   0.41904   0.00000  Uiso   1.00
C209   C     0.14287   0.50929   0.46028   0.00000  Uiso   1.00
C210   C     0.11135   0.53596   0.48154   0.00000  Uiso   1.00
C211   C     0.16188   0.48672   0.48093   0.00000  Uiso   1.00
C212   C     0.15375   0.49576   0.02228   0.00000  Uiso   1.00
C213   C     0.12014   0.52041   0.04248   0.00000  Uiso   1.00
C214   C     0.09948   0.54024   0.02241   0.00000  Uiso   1.00
H215   H     0.07410   0.55913   0.03903   0.00000  Uiso   1.00
H216   H     0.10757   0.52301   0.07403   0.00000  Uiso   1.00
H217   H     0.19165   0.44315   0.43126   0.00000  Uiso   1.00
H218   H     0.25577   0.37637   0.03904   0.00000  Uiso   1.00
H219   H     0.17979   0.54332   0.11845   0.00000  Uiso   1.00
H220   H     0.23558   0.42397   0.12809   0.00000  Uiso   1.00
H221   H     0.01674   0.52655   0.21486   0.00000  Uiso   1.00
H222   H     0.31805   0.47387   0.28519   0.00000  Uiso   1.00
H223   H     0.20791   0.33608   0.21607   0.00000  Uiso   1.00
H224   H     0.12408   0.66558   0.28419   0.00000  Uiso   1.00
H225   H     0.22284   0.40667   0.46660   0.00000  Uiso   1.00
H226   H     0.06696   0.57764   0.47776   0.00000  Uiso   1.00
H227   H     0.08642   0.56970   0.40608   0.00000  Uiso   1.00
H228   H     0.18053   0.48897   0.40160   0.00000  Uiso   1.00
O229   O     0.16667   0.50000   0.25000   0.00000  Uiso   1.00
O230   O     0.15693   0.45726   0.16625   0.00000  Uiso   1.00
O231   O     0.12687   0.53979   0.33749   0.00000  Uiso   1.00
O232   O     0.21088   0.50826   0.15877   0.00000  Uiso   1.00
O233   O     0.17198   0.49468   0.33749   0.00000  Uiso   1.00
O234   O     0.24219   0.38805   0.02213   0.00000  Uiso   1.00
O235   O     0.16783   0.53244   0.09612   0.00000  Uiso   1.00
O236   O     0.23433   0.40944   0.10216   0.00000  Uiso   1.00
O237   O     0.17849   0.41434   0.27820   0.00000  Uiso   1.00
O238   O     0.14581   0.59469   0.26767   0.00000  Uiso   1.00
O239   O     0.07452   0.46584   0.23607   0.00000  Uiso   1.00
O240   O     0.26785   0.52512   0.21805   0.00000  Uiso   1.00
O241   O     0.06990   0.52293   0.27820   0.00000  Uiso   1.00
O242   O     0.25440   0.48610   0.26767   0.00000  Uiso   1.00
O243   O     0.13800   0.40236   0.23607   0.00000  Uiso   1.00
O244   O     0.20437   0.58860   0.21805   0.00000  Uiso   1.00
Zn245  Zn    0.19244   0.47423   0.28277   0.00000  Uiso   1.00
Zn246  Zn    0.13459   0.45711   0.22257   0.00000  Uiso   1.00
Zn247  Zn    0.21166   0.52997   0.21188   0.00000  Uiso   1.00
Zn248  Zn    0.12798   0.53868   0.28277   0.00000  Uiso   1.00
C249   C     0.38583   0.49327   0.25871   0.00000  Uiso   1.00
C250   C     0.52044   0.45416   0.46189   0.00000  Uiso   1.00
C251   C     0.53832   0.43227   0.48257   0.00000  Uiso   1.00
C252   C     0.61437   0.50689   0.24120   0.00000  Uiso   1.00
C253   C     0.53430   0.44365   0.02255   0.00000  Uiso   1.00
C254   C     0.51076   0.47753   0.04233   0.00000  Uiso   1.00
C255   C     0.55391   0.42157   0.04255   0.00000  Uiso   1.00
C256   C     0.55050   0.43342   0.08267   0.00000  Uiso   1.00
C257   C     0.51323   0.49309   0.08067   0.00000  Uiso   1.00
C258   C     0.66036   0.50948   0.23758   0.00000  Uiso   1.00
C259   C     0.34044   0.49091   0.26213   0.00000  Uiso   1.00
C260   C     0.43600   0.55320   0.42079   0.00000  Uiso   1.00
C261   C     0.51417   0.65547   0.23811   0.00000  Uiso   1.00
C262   C     0.48486   0.34541   0.26206   0.00000  Uiso   1.00
C263   C     0.48925   0.38945   0.25887   0.00000  Uiso   1.00
C264   C     0.51017   0.61099   0.24135   0.00000  Uiso   1.00
C265   C     0.52114   0.47890   0.14409   0.00000  Uiso   1.00
C266   C     0.47874   0.52102   0.35613   0.00000  Uiso   1.00
C267   C     0.46772   0.52763   0.39925   0.00000  Uiso   1.00
C268   C     0.53009   0.46929   0.10156   0.00000  Uiso   1.00
C269   C     0.42477   0.55755   0.46166   0.00000  Uiso   1.00
C270   C     0.48809   0.50660   0.41904   0.00000  Uiso   1.00
C271   C     0.47621   0.50929   0.46028   0.00000  Uiso   1.00
C272   C     0.44468   0.53596   0.48154   0.00000  Uiso   1.00
C273   C     0.49521   0.48672   0.48093   0.00000  Uiso   1.00
C274   C     0.48708   0.49576   0.02228   0.00000  Uiso   1.00
C275   C     0.45347   0.52041   0.04248   0.00000  Uiso   1.00
C276   C     0.43281   0.54024   0.02241   0.00000  Uiso   1.00
H277   H     0.40744   0.55913   0.03903   0.00000  Uiso   1.00
H278   H     0.44090   0.52301   0.07403   0.00000  Uiso   1.00
H279   H     0.52498   0.44315   0.43126   0.00000  Uiso   1.00
H280   H     0.58911   0.37637   0.03904   0.00000  Uiso   1.00
H281   H     0.51313   0.54332   0.11845   0.00000  Uiso   1.00
H282   H     0.56892   0.42397   0.12809   0.00000  Uiso   1.00
H283   H     0.35007   0.52655   0.21486   0.00000  Uiso   1.00
H284   H     0.65139   0.47387   0.28519   0.00000  Uiso   1.00
H285   H     0.54124   0.33608   0.21607   0.00000  Uiso   1.00
H286   H     0.45741   0.66558   0.28419   0.00000  Uiso   1.00
H287   H     0.55618   0.40667   0.46660   0.00000  Uiso   1.00
H288   H     0.40030   0.57764   0.47776   0.00000  Uiso   1.00
H289   H     0.41975   0.56970   0.40608   0.00000  Uiso   1.00
H290   H     0.51386   0.48897   0.40160   0.00000  Uiso   1.00
O291   O     0.50000   0.50000   0.25000   0.00000  Uiso   1.00
O292   O     0.49027   0.45726   0.16625   0.00000  Uiso   1.00
O293   O     0.46020   0.53979   0.33749   0.00000  Uiso   1.00
O294   O     0.54421   0.50826   0.15877   0.00000  Uiso   1.00
O295   O     0.50532   0.49468   0.33749   0.00000  Uiso   1.00
O296   O     0.57552   0.38805   0.02213   0.00000  Uiso   1.00
O297   O     0.50116   0.53244   0.09612   0.00000  Uiso   1.00
O298   O     0.56766   0.40944   0.10216   0.00000  Uiso   1.00
O299   O     0.51182   0.41434   0.27820   0.00000  Uiso   1.00
O300   O     0.47914   0.59469   0.26767   0.00000  Uiso   1.00
O301   O     0.40785   0.46584   0.23607   0.00000  Uiso   1.00
O302   O     0.60119   0.52512   0.21805   0.00000  Uiso   1.00
O303   O     0.40323   0.52293   0.27820   0.00000  Uiso   1.00
O304   O     0.58773   0.48610   0.26767   0.00000  Uiso   1.00
O305   O     0.47133   0.40236   0.23607   0.00000  Uiso   1.00
O306   O     0.53771   0.58860   0.21805   0.00000  Uiso   1.00
Zn307  Zn    0.52577   0.47423   0.28277   0.00000  Uiso   1.00
Zn308  Zn    0.46792   0.45711   0.22257   0.00000  Uiso   1.00
Zn309  Zn    0.54500   0.52997   0.21188   0.00000  Uiso   1.00
Zn310  Zn    0.46131   0.53868   0.28277   0.00000  Uiso   1.00
C311   C     0.71916   0.49327   0.25871   0.00000  Uiso   1.00
C312   C     0.85377   0.45416   0.46189   0.00000  Uiso   1.00
C313   C     0.87165   0.43227   0.48257   0.00000  Uiso   1.00
C314   C     0.94770   0.50689   0.24120   0.00000  Uiso   1.00
C315   C     0.86763   0.44365   0.02255   0.00000  Uiso   1.00
C316   C     0.84409   0.47753   0.04233   0.00000  Uiso   1.00
C317   C     0.88725   0.42157   0.04255   0.00000  Uiso   1.00
C318   C     0.88384   0.43342   0.08267   0.00000  Uiso   1.00
C319   C     0.84656   0.49309   0.08067   0.00000  Uiso   1.00
C320   C     0.99369   0.50948   0.23758   0.00000  Uiso   1.00
C321   C     0.67378   0.49091   0.26213   0.00000  Uiso   1.00
C322   C     0.76933   0.55320   0.42079   0.00000  Uiso   1.00
C323   C     0.84750   0.65547   0.23811   0.00000  Uiso   1.00
C324   C     0.81819   0.34541   0.26206   0.00000  Uiso   1.00
C325   C     0.82259   0.38945   0.25887   0.00000  Uiso   1.00
C326   C     0.84350   0.61099   0.24135   0.00000  Uiso   1.00
C327   C     0.85447   0.47890   0.14409   0.00000  Uiso   1.00
C328   C     0.81208   0.52102   0.35613   0.00000  Uiso   1.00
C329   C     0.80105   0.52763   0.39925   0.00000  Uiso   1.00
C330   C     0.86343   0.46929   0.10156   0.00000  Uiso   1.00
C331   C     0.75810   0.55755   0.46166   0.00000  Uiso   1.00
C332   C     0.82143   0.50660   0.41904   0.00000  Uiso   1.00
C333   C     0.80954   0.50929   0.46028   0.00000  Uiso   1.00
C334   C     0.77802   0.53596   0.48154   0.00000  Uiso   1.00
C335   C     0.82854   0.48672   0.48093   0.00000  Uiso   1.00
C336   C     0.82042   0.49576   0.02228   0.00000  Uiso   1.00
C337   C     0.78681   0.52041   0.04248   0.00000  Uiso   1.00
C338   C     0.76614   0.54024   0.02241   0.00000  Uiso   1.00
H339   H     0.74077   0.55913   0.03903   0.00000  Uiso   1.00
H340   H     0.77424   0.52301   0.07403   0.00000  Uiso   1.00
H341   H     0.85831   0.44315   0.43126   0.00000  Uiso   1.00
H342   H     0.92244   0.37637   0.03904   0.00000  Uiso   1.00
H343   H     0.84646   0.54332   0.11845   0.00000  Uiso   1.00
H344   H     0.90225   0.42397   0.12809   0.00000  Uiso   1.00
H345   H     0.68340   0.52655   0.21486   0.00000  Uiso   1.00
H346   H     0.98472   0.47387   0.28519   0.00000  Uiso   1.00
H347   H     0.87457   0.33608   0.21607   0.00000  Uiso   1.00
H348   H     0.79074   0.66558   0.28419   0.00000  Uiso   1.00
H349   H     0.88951   0.40667   0.46660   0.00000  Uiso   1.00
H350   H     0.73363   0.57764   0.47776   0.00000  Uiso   1.00
H351   H     0.75308   0.56970   0.40608   0.00000  Uiso   1.00
H352   H     0.84720   0.48897   0.40160   0.00000  Uiso   1.00
O353   O     0.83333   0.50000   0.25000   0.00000  Uiso   1.00
O354   O     0.82360   0.45726   0.16625   0.00000  Uiso   1.00
O355   O     0.79354   0.53979   0.33749   0.00000  Uiso   1.00
O356   O     0.87755   0.50826   0.15877   0.00000  Uiso   1.00
O357   O     0.83865   0.49468   0.33749   0.00000  Uiso   1.00
O358   O     0.90885   0.38805   0.02213   0.00000  Uiso   1.00
O359   O     0.83450   0.53244   0.09612   0.00000  Uiso   1.00
O360   O     0.90100   0.40944   0.10216   0.00000  Uiso   1.00
O361   O     0.84515   0.41434   0.27820   0.00000  Uiso   1.00
O362   O     0.81247   0.59469   0.26767   0.00000  Uiso   1.00
O363   O     0.74119   0.46584   0.23607   0.00000  Uiso   1.00
O364   O     0.93452   0.52512   0.21805   0.00000  Uiso   1.00
O365   O     0.73656   0.52293   0.27820   0.00000  Uiso   1.00
O366   O     0.92106   0.48610   0.26767   0.00000  Uiso   1.00
O367   O     0.80467   0.40236   0.23607   0.00000  Uiso   1.00
O368   O     0.87104   0.58860   0.21805   0.00000  Uiso   1.00
Zn369  Zn    0.85910   0.47423   0.28277   0.00000  Uiso   1.00
Zn370  Zn    0.80125   0.45711   0.22257   0.00000  Uiso   1.00
Zn371  Zn    0.87833   0.52997   0.21188   0.00000  Uiso   1.00
Zn372  Zn    0.79465   0.53868   0.28277   0.00000  Uiso   1.00
C373   C     0.05250   0.82661   0.25871   0.00000  Uiso   1.00
C374   C     0.18711   0.78749   0.46189   0.00000  Uiso   1.00
C375   C     0.20498   0.76561   0.48257   0.00000  Uiso   1.00
C376   C     0.28103   0.84022   0.24120   0.00000  Uiso   1.00
C377   C     0.20096   0.77698   0.02255   0.00000  Uiso   1.00
C378   C     0.17743   0.81086   0.04233   0.00000  Uiso   1.00
C379   C     0.22058   0.75491   0.04255   0.00000  Uiso   1.00
C380   C     0.21717   0.76675   0.08267   0.00000  Uiso   1.00
C381   C     0.17989   0.82643   0.08067   0.00000  Uiso   1.00
C382   C     0.32703   0.84281   0.23758   0.00000  Uiso   1.00
C383   C     0.00711   0.82424   0.26213   0.00000  Uiso   1.00
C384   C     0.10267   0.88653   0.42079   0.00000  Uiso   1.00
C385   C     0.18083   0.98881   0.23811   0.00000  Uiso   1.00
C386   C     0.15152   0.67874   0.26206   0.00000  Uiso   1.00
C387   C     0.15592   0.72278   0.25887   0.00000  Uiso   1.00
C388   C     0.17684   0.94432   0.24135   0.00000  Uiso   1.00
C389   C     0.18781   0.81223   0.14409   0.00000  Uiso   1.00
C390   C     0.14541   0.85436   0.35613   0.00000  Uiso   1.00
C391   C     0.13439   0.86096   0.39925   0.00000  Uiso   1.00
C392   C     0.19676   0.80262   0.10156   0.00000  Uiso   1.00
C393   C     0.09144   0.89089   0.46166   0.00000  Uiso   1.00
C394   C     0.15476   0.83994   0.41904   0.00000  Uiso   1.00
C395   C     0.14287   0.84262   0.46028   0.00000  Uiso   1.00
C396   C     0.11135   0.86930   0.48154   0.00000  Uiso   1.00
C397   C     0.16188   0.82005   0.48093   0.00000  Uiso   1.00
C398   C     0.15375   0.82909   0.02228   0.00000  Uiso   1.00
C399   C     0.12014   0.85374   0.04248   0.00000  Uiso   1.00
C400   C     0.09948   0.87357   0.02241   0.00000  Uiso   1.00
H401   H     0.07410   0.89246   0.03903   0.00000  Uiso   1.00
H402   H     0.10757   0.85635   0.07403   0.00000  Uiso   1.00
H403   H     0.19165   0.77648   0.43126   0.00000  Uiso   1.00
H404   H     0.25577   0.70970   0.03904   0.00000  Uiso   1.00
H405   H     0.17979   0.87665   0.11845   0.00000  Uiso   1.00
H406   H     0.23558   0.75730   0.12809   0.00000  Uiso   1.00
H407   H     0.01674   0.85988   0.21486   0.00000  Uiso   1.00
H408   H     0.31805   0.80720   0.28519   0.00000  Uiso   1.00
H409   H     0.20791   0.66941   0.21607   0.00000  Uiso   1.00
H410   H     0.12408   0.99891   0.28419   0.00000  Uiso   1.00
H411   H     0.22284   0.74000   0.46660   0.00000  Uiso   1.00
H412   H     0.06696   0.91097   0.47776   0.00000  Uiso   1.00
H413   H     0.08642   0.90304   0.40608   0.00000  Uiso   1.00
H414   H     0.18053   0.82230   0.40160   0.00000  Uiso   1.00
O415   O     0.16667   0.83333   0.25000   0.00000  Uiso   1.00
O416   O     0.15693   0.79060   0.16625   0.00000  Uiso   1.00
O417   O     0.12687   0.87313   0.33749   0.00000  Uiso   1.00
O418   O     0.21088   0.84159   0.15877   0.00000  Uiso   1.00
O419   O     0.17198   0.82802   0.33749   0.00000  Uiso   1.00
O420   O     0.24219   0.72138   0.02213   0.00000  Uiso   1.00
O421   O     0.16783   0.86577   0.09612   0.00000  Uiso   1.00
O422   O     0.23433   0.74277   0.10216   0.00000  Uiso   1.00
O423   O     0.17849   0.74768   0.27820   0.00000  Uiso   1.00
O424   O     0.14581   0.92803   0.26767   0.00000  Uiso   1.00
O425   O     0.07452   0.79917   0.23607   0.00000  Uiso   1.00
O426   O     0.26785   0.85845   0.21805   0.00000  Uiso   1.00
O427   O     0.06990   0.85627   0.27820   0.00000  Uiso   1.00
O428   O     0.25440   0.81944   0.26767   0.00000  Uiso   1.00
O429   O     0.13800   0.73570   0.23607   0.00000  Uiso   1.00
O430   O     0.20437   0.92193   0.21805   0.00000  Uiso   1.00
Zn431  Zn    0.19244   0.80756   0.28277   0.00000  Uiso   1.00
Zn432  Zn    0.13459   0.79044   0.22257   0.00000  Uiso   1.00
Zn433  Zn    0.21166   0.86331   0.21188   0.00000  Uiso   1.00
Zn434  Zn    0.12798   0.87202   0.28277   0.00000  Uiso   1.00
C435   C     0.38583   0.82661   0.25871   0.00000  Uiso   1.00
C436   C     0.52044   0.78749   0.46189   0.00000  Uiso   1.00
C437   C     0.53832   0.76561   0.48257   0.00000  Uiso   1.00
C438   C     0.61437   0.84022   0.24120   0.00000  Uiso   1.00
C439   C     0.53430   0.77698   0.02255   0.00000  Uiso   1.00
C440   C     0.51076   0.81086   0.04233   0.00000  Uiso   1.00
C441   C     0.55391   0.75491   0.04255   0.00000  Uiso   1.00
C442   C     0.55050   0.76675   0.08267   0.00000  Uiso   1.00
C443   C     0.51323   0.82643   0.08067   0.00000  Uiso   1.00
C444   C     0.66036   0.84281   0.23758   0.00000  Uiso   1.00
C445   C     0.34044   0.82424   0.26213   0.00000  Uiso   1.00
C446   C     0.43600   0.88653   0.42079   0.00000  Uiso   1.00
C447   C     0.51417   0.98881   0.23811   0.00000  Uiso   1.00
C448   C     0.48486   0.67874   0.26206   0.00000  Uiso   1.00
C449   C     0.48925   0.72278   0.25887   0.00000  Uiso   1.00
C450   C     0.51017   0.94432   0.24135   0.00000  Uiso   1.00
C451   C     0.52114   0.81223   0.14409   0.00000  Uiso   1.00
C452   C     0.47874   0.85436   0.35613   0.00000  Uiso   1.00
C453   C     0.46772   0.86096   0.39925   0.00000  Uiso   1.00
C454   C     0.53009   0.80262   0.10156   0.00000  Uiso   1.00
C455   C     0.42477   0.89089   0.46166   0.00000  Uiso   1.00
C456   C     0.48809   0.83994   0.41904   0.00000  Uiso   1.00
C457   C     0.47621   0.84262   0.46028   0.00000  Uiso   1.00
C458   C     0.44468   0.86930   0.48154   0.00000  Uiso   1.00
C459   C     0.49521   0.82005   0.48093   0.00000  Uiso   1.00
C460   C     0.48708   0.82909   0.02228   0.00000  Uiso   1.00
C461   C     0.45347   0.85374   0.04248   0.00000  Uiso   1.00
C462   C     0.43281   0.87357   0.02241   0.00000  Uiso   1.00
H463   H     0.40744   0.89246   0.03903   0.00000  Uiso   1.00
H464   H     0.44090   0.85635   0.07403   0.00000  Uiso   1.00
H465   H     0.52498   0.77648   0.43126   0.00000  Uiso   1.00
H466   H     0.58911   0.70970   0.03904   0.00000  Uiso   1.00
H467   H     0.51313   0.87665   0.11845   0.00000  Uiso   1.00
H468   H     0.56892   0.75730   0.12809   0.00000  Uiso   1.00
H469   H     0.35007   0.85988   0.21486   0.00000  Uiso   1.00
H470   H     0.65139   0.80720   0.28519   0.00000  Uiso   1.00
H471   H     0.54124   0.66941   0.21607   0.00000  Uiso   1.00
H472   H     0.45741   0.99891   0.28419   0.00000  Uiso   1.00
H473   H     0.55618   0.74000   0.46660   0.00000  Uiso   1.00
H474   H     0.40030   0.91097   0.47776   0.00000  Uiso   1.00
H475   H     0.41975   0.90304   0.40608   0.00000  Uiso   1.00
H476   H     0.51386   0.82230   0.40160   0.00000  Uiso   1.00
O477   O     0.50000   0.83333   0.25000   0.00000  Uiso   1.00
O478   O     0.49027   0.79060   0.16625   0.00000  Uiso   1.00
O479   O     0.46020   0.87313   0.33749   0.00000  Uiso   1.00
O480   O     0.54421   0.84159   0.15877   0.00000  Uiso   1.00
O481   O     0.50532   0.82802   0.33749   0.00000  Uiso   1.00
O482   O     0.57552   0.72138   0.02213   0.00000  Uiso   1.00
O483   O     0.50116   0.86577   0.09612   0.00000  Uiso   1.00
O484   O     0.56766   0.74277   0.10216   0.00000  Uiso   1.00
O485   O     0.51182   0.74768   0.27820   0.00000  Uiso   1.00
O486   O     0.47914   0.92803   0.26767   0.00000  Uiso   1.00
O487   O     0.40785   0.79917   0.23607   0.00000  Uiso   1.00
O488   O     0.60119   0.85845   0.21805   0.00000  Uiso   1.00
O489   O     0.40323   0.85627   0.27820   0.00000  Uiso   1.00
O490   O     0.58773   0.81944   0.26767   0.00000  Uiso   1.00
O491   O     0.47133   0.73570   0.23607   0.00000  Uiso   1.00
O492   O     0.53771   0.92193   0.21805   0.00000  Uiso   1.00
Zn493  Zn    0.52577   0.80756   0.28277   0.00000  Uiso   1.00
Zn494  Zn    0.46792   0.79044   0.22257   0.00000  Uiso   1.00
Zn495  Zn    0.54500   0.86331   0.21188   0.00000  Uiso   1.00
Zn496  Zn    0.46131   0.87202   0.28277   0.00000  Uiso   1.00
C497   C     0.71916   0.82661   0.25871   0.00000  Uiso   1.00
C498   C     0.85377   0.78749   0.46189   0.00000  Uiso   1.00
C499   C     0.87165   0.76561   0.48257   0.00000  Uiso   1.00
C500   C     0.94770   0.84022   0.24120   0.00000  Uiso   1.00
C501   C     0.86763   0.77698   0.02255   0.00000  Uiso   1.00
C502   C     0.84409   0.81086   0.04233   0.00000  Uiso   1.00
C503   C     0.88725   0.75491   0.04255   0.00000  Uiso   1.00
C504   C     0.88384   0.76675   0.08267   0.00000  Uiso   1.00
C505   C     0.84656   0.82643   0.08067   0.00000  Uiso   1.00
C506   C     0.99369   0.84281   0.23758   0.00000  Uiso   1.00
C507   C     0.67378   0.82424   0.26213   0.00000  Uiso   1.00
C508   C     0.76933   0.88653   0.42079   0.00000  Uiso   1.00
C509   C     0.84750   0.98881   0.23811   0.00000  Uiso   1.00
C510   C     0.81819   0.67874   0.26206   0.00000  Uiso   1.00
C511   C     0.82259   0.72278   0.25887   0.00000  Uiso   1.00
C512   C     0.84350   0.94432   0.24135   0.00000  Uiso   1.00
C513   C     0.85447   0.81223   0.14409   0.00000  Uiso   1.00
C514   C     0.81208   0.85436   0.35613   0.00000  Uiso   1.00
C515   C     0.80105   0.86096   0.39925   0.00000  Uiso   1.00
C516   C     0.86343   0.80262   0.10156   0.00000  Uiso   1.00
C517   C     0.75810   0.89089   0.46166   0.00000  Uiso   1.00
C518   C     0.82143   0.83994   0.41904   0.00000  Uiso   1.00
C519   C     0.80954   0.84262   0.46028   0.00000  Uiso   1.00
C520   C     0.77802   0.86930   0.48154   0.00000  Uiso   1.00
C521   C     0.82854   0.82005   0.48093   0.00000  Uiso   1.00
C522   C     0.82042   0.82909   0.02228   0.00000  Uiso   1.00
C523   C     0.78681   0.85374   0.04248   0.00000  Uiso   1.00
C524   C     0.76614   0.87357   0.02241   0.00000  Uiso   1.00
H525   H     0.74077   0.89246   0.03903   0.00000  Uiso   1.00
H526   H     0.77424   0.85635   0.07403   0.00000  Uiso   1.00
H527   H     0.85831   0.77648   0.43126   0.00000  Uiso   1.00
H528   H     0.92244   0.70970   0.03904   0.00000  Uiso   1.00
H529   H     0.84646   0.87665   0.11845   0.00000  Uiso   1.00
H530   H     0.90225   0.75730   0.12809   0.00000  Uiso   1.00
H531   H     0.68340   0.85988   0.21486   0.00000  Uiso   1.00
H532   H     0.98472   0.80720   0.28519   0.00000  Uiso   1.00
H533   H     0.87457   0.66941   0.21607   0.00000  Uiso   1.00
H534   H     0.79074   0.99891   0.28419   0.00000  Uiso   1.00
H535   H     0.88951   0.74000   0.46660   0.00000  Uiso   1.00
H536   H     0.73363   0.91097   0.47776   0.00000  Uiso   1.00
H537   H     0.75308   0.90304   0.40608   0.00000  Uiso   1.00
H538   H     0.84720   0.82230   0.40160   0.00000  Uiso   1.00
O539   O     0.83333   0.83333   0.25000   0.00000  Uiso   1.00
O540   O     0.82360   0.79060   0.16625   0.00000  Uiso   1.00
O541   O     0.79354   0.87313   0.33749   0.00000  Uiso   1.00
O542   O     0.87755   0.84159   0.15877   0.00000  Uiso   1.00
O543   O     0.83865   0.82802   0.33749   0.00000  Uiso   1.00
O544   O     0.90885   0.72138   0.02213   0.00000  Uiso   1.00
O545   O     0.83450   0.86577   0.09612   0.00000  Uiso   1.00
O546   O     0.90100   0.74277   0.10216   0.00000  Uiso   1.00
O547   O     0.84515   0.74768   0.27820   0.00000  Uiso   1.00
O548   O     0.81247   0.92803   0.26767   0.00000  Uiso   1.00
O549   O     0.74119   0.79917   0.23607   0.00000  Uiso   1.00
O550   O     0.93452   0.85845   0.21805   0.00000  Uiso   1.00
O551   O     0.73656   0.85627   0.27820   0.00000  Uiso   1.00
O552   O     0.92106   0.81944   0.26767   0.00000  Uiso   1.00
O553   O     0.80467   0.73570   0.23607   0.00000  Uiso   1.00
O554   O     0.87104   0.92193   0.21805   0.00000  Uiso   1.00
Zn555  Zn    0.85910   0.80756   0.28277   0.00000  Uiso   1.00
Zn556  Zn    0.80125   0.79044   0.22257   0.00000  Uiso   1.00
Zn557  Zn    0.87833   0.86331   0.21188   0.00000  Uiso   1.00
Zn558  Zn    0.79465   0.87202   0.28277   0.00000  Uiso   1.00
C559   C     0.05250   0.15994   0.75871   0.00000  Uiso   1.00
C560   C     0.18711   0.12082   0.96189   0.00000  Uiso   1.00
C561   C     0.20498   0.09894   0.98257   0.00000  Uiso   1.00
C562   C     0.28103   0.17355   0.74120   0.00000  Uiso   1.00
C563   C     0.20096   0.11031   0.52255   0.00000  Uiso   1.00
C564   C     0.17743   0.14420   0.54233   0.00000  Uiso   1.00
C565   C     0.22058   0.08824   0.54255   0.00000  Uiso   1.00
C566   C     0.21717   0.10008   0.58267   0.00000  Uiso   1.00
C567   C     0.17989   0.15976   0.58067   0.00000  Uiso   1.00
C568   C     0.32703   0.17615   0.73758   0.00000  Uiso   1.00
C569   C     0.00711   0.15757   0.76213   0.00000  Uiso   1.00
C570   C     0.10267   0.21986   0.92079   0.00000  Uiso   1.00
C571   C     0.18083   0.32214   0.73811   0.00000  Uiso   1.00
C572   C     0.15152   0.01208   0.76206   0.00000  Uiso   1.00
C573   C     0.15592   0.05612   0.75887   0.00000  Uiso   1.00
C574   C     0.17684   0.27765   0.74135   0.00000  Uiso   1.00
C575   C     0.18781   0.14557   0.64409   0.00000  Uiso   1.00
C576   C     0.14541   0.18769   0.85613   0.00000  Uiso   1.00
C577   C     0.13439   0.19429   0.89925   0.00000  Uiso   1.00
C578   C     0.19676   0.13596   0.60156   0.00000  Uiso   1.00
C579   C     0.09144   0.22422   0.96166   0.00000  Uiso   1.00
C580   C     0.15476   0.17327   0.91904   0.00000  Uiso   1.00
C581   C     0.14287   0.17595   0.96028   0.00000  Uiso   1.00
C582   C     0.11135   0.20263   0.98154   0.00000  Uiso   1.00
C583   C     0.16188   0.15338   0.98093   0.00000  Uiso   1.00
C584   C     0.15375   0.16243   0.52228   0.00000  Uiso   1.00
C585   C     0.12014   0.18708   0.54248   0.00000  Uiso   1.00
C586   C     0.09948   0.20690   0.52241   0.00000  Uiso   1.00
H587   H     0.07410   0.22580   0.53903   0.00000  Uiso   1.00
H588   H     0.10757   0.18968   0.57403   0.00000  Uiso   1.00
H589   H     0.19165   0.10981   0.93126   0.00000  Uiso   1.00
H590   H     0.25577   0.04303   0.53904   0.00000  Uiso   1.00
H591   H     0.17979   0.20998   0.61845   0.00000  Uiso   1.00
H592   H     0.23558   0.09064   0.62809   0.00000  Uiso   1.00
H593   H     0.01674   0.19322   0.71486   0.00000  Uiso   1.00
H594   H     0.31805   0.14053   0.78519   0.00000  Uiso   1.00
H595   H     0.20791   0.00275   0.71607   0.00000  Uiso   1.00
H596   H     0.12408   0.33224   0.78419   0.00000  Uiso   1.00
H597   H     0.22284   0.07334   0.96660   0.00000  Uiso   1.00
H598   H     0.06696   0.24430   0.97776   0.00000  Uiso   1.00
H599   H     0.08642   0.23637   0.90608   0.00000  Uiso   1.00
H600   H     0.18053   0.15563   0.90160   0.00000  Uiso   1.00
O601   O     0.16667   0.16667   0.75000   0.00000  Uiso   1.00
O602   O     0.15693   0.12393   0.66625   0.00000  Uiso   1.00
O603   O     0.12687   0.20646   0.83749   0.00000  Uiso   1.00
O604   O     0.21088   0.17493   0.65877   0.00000  Uiso   1.00
O605   O     0.17198   0.16135   0.83749   0.00000  Uiso   1.00
O606   O     0.24219   0.05472   0.52213   0.00000  Uiso   1.00
O607   O     0.16783   0.19910   0.59612   0.00000  Uiso   1.00
O608   O     0.23433   0.07611   0.60216   0.00000  Uiso   1.00
O609   O     0.17849   0.08101   0.77820   0.00000  Uiso   1.00
O610   O     0.14581   0.26136   0.76767   0.00000  Uiso   1.00
O611   O     0.07452   0.13251   0.73607   0.00000  Uiso   1.00
O612   O     0.26785   0.19179   0.71805   0.00000  Uiso   1.00
O613   O     0.06990   0.18960   0.77820   0.00000  Uiso   1.00
O614   O     0.25440   0.15277   0.76767   0.00000  Uiso   1.00
O615   O     0.13800   0.06903   0.73607   0.00000  Uiso   1.00
O616   O     0.20437   0.25527   0.71805   0.00000  Uiso   1.00
Zn617  Zn    0.19244   0.14090   0.78277   0.00000  Uiso   1.00
Zn618  Zn    0.13459   0.12378   0.72257   0.00000  Uiso   1.00
Zn619  Zn    0.21166   0.19664   0.71188   0.00000  Uiso   1.00
Zn620  Zn    0.12798   0.20535   0.78277   0.00000  Uiso   1.00
C621   C     0.38583   0.15994   0.75871   0.00000  Uiso   1.00
C622   C     0.52044   0.12082   0.96189   0.00000  Uiso   1.00
C623   C     0.53832   0.09894   0.98257   0.00000  Uiso   1.00
C624   C     0.61437   0.17355   0.74120   0.00000  Uiso   1.00
C625   C     0.53430   0.11031   0.52255   0.00000  Uiso   1.00
C626   C     0.51076   0.14420   0.54233   0.00000  Uiso   1.00
C627   C     0.55391   0.08824   0.54255   0.00000  Uiso   1.00
C628   C     0.55050   0.10008   0.58267   0.00000  Uiso   1.00
C629   C     0.51323   0.15976   0.58067   0.00000  Uiso   1.00
C630   C     0.66036   0.17615   0.73758   0.00000  Uiso   1.00
C631   C     0.34044   0.15757   0.76213   0.00000  Uiso   1.00
C632   C     0.43600   0.21986   0.92079   0.00000  Uiso   1.00
C633   C     0.51417   0.32214   0.73811   0.00000  Uiso   1.00
C634   C     0.48486   0.01208   0.76206   0.00000  Uiso   1.00
C635   C     0.48925   0.05612   0.75887   0.00000  Uiso   1.00
C636   C     0.51017   0.27765   0.74135   0.00000  Uiso   1.00
C637   C     0.52114   0.14557   0.64409   0.00000  Uiso   1.00
C638   C     0.47874   0.18769   0.85613   0.00000  Uiso   1.00
C639   C     0.46772   0.19429   0.89925   0.00000  Uiso   1.00
C640   C     0.53009   0.13596   0.60156   0.00000  Uiso   1.00
C641   C     0.42477   0.22422   0.96166   0.00000  Uiso   1.00
C642   C     0.48809   0.17327   0.91904   0.00000  Uiso   1.00
C643   C     0.47621   0.17595   0.96028   0.00000  Uiso   1.00
C644   C     0.44468   0.20263   0.98154   0.00000  Uiso   1.00
C645   C     0.49521   0.15338   0.98093   0.00000  Uiso   1.00
C646   C     0.48708   0.16243   0.52228   0.00000  Uiso   1.00
C647   C     0.45347   0.18708   0.54248   0.00000  Uiso   1.00
C648   C     0.43281   0.20690   0.52241   0.00000  Uiso   1.00
H649   H     0.40744   0.22580   0.53903   0.00000  Uiso   1.00
H650   H     0.44090   0.18968   0.57403   0.00000  Uiso   1.00
H651   H     0.52498   0.10981   0.93126   0.00000  Uiso   1.00
H652   H     0.58911   0.04303   0.53904   0.00000  Uiso   1.00
H653   H     0.51313   0.20998   0.61845   0.00000  Uiso   1.00
H654   H     0.56892   0.09064   0.62809   0.00000  Uiso   1.00
H655   H     0.35007   0.19322   0.71486   0.00000  Uiso   1.00
H656   H     0.65139   0.14053   0.78519   0.00000  Uiso   1.00
H657   H     0.54124   0.00275   0.71607   0.00000  Uiso   1.00
H658   H     0.45741   0.33224   0.78419   0.00000  Uiso   1.00
H659   H     0.55618   0.07334   0.96660   0.00000  Uiso   1.00
H660   H     0.40030   0.24430   0.97776   0.00000  Uiso   1.00
H661   H     0.41975   0.23637   0.90608   0.00000  Uiso   1.00
H662   H     0.51386   0.15563   0.90160   0.00000  Uiso   1.00
O663   O     0.50000   0.16667   0.75000   0.00000  Uiso   1.00
O664   O     0.49027   0.12393   0.66625   0.00000  Uiso   1.00
O665   O     0.46020   0.20646   0.83749   0.00000  Uiso   1.00
O666   O     0.54421   0.17493   0.65877   0.00000  Uiso   1.00
O667   O     0.50532   0.16135   0.83749   0.00000  Uiso   1.00
O668   O     0.57552   0.05472   0.52213   0.00000  Uiso   1.00
O669   O     0.50116   0.19910   0.59612   0.00000  Uiso   1.00
O670   O     0.56766   0.07611   0.60216   0.00000  Uiso   1.00
O671   O     0.51182   0.08101   0.77820   0.00000  Uiso   1.00
O672   O     0.47914   0.26136   0.76767   0.00000  Uiso   1.00
O673   O     0.40785   0.13251   0.73607   0.00000  Uiso   1.00
O674   O     0.60119   0.19179   0.71805   0.00000  Uiso   1.00
O675   O     0.40323   0.18960   0.77820   0.00000  Uiso   1.00
O676   O     0.58773   0.15277   0.76767   0.00000  Uiso   1.00
O677   O     0.47133   0.06903   0.73607   0.00000  Uiso   1.00
O678   O     0.53771   0.25527   0.71805   0.00000  Uiso   1.00
Zn679  Zn    0.52577   0.14090   0.78277   0.00000  Uiso   1.00
Zn680  Zn    0.46792   0.12378   0.72257   0.00000  Uiso   1.00
Zn681  Zn    0.54500   0.19664   0.71188   0.00000  Uiso   1.00
Zn682  Zn    0.46131   0.20535   0.78277   0.00000  Uiso   1.00
C683   C     0.71916   0.15994   0.75871   0.00000  Uiso   1.00
C684   C     0.85377   0.12082   0.96189   0.00000  Uiso   1.00
C685   C     0.87165   0.09894   0.98257   0.00000  Uiso   1.00
C686   C     0.94770   0.17355   0.74120   0.00000  Uiso   1.00
C687   C     0.86763   0.11031   0.52255   0.00000  Uiso   1.00
C688   C     0.84409   0.14420   0.54233   0.00000  Uiso   1.00
C689   C     0.88725   0.08824   0.54255   0.00000  Uiso   1.00
C690   C     0.88384   0.10008   0.58267   0.00000  Uiso   1.00
C691   C     0.84656   0.15976   0.58067   0.00000  Uiso   1.00
C692   C     0.99369   0.17615   0.73758   0.00000  Uiso   1.00
C693   C     0.67378   0.15757   0.76213   0.00000  Uiso   1.00
C694   C     0.76933   0.21986   0.92079   0.00000  Uiso   1.00
C695   C     0.84750   0.32214   0.73811   0.00000  Uiso   1.00
C696   C     0.81819   0.01208   0.76206   0.00000  Uiso   1.00
C697   C     0.82259   0.05612   0.75887   0.00000  Uiso   1.00
C698   C     0.84350   0.27765   0.74135   0.00000  Uiso   1.00
C699   C     0.85447   0.14557   0.64409   0.00000  Uiso   1.00
C700   C     0.81208   0.18769   0.85613   0.00000  Uiso   1.00
C701   C     0.80105   0.19429   0.89925   0.00000  Uiso   1.00
C702   C     0.86343   0.13596   0.60156   0.00000  Uiso   1.00
C703   C     0.75810   0.22422   0.96166   0.00000  Uiso   1.00
C704   C     0.82143   0.17327   0.91904   0.00000  Uiso   1.00
C705   C     0.80954   0.17595   0.96028   0.00000  Uiso   1.00
C706   C     0.77802   0.20263   0.98154   0.00000  Uiso   1.00
C707   C     0.82854   0.15338   0.98093   0.00000  Uiso   1.00
C708   C     0.82042   0.16243   0.52228   0.00000  Uiso   1.00
C709   C     0.78681   0.18708   0.54248   0.00000  Uiso   1.00
C710   C     0.76614   0.20690   0.52241   0.00000  Uiso   1.00
H711   H     0.74077   0.22580   0.53903   0.00000  Uiso   1.00
H712   H     0.77424   0.18968   0.57403   0.00000  Uiso   1.00
H713   H     0.85831   0.10981   0.93126   0.00000  Uiso   1.00
H714   H     0.92244   0.04303   0.53904   0.00000  Uiso   1.00
H715   H     0.84646   0.20998   0.61845   0.00000  Uiso   1.00
H716   H     0.90225   0.09064   0.62809   0.00000  Uiso   1.00
H717   H     0.68340   0.19322   0.71486   0.00000  Uiso   1.00
H718   H     0.98472   0.14053   0.78519   0.00000  Uiso   1.00
H719   H     0.87457   0.00275   0.71607   0.00000  Uiso   1.00
H720   H     0.79074   0.33224   0.78419   0.00000  Uiso   1.00
H721   H     0.88951   0.07334   0.96660   0.00000  Uiso   1.00
H722   H     0.73363   0.24430   0.97776   0.00000  Uiso   1.00
H723   H     0.75308   0.23637   0.90608   0.00000  Uiso   1.00
H724   H     0.84720   0.15563   0.90160   0.00000  Uiso   1.00
O725   O     0.83333   0.16667   0.75000   0.00000  Uiso   1.00
O726   O     0.82360   0.12393   0.66625   0.00000  Uiso   1.00
O727   O     0.79354   0.20646   0.83749   0.00000  Uiso   1.00
O728   O     0.87755   0.17493   0.65877   0.00000  Uiso   1.00
O729   O     0.83865   0.16135   0.83749   0.00000  Uiso   1.00
O730   O     0.90885   0.05472   0.52213   0.00000  Uiso   1.00
O731   O     0.83450   0.19910   0.59612   0.00000  Uiso   1.00
O732   O     0.90100   0.07611   0.60216   0.00000  Uiso   1.00
O733   O     0.84515   0.08101   0.77820   0.00000  Uiso   1.00
O734   O     0.81247   0.26136   0.76767   0.00000  Uiso   1.00
O735   O     0.74119   0.13251   0.73607   0.00000  Uiso   1.00
O736   O     0.93452   0.19179   0.71805   0.00000  Uiso   1.00
O737   O     0.73656   0.18960   0.77820   0.00000  Uiso   1.00
O738   O     0.92106   0.15277   0.76767   0.00000  Uiso   1.00
O739   O     0.80467   0.06903   0.73607   0.00000  Uiso   1.00
O740   O     0.87104   0.25527   0.71805   0.00000  Uiso   1.00
Zn741  Zn    0.85910   0.14090   0.78277   0.00000  Uiso   1.00
Zn742  Zn    0.80125   0.12378   0.72257   0.00000  Uiso   1.00
Zn743  Zn    0.87833   0.19664   0.71188   0.00000  Uiso   1.00
Zn744  Zn    0.79465   0.20535   0.78277   0.00000  Uiso   1.00
C745   C     0.05250   0.49327   0.75871   0.00000  Uiso   1.00
C746   C     0.18711   0.45416   0.96189   0.00000  Uiso   1.00
C747   C     0.20498   0.43227   0.98257   0.00000  Uiso   1.00
C748   C     0.28103   0.50689   0.74120   0.00000  Uiso   1.00
C749   C     0.20096   0.44365   0.52255   0.00000  Uiso   1.00
C750   C     0.17743   0.47753   0.54233   0.00000  Uiso   1.00
C751   C     0.22058   0.42157   0.54255   0.00000  Uiso   1.00
C752   C     0.21717   0.43342   0.58267   0.00000  Uiso   1.00
C753   C     0.17989   0.49309   0.58067   0.00000  Uiso   1.00
C754   C     0.32703   0.50948   0.73758   0.00000  Uiso   1.00
C755   C     0.00711   0.49091   0.76213   0.00000  Uiso   1.00
C756   C     0.10267   0.55320   0.92079   0.00000  Uiso   1.00
C757   C     0.18083   0.65547   0.73811   0.00000  Uiso   1.00
C758   C     0.15152   0.34541   0.76206   0.00000  Uiso   1.00
C759   C     0.15592   0.38945   0.75887   0.00000  Uiso   1.00
C760   C     0.17684   0.61099   0.74135   0.00000  Uiso   1.00
C761   C     0.18781   0.47890   0.64409   0.00000  Uiso   1.00
C762   C     0.14541   0.52102   0.85613   0.00000  Uiso   1.00
C763   C     0.13439   0.52763   0.89925   0.00000  Uiso   1.00
C764   C     0.19676   0.46929   0.60156   0.00000  Uiso   1.00
C765   C     0.09144   0.55755   0.96166   0.00000  Uiso   1.00
C766   C     0.15476   0.50660   0.91904   0.00000  Uiso   1.00
C767   C     0.14287   0.50929   0.96028   0.00000  Uiso   1.00
C768   C     0.11135   0.53596   0.98154   0.00000  Uiso   1.00
C769   C     0.16188   0.48672   0.98093   0.00000  Uiso   1.00
C770   C     0.15375   0.49576   0.52228   0.00000  Uiso   1.00
C771   C     0.12014   0.52041   0.54248   0.00000  Uiso   1.00
C772   C     0.09948   0.54024   0.52241   0.00000  Uiso   1.00
H773   H     0.07410   0.55913   0.53903   0.00000  Uiso   1.00
H774   H     0.10757   0.52301   0.57403   0.00000  Uiso   1.00
H775   H     0.19165   0.44315   0.93126   0.00000  Uiso   1.00
H776   H     0.25577   0.37637   0.53904   0.00000  Uiso   1.00
H777   H     0.17979   0.54332   0.61845   0.00000  Uiso   1.00
H778   H     0.23558   0.42397   0.62809   0.00000  Uiso   1.00
H779   H     0.01674   0.52655   0.71486   0.00000  Uiso   1.00
H780   H     0.31805   0.47387   0.78519   0.00000  Uiso   1.00
H781   H     0.20791   0.33608   0.71607   0.00000  Uiso   1.00
H782   H     0.12408   0.66558   0.78419   0.00000  Uiso   1.00
H783   H     0.22284   0.40667   0.96660   0.00000  Uiso   1.00
H784   H     0.06696   0.57764   0.97776   0.00000  Uiso   1.00
H785   H     0.08642   0.56970   0.90608   0.00000  Uiso   1.00
H786   H     0.18053   0.48897   0.90160   0.00000  Uiso   1.00
O787   O     0.16667   0.50000   0.75000   0.00000  Uiso   1.00
O788   O     0.15693   0.45726   0.66625   0.00000  Uiso   1.00
O789   O     0.12687   0.53979   0.83749   0.00000  Uiso   1.00
O790   O     0.21088   0.50826   0.65877   0.00000  Uiso   1.00
O791   O     0.17198   0.49468   0.83749   0.00000  Uiso   1.00
O792   O     0.24219   0.38805   0.52213   0.00000  Uiso   1.00
O793   O     0.16783   0.53244   0.59612   0.00000  Uiso   1.00
O794   O     0.23433   0.40944   0.60216   0.00000  Uiso   1.00
O795   O     0.17849   0.41434   0.77820   0.00000  Uiso   1.00
O796   O     0.14581   0.59469   0.76767   0.00000  Uiso   1.00
O797   O     0.07452   0.46584   0.73607   0.00000  Uiso   1.00
O798   O     0.26785   0.52512   0.71805   0.00000  Uiso   1.00
O799   O     0.06990   0.52293   0.77820   0.00000  Uiso   1.00
O800   O     0.25440   0.48610   0.76767   0.00000  Uiso   1.00
O801   O     0.13800   0.40236   0.73607   0.00000  Uiso   1.00
O802   O     0.20437   0.58860   0.71805   0.00000  Uiso   1.00
Zn803  Zn    0.19244   0.47423   0.78277   0.00000  Uiso   1.00
Zn804  Zn    0.13459   0.45711   0.72257   0.00000  Uiso   1.00
Zn805  Zn    0.21166   0.52997   0.71188   0.00000  Uiso   1.00
Zn806  Zn    0.12798   0.53868   0.78277   0.00000  Uiso   1.00
C807   C     0.38583   0.49327   0.75871   0.00000  Uiso   1.00
C808   C     0.52044   0.45416   0.96189   0.00000  Uiso   1.00
C809   C     0.53832   0.43227   0.98257   0.00000  Uiso   1.00
C810   C     0.61437   0.50689   0.74120   0.00000  Uiso   1.00
C811   C     0.53430   0.44365   0.52255   0.00000  Uiso   1.00
C812   C     0.51076   0.47753   0.54233   0.00000  Uiso   1.00
C813   C     0.55391   0.42157   0.54255   0.00000  Uiso   1.00
C814   C     0.55050   0.43342   0.58267   0.00000  Uiso   1.00
C815   C     0.51323   0.49309   0.58067   0.00000  Uiso   1.00
C816   C     0.66036   0.50948   0.73758   0.00000  Uiso   1.00
C817   C     0.34044   0.49091   0.76213   0.00000  Uiso   1.00
C818   C     0.43600   0.55320   0.92079   0.00000  Uiso   1.00
C819   C     0.51417   0.65547   0.73811   0.00000  Uiso   1.00
C820   C     0.48486   0.34541   0.76206   0.00000  Uiso   1.00
C821   C     0.48925   0.38945   0.75887   0.00000  Uiso   1.00
C822   C     0.51017   0.61099   0.74135   0.00000  Uiso   1.00
C823   C     0.52114   0.47890   0.64409   0.00000  Uiso   1.00
C824   C     0.47874   0.52102   0.85613   0.00000  Uiso   1.00
C825   C     0.46772   0.52763   0.89925   0.00000  Uiso   1.00
C826   C     0.53009   0.46929   0.60156   0.00000  Uiso   1.00
C827   C     0.42477   0.55755   0.96166   0.00000  Uiso   1.00
C828   C     0.48809   0.50660   0.91904   0.00000  Uiso   1.00
C829   C     0.47621   0.50929   0.96028   0.00000  Uiso   1.00
C830   C     0.44468   0.53596   0.98154   0.00000  Uiso   1.00
C831   C     0.49521   0.48672   0.98093   0.00000  Uiso   1.00
C832   C     0.48708   0.49576   0.52228   0.00000  Uiso   1.00
C833   C     0.45347   0.52041   0.54248   0.00000  Uiso   1.00
C834   C     0.43281   0.54024   0.52241   0.00000  Uiso   1.00
H835   H     0.40744   0.55913   0.53903   0.00000  Uiso   1.00
H836   H     0.44090   0.52301   0.57403   0.00000  Uiso   1.00
H837   H     0.52498   0.44315   0.93126   0.00000  Uiso   1.00
H838   H     0.58911   0.37637   0.53904   0.00000  Uiso   1.00
H839   H     0.51313   0.54332   0.61845   0.00000  Uiso   1.00
H840   H     0.56892   0.42397   0.62809   0.00000  Uiso   1.00
H841   H     0.35007   0.52655   0.71486   0.00000  Uiso   1.00
H842   H     0.65139   0.47387   0.78519   0.00000  Uiso   1.00
H843   H     0.54124   0.33608   0.71607   0.00000  Uiso   1.00
H844   H     0.45741   0.66558   0.78419   0.00000  Uiso   1.00
H845   H     0.55618   0.40667   0.96660   0.00000  Uiso   1.00
H846   H     0.40030   0.57764   0.97776   0.00000  Uiso   1.00
H847   H     0.41975   0.56970   0.90608   0.00000  Uiso   1.00
H848   H     0.51386   0.48897   0.90160   0.00000  Uiso   1.00
O849   O     0.50000   0.50000   0.75000   0.00000  Uiso   1.00
O850   O     0.49027   0.45726   0.66625   0.00000  Uiso   1.00
O851   O     0.46020   0.53979   0.83749   0.00000  Uiso   1.00
O852   O     0.54421   0.50826   0.65877   0.00000  Uiso   1.00
O853   O     0.50532   0.49468   0.83749   0.00000  Uiso   1.00
O854   O     0.57552   0.38805   0.52213   0.00000  Uiso   1.00
O855   O     0.50116   0.53244   0.59612   0.00000  Uiso   1.00
O856   O     0.56766   0.40944   0.60216   0.00000  Uiso   1.00
O857   O     0.51182   0.41434   0.77820   0.00000  Uiso   1.00
O858   O     0.47914   0.59469   0.76767   0.00000  Uiso   1.00
O859   O     0.40785   0.46584   0.73607   0.00000  Uiso   1.00
O860   O     0.60119   0.52512   0.71805   0.00000  Uiso   1.00
O861   O     0.40323   0.52293   0.77820   0.00000  Uiso   1.00
O862   O     0.58773   0.48610   0.76767   0.00000  Uiso   1.00
O863   O     0.47133   0.40236   0.73607   0.00000  Uiso   1.00
O864   O     0.53771   0.58860   0.71805   0.00000  Uiso   1.00
Zn865  Zn    0.52577   0.47423   0.78277   0.00000  Uiso   1.00
Zn866  Zn    0.46792   0.45711   0.72257   0.00000  Uiso   1.00
Zn867  Zn    0.54500   0.52997   0.71188   0.00000  Uiso   1.00
Zn868  Zn    0.46131   0.53868   0.78277   0.00000  Uiso   1.00
C869   C     0.71916   0.49327   0.75871   0.00000  Uiso   1.00
C870   C     0.85377   0.45416   0.96189   0.00000  Uiso   1.00
C871   C     0.87165   0.43227   0.98257   0.00000  Uiso   1.00
C872   C     0.94770   0.50689   0.74120   0.00000  Uiso   1.00
C873   C     0.86763   0.44365   0.52255   0.00000  Uiso   1.00
C874   C     0.84409   0.47753   0.54233   0.00000  Uiso   1.00
C875   C     0.88725   0.42157   0.54255   0.00000  Uiso   1.00
C876   C     0.88384   0.43342   0.58267   0.00000  Uiso   1.00
C877   C     0.84656   0.49309   0.58067   0.00000  Uiso   1.00
C878   C     0.99369   0.50948   0.73758   0.00000  Uiso   1.00
C879   C     0.67378   0.49091   0.76213   0.00000  Uiso   1.00
C880   C     0.76933   0.55320   0.92079   0.00000  Uiso   1.00
C881   C     0.84750   0.65547   0.73811   0.00000  Uiso   1.00
C882   C     0.81819   0.34541   0.76206   0.00000  Uiso   1.00
C883   C     0.82259   0.38945   0.75887   0.00000  Uiso   1.00
C884   C     0.84350   0.61099   0.74135   0.00000  Uiso   1.00
C885   C     0.85447   0.47890   0.64409   0.00000  Uiso   1.00
C886   C     0.81208   0.52102   0.85613   0.00000  Uiso   1.00
C887   C     0.80105   0.52763   0.89925   0.00000  Uiso   1.00
C888   C     0.86343   0.46929   0.60156   0.00000  Uiso   1.00
C889   C     0.75810   0.55755   0.96166   0.00000  Uiso   1.00
C890   C     0.82143   0.50660   0.91904   0.00000  Uiso   1.00
C891   C     0.80954   0.50929   0.96028   0.00000  Uiso   1.00
C892   C     0.77802   0.53596   0.98154   0.00000  Uiso   1.00
C893   C     0.82854   0.48672   0.98093   0.00000  Uiso   1.00
C894   C     0.82042   0.49576   0.52228   0.00000  Uiso   1.00
C895   C     0.78681   0.52041   0.54248   0.00000  Uiso   1.00
C896   C     0.76614   0.54024   0.52241   0.00000  Uiso   1.00
H897   H     0.74077   0.55913   0.53903   0.00000  Uiso   1.00
H898   H     0.77424   0.52301   0.57403   0.00000  Uiso   1.00
H899   H     0.85831   0.44315   0.93126   0.00000  Uiso   1.00
H900   H     0.92244   0.37637   0.53904   0.00000  Uiso   1.00
H901   H     0.84646   0.54332   0.61845   0.00000  Uiso   1.00
H902   H     0.90225   0.42397   0.62809   0.00000  Uiso   1.00
H903   H     0.68340   0.52655   0.71486   0.00000  Uiso   1.00
H904   H     0.98472   0.47387   0.78519   0.00000  Uiso   1.00
H905   H     0.87457   0.33608   0.71607   0.00000  Uiso   1.00
H906   H     0.79074   0.66558   0.78419   0.00000  Uiso   1.00
H907   H     0.88951   0.40667   0.96660   0.00000  Uiso   1.00
H908   H     0.73363   0.57764   0.97776   0.00000  Uiso   1.00
H909   H     0.75308   0.56970   0.90608   0.00000  Uiso   1.00
H910   H     0.84720   0.48897   0.90160   0.00000  Uiso   1.00
O911   O     0.83333   0.50000   0.75000   0.00000  Uiso   1.00
O912   O     0.82360   0.45726   0.66625   0.00000  Uiso   1.00
O913   O     0.79354   0.53979   0.83749   0.00000  Uiso   1.00
O914   O     0.87755   0.50826   0.65877   0.00000  Uiso   1.00
O915   O     0.83865   0.49468   0.83749   0.00000  Uiso   1.00
O916   O     0.90885   0.38805   0.52213   0.00000  Uiso   1.00
O917   O     0.83450   0.53244   0.59612   0.00000  Uiso   1.00
O918   O     0.90100   0.40944   0.60216   0.00000  Uiso   1.00
O919   O     0.84515   0.41434   0.77820   0.00000  Uiso   1.00
O920   O     0.81247   0.59469   0.76767   0.00000  Uiso   1.00
O921   O     0.74119   0.46584   0.73607   0.00000  Uiso   1.00
O922   O     0.93452   0.52512   0.71805   0.00000  Uiso   1.00
O923   O     0.73656   0.52293   0.77820   0.00000  Uiso   1.00
O924   O     0.92106   0.48610   0.76767   0.00000  Uiso   1.00
O925   O     0.80467   0.40236   0.73607   0.00000  Uiso   1.00
O926   O     0.87104   0.58860   0.71805   0.00000  Uiso   1.00
Zn927  Zn    0.85910   0.47423   0.78277   0.00000  Uiso   1.00
Zn928  Zn    0.80125   0.45711   0.72257   0.00000  Uiso   1.00
Zn929  Zn    0.87833   0.52997   0.71188   0.00000  Uiso   1.00
Zn930  Zn    0.79465   0.53868   0.78277   0.00000  Uiso   1.00
C931   C     0.05250   0.82661   0.75871   0.00000  Uiso   1.00
C932   C     0.18711   0.78749   0.96189   0.00000  Uiso   1.00
C933   C     0.20498   0.76561   0.98257   0.00000  Uiso   1.00
C934   C     0.28103   0.84022   0.74120   0.00000  Uiso   1.00
C935   C     0.20096   0.77698   0.52255   0.00000  Uiso   1.00
C936   C     0.17743   0.81086   0.54233   0.00000  Uiso   1.00
C937   C     0.22058   0.75491   0.54255   0.00000  Uiso   1.00
C938   C     0.21717   0.76675   0.58267   0.00000  Uiso   1.00
C939   C     0.17989   0.82643   0.58067   0.00000  Uiso   1.00
C940   C     0.32703   0.84281   0.73758   0.00000  Uiso   1.00
C941   C     0.00711   0.82424   0.76213   0.00000  Uiso   1.00
C942   C     0.10267   0.88653   0.92079   0.00000  Uiso   1.00
C943   C     0.18083   0.98881   0.73811   0.00000  Uiso   1.00
C944   C     0.15152   0.67874   0.76206   0.00000  Uiso   1.00
C945   C     0.15592   0.72278   0.75887   0.00000  Uiso   1.00
C946   C     0.17684   0.94432   0.74135   0.00000  Uiso   1.00
C947   C     0.18781   0.81223   0.64409   0.00000  Uiso   1.00
C948   C     0.14541   0.85436   0.85613   0.00000  Uiso   1.00
C949   C     0.13439   0.86096   0.89925   0.00000  Uiso   1.00
C950   C     0.19676   0.80262   0.60156   0.00000  Uiso   1.00
C951   C     0.09144   0.89089   0.96166   0.00000  Uiso   1.00
C952   C     0.15476   0.83994   0.91904   0.00000  Uiso   1.00
C953   C     0.14287   0.84262   0.96028   0.00000  Uiso   1.00
C954   C     0.11135   0.86930   0.98154   0.00000  Uiso   1.00
C955   C     0.16188   0.82005   0.98093   0.00000  Uiso   1.00
C956   C     0.15375   0.82909   0.52228   0.00000  Uiso   1.00
C957   C     0.12014   0.85374   0.54248   0.00000  Uiso   1.00
C958   C     0.09948   0.87357   0.52241   0.00000  Uiso   1.00
H959   H     0.07410   0.89246   0.53903   0.00000  Uiso   1.00
H960   H     0.10757   0.85635   0.57403   0.00000  Uiso   1.00
H961   H     0.19165   0.77648   0.93126   0.00000  Uiso   1.00
H962   H     0.25577   0.70970   0.53904   0.00000  Uiso   1.00
H963   H     0.17979   0.87665   0.61845   0.00000  Uiso   1.00
H964   H     0.23558   0.75730   0.62809   0.00000  Uiso   1.00
H965   H     0.01674   0.85988   0.71486   0.00000  Uiso   1.00
H966   H     0.31805   0.80720   0.78519   0.00000  Uiso   1.00
H967   H     0.20791   0.66941   0.71607   0.00000  Uiso   1.00
H968   H     0.12408   0.99891   0.78419   0.00000  Uiso   1.00
H969   H     0.22284   0.74000   0.96660   0.00000  Uiso   1.00
H970   H     0.06696   0.91097   0.97776   0.00000  Uiso   1.00
H971   H     0.08642   0.90304   0.90608   0.00000  Uiso   1.00
H972   H     0.18053   0.82230   0.90160   0.00000  Uiso   1.00
O973   O     0.16667   0.83333   0.75000   0.00000  Uiso   1.00
O974   O     0.15693   0.79060   0.66625   0.00000  Uiso   1.00
O975   O     0.12687   0.87313   0.83749   0.00000  Uiso   1.00
O976   O     0.21088   0.84159   0.65877   0.00000  Uiso   1.00
O977   O     0.17198   0.82802   0.83749   0.00000  Uiso   1.00
O978   O     0.24219   0.72138   0.52213   0.00000  Uiso   1.00
O979   O     0.16783   0.86577   0.59612   0.00000  Uiso   1.00
O980   O     0.23433   0.74277   0.60216   0.00000  Uiso   1.00
O981   O     0.17849   0.74768   0.77820   0.00000  Uiso   1.00
O982   O     0.14581   0.92803   0.76767   0.00000  Uiso   1.00
O983   O     0.07452   0.79917   0.73607   0.00000  Uiso   1.00
O984   O     0.26785   0.85845   0.71805   0.00000  Uiso   1.00
O985   O     0.06990   0.85627   0.77820   0.00000  Uiso   1.00
O986   O     0.25440   0.81944   0.76767   0.00000  Uiso   1.00
O987   O     0.13800   0.73570   0.73607   0.00000  Uiso   1.00
O988   O     0.20437   0.92193   0.71805   0.00000  Uiso   1.00
Zn989  Zn    0.19244   0.80756   0.78277   0.00000  Uiso   1.00
Zn990  Zn    0.13459   0.79044   0.72257   0.00000  Uiso   1.00
Zn991  Zn    0.21166   0.86331   0.71188   0.00000  Uiso   1.00
Zn992  Zn    0.12798   0.87202   0.78277   0.00000  Uiso   1.00
C993   C     0.38583   0.82661   0.75871   0.00000  Uiso   1.00
C994   C     0.52044   0.78749   0.96189   0.00000  Uiso   1.00
C995   C     0.53832   0.76561   0.98257   0.00000  Uiso   1.00
C996   C     0.61437   0.84022   0.74120   0.00000  Uiso   1.00
C997   C     0.53430   0.77698   0.52255   0.00000  Uiso   1.00
C998   C     0.51076   0.81086   0.54233   0.00000  Uiso   1.00
C999   C     0.55391   0.75491   0.54255   0.00000  Uiso   1.00
C1000  C     0.55050   0.76675   0.58267   0.00000  Uiso   1.00
C1001  C     0.51323   0.82643   0.58067   0.00000  Uiso   1.00
C1002  C     0.66036   0.84281   0.73758   0.00000  Uiso   1.00
C1003  C     0.34044   0.82424   0.76213   0.00000  Uiso   1.00
C1004  C     0.43600   0.88653   0.92079   0.00000  Uiso   1.00
C1005  C     0.51417   0.98881   0.73811   0.00000  Uiso   1.00
C1006  C     0.48486   0.67874   0.76206   0.00000  Uiso   1.00
C1007  C     0.48925   0.72278   0.75887   0.00000  Uiso   1.00
C1008  C     0.51017   0.94432   0.74135   0.00000  Uiso   1.00
C1009  C     0.52114   0.81223   0.64409   0.00000  Uiso   1.00
C1010  C     0.47874   0.85436   0.85613   0.00000  Uiso   1.00
C1011  C     0.46772   0.86096   0.89925   0.00000  Uiso   1.00
C1012  C     0.53009   0.80262   0.60156   0.00000  Uiso   1.00
C1013  C     0.42477   0.89089   0.96166   0.00000  Uiso   1.00
C1014  C     0.48809   0.83994   0.91904   0.00000  Uiso   1.00
C1015  C     0.47621   0.84262   0.96028   0.00000  Uiso   1.00
C1016  C     0.44468   0.86930   0.98154   0.00000  Uiso   1.00
C1017  C     0.49521   0.82005   0.98093   0.00000  Uiso   1.00
C1018  C     0.48708   0.82909   0.52228   0.00000  Uiso   1.00
C1019  C     0.45347   0.85374   0.54248   0.00000  Uiso   1.00
C1020  C     0.43281   0.87357   0.52241   0.00000  Uiso   1.00
H1021  H     0.40744   0.89246   0.53903   0.00000  Uiso   1.00
H1022  H     0.44090   0.85635   0.57403   0.00000  Uiso   1.00
H1023  H     0.52498   0.77648   0.93126   0.00000  Uiso   1.00
H1024  H     0.58911   0.70970   0.53904   0.00000  Uiso   1.00
H1025  H     0.51313   0.87665   0.61845   0.00000  Uiso   1.00
H1026  H     0.56892   0.75730   0.62809   0.00000  Uiso   1.00
H1027  H     0.35007   0.85988   0.71486   0.00000  Uiso   1.00
H1028  H     0.65139   0.80720   0.78519   0.00000  Uiso   1.00
H1029  H     0.54124   0.66941   0.71607   0.00000  Uiso   1.00
H1030  H     0.45741   0.99891   0.78419   0.00000  Uiso   1.00
H1031  H     0.55618   0.74000   0.96660   0.00000  Uiso   1.00
H1032  H     0.40030   0.91097   0.97776   0.00000  Uiso   1.00
H1033  H     0.41975   0.90304   0.90608   0.00000  Uiso   1.00
H1034  H     0.51386   0.82230   0.90160   0.00000  Uiso   1.00
O1035  O     0.50000   0.83333   0.75000   0.00000  Uiso   1.00
O1036  O     0.49027   0.79060   0.66625   0.00000  Uiso   1.00
O1037  O     0.46020   0.87313   0.83749   0.00000  Uiso   1.00
O1038  O     0.54421   0.84159   0.65877   0.00000  Uiso   1.00
O1039  O     0.50532   0.82802   0.83749   0.00000  Uiso   1.00
O1040  O     0.57552   0.72138   0.52213   0.00000  Uiso   1.00
O1041  O     0.50116   0.86577   0.59612   0.00000  Uiso   1.00
O1042  O     0.56766   0.74277   0.60216   0.00000  Uiso   1.00
O1043  O     0.51182   0.74768   0.77820   0.00000  Uiso   1.00
O1044  O     0.47914   0.92803   0.76767   0.00000  Uiso   1.00
O1045  O     0.40785   0.79917   0.73607   0.00000  Uiso   1.00
O1046  O     0.60119   0.85845   0.71805   0.00000  Uiso   1.00
O1047  O     0.40323   0.85627   0.77820   0.00000  Uiso   1.00
O1048  O     0.58773   0.81944   0.76767   0.00000  Uiso   1.00
O1049  O     0.47133   0.73570   0.73607   0.00000  Uiso   1.00
O1050  O     0.53771   0.92193   0.71805   0.00000  Uiso   1.00
Zn1051 Zn    0.52577   0.80756   0.78277   0.00000  Uiso   1.00
Zn1052 Zn    0.46792   0.79044   0.72257   0.00000  Uiso   1.00
Zn1053 Zn    0.54500   0.86331   0.71188   0.00000  Uiso   1.00
Zn1054 Zn    0.46131   0.87202   0.78277   0.00000  Uiso   1.00
C1055  C     0.71916   0.82661   0.75871   0.00000  Uiso   1.00
C1056  C     0.85377   0.78749   0.96189   0.00000  Uiso   1.00
C1057  C     0.87165   0.76561   0.98257   0.00000  Uiso   1.00
C1058  C     0.94770   0.84022   0.74120   0.00000  Uiso   1.00
C1059  C     0.86763   0.77698   0.52255   0.00000  Uiso   1.00
C1060  C     0.84409   0.81086   0.54233   0.00000  Uiso   1.00
C1061  C     0.88725   0.75491   0.54255   0.00000  Uiso   1.00
C1062  C     0.88384   0.76675   0.58267   0.00000  Uiso   1.00
C1063  C     0.84656   0.82643   0.58067   0.00000  Uiso   1.00
C1064  C     0.99369   0.84281   0.73758   0.00000  Uiso   1.00
C1065  C     0.67378   0.82424   0.76213   0.00000  Uiso   1.00
C1066  C     0.76933   0.88653   0.92079   0.00000  Uiso   1.00
C1067  C     0.84750   0.98881   0.73811   0.00000  Uiso   1.00
C1068  C     0.81819   0.67874   0.76206   0.00000  Uiso   1.00
C1069  C     0.82259   0.72278   0.75887   0.00000  Uiso   1.00
C1070  C     0.84350   0.94432   0.74135   0.00000  Uiso   1.00
C1071  C     0.85447   0.81223   0.64409   0.00000  Uiso   1.00
C1072  C     0.81208   0.85436   0.85613   0.00000  Uiso   1.00
C1073  C     0.80105   0.86096   0.89925   0.00000  Uiso   1.00
C1074  C     0.86343   0.80262   0.60156   0.00000  Uiso   1.00
C1075  C     0.75810   0.89089   0.96166   0.00000  Uiso   1.00
C1076  C     0.82143   0.83994   0.91904   0.00000  Uiso   1.00
C1077  C     0.80954   0.84262   0.96028   0.00000  Uiso   1.00
C1078  C     0.77802   0.86930   0.98154   0.00000  Uiso   1.00
C1079  C     0.82854   0.82005   0.98093   0.00000  Uiso   1.00
C1080  C     0.82042   0.82909   0.52228   0.00000  Uiso   1.00
C1081  C     0.78681   0.85374   0.54248   0.00000  Uiso   1.00
C1082  C     0.76614   0.87357   0.52241   0.00000  Uiso   1.00
H1083  H     0.74077   0.89246   0.53903   0.00000  Uiso   1.00
H1084  H     0.77424   0.85635   0.57403   0.00000  Uiso   1.00
H1085  H     0.85831   0.77648   0.93126   0.00000  Uiso   1.00
H1086  H     0.92244   0.70970   0.53904   0.00000  Uiso   1.00
H1087  H     0.84646   0.87665   0.61845   0.00000  Uiso   1.00
H1088  H     0.90225   0.75730   0.62809   0.00000  Uiso   1.00
H1089  H     0.68340   0.85988   0.71486   0.00000  Uiso   1.00
H1090  H     0.98472   0.80720   0.78519   0.00000  Uiso   1.00
H1091  H     0.87457   0.66941   0.71607   0.00000  Uiso   1.00
H1092  H     0.79074   0.99891   0.78419   0.00000  Uiso   1.00
H1093  H     0.88951   0.74000   0.96660   0.00000  Uiso   1.00
H1094  H     0.73363   0.91097   0.97776   0.00000  Uiso   1.00
H1095  H     0.75308   0.90304   0.90608   0.00000  Uiso   1.00
H1096  H     0.84720   0.82230   0.90160   0.00000  Uiso   1.00
O1097  O     0.83333   0.83333   0.75000   0.00000  Uiso   1.00
O1098  O     0.82360   0.79060   0.66625   0.00000  Uiso   1.00
O1099  O     0.79354   0.87313   0.83749   0.00000  Uiso   1.00
O1100  O     0.87755   0.84159   0.65877   0.00000  Uiso   1.00
O1101  O     0.83865   0.82802   0.83749   0.00000  Uiso   1.00
O1102  O     0.90885   0.72138   0.52213   0.00000  Uiso   1.00
O1103  O     0.83450   0.86577   0.59612   0.00000  Uiso   1.00
O1104  O     0.90100   0.74277   0.60216   0.00000  Uiso   1.00
O1105  O     0.84515   0.74768   0.77820   0.00000  Uiso   1.00
O1106  O     0.81247   0.92803   0.76767   0.00000  Uiso   1.00
O1107  O     0.74119   0.79917   0.73607   0.00000  Uiso   1.00
O1108  O     0.93452   0.85845   0.71805   0.00000  Uiso   1.00
O1109  O     0.73656   0.85627   0.77820   0.00000  Uiso   1.00
O1110  O     0.92106   0.81944   0.76767   0.00000  Uiso   1.00
O1111  O     0.80467   0.73570   0.73607   0.00000  Uiso   1.00
O1112  O     0.87104   0.92193   0.71805   0.00000  Uiso   1.00
Zn1113 Zn    0.85910   0.80756   0.78277   0.00000  Uiso   1.00
Zn1114 Zn    0.80125   0.79044   0.72257   0.00000  Uiso   1.00
Zn1115 Zn    0.87833   0.86331   0.71188   0.00000  Uiso   1.00
Zn1116 Zn    0.79465   0.87202   0.78277   0.00000  Uiso   1.00
loop_
_geom_bond_atom_site_label_1
_geom_bond_atom_site_label_2
_geom_bond_distance
_geom_bond_site_symmetry_2
_ccdc_geom_bond_type
C1     C11     1.438   .     S
C1     O55     1.270   .     A
C1     O53     1.270   .     A
C2     C3      1.385   .     A
C2     C25     1.410   .     A
C2     H31     1.078   .     S
C3     H39     1.083   .     S
C3     C563    1.399   .     S
C4     O54     1.283   .     A
C4     O56     1.279   .     A
C4     C10     1.455   .     S
C5     C6      1.420   .     A
C5     C7      1.409   .     A
C5     C561    1.399   1_554 S
C6     C9      1.414   .     A
C6     C26     1.429   .     A
C7     O48     1.386   .     S
C7     C8      1.409   .     A
C8     C20     1.416   .     A
C8     O50     1.386   .     S
C9     C20     1.411   .     A
C9     O49     1.385   .     S
C10    C73     1.335   .     S
C10    H97     1.088   .     S
C11    C134    1.335   1_455 S
C11    H160    1.086   1_455 S
C12    C19     1.401   .     A
C12    H41     1.083   .     S
C12    C21     1.393   .     A
C13    C16     1.451   .     S
C13    C200    1.332   .     S
C13    H223    1.088   .     S
C14    C15     1.436   .     S
C14    C385    1.332   1_545 S
C14    H410    1.086   1_545 S
C15    O51     1.278   .     A
C15    O57     1.277   .     A
C16    O58     1.271   .     A
C16    O52     1.272   .     A
C17    C20     1.461   .     S
C17    O44     1.273   .     A
C17    O46     1.274   .     A
C18    O45     1.282   .     A
C18    O47     1.285   .     A
C18    C19     1.471   .     S
C19    C22     1.399   .     A
C21    H40     1.084   .     S
C21    C24     1.403   .     A
C22    H42     1.077   .     S
C22    C23     1.407   .     A
C23    C24     1.417   .     A
C23    C25     1.423   .     A
C24    C586    1.393   .     S
C25    C584    1.421   .     S
C26    C27     1.414   .     A
C26    C583    1.421   1_554 S
C27    H30     1.079   .     S
C27    C28     1.389   .     A
C28    H29     1.084   .     S
C28    C582    1.393   1_554 S
H32    O48     0.989   .     S
H33    O49     0.988   .     S
H34    O50     0.989   .     S
H35    C134    1.088   1_455 S
H36    C73     1.086   .     S
H37    C385    1.088   1_545 S
H38    C200    1.086   .     S
O43    Zn62    1.933   .     S
O43    Zn59    1.961   .     S
O43    Zn60    1.942   .     S
O43    Zn61    1.936   .     S
O44    Zn60    1.935   .     S
O45    Zn62    1.944   .     S
O46    Zn61    1.938   .     S
O47    Zn59    1.930   .     S
O51    Zn59    1.927   .     S
O52    Zn62    1.931   .     S
O53    Zn60    1.927   .     S
O54    Zn61    1.937   .     S
O55    Zn62    1.932   .     S
O56    Zn59    1.924   .     S
O57    Zn60    1.937   .     S
O58    Zn61    1.930   .     S
C63    C73     1.438   .     S
C63    O117    1.270   .     A
C63    O115    1.270   .     A
C64    C65     1.385   .     A
C64    C87     1.410   .     A
C64    H93     1.078   .     S
C65    H101    1.083   .     S
C65    C625    1.399   .     S
C66    O116    1.283   .     A
C66    O118    1.279   .     A
C66    C72     1.455   .     S
C67    C68     1.420   .     A
C67    C69     1.409   .     A
C67    C623    1.399   1_554 S
C68    C71     1.414   .     A
C68    C88     1.429   .     A
C69    O110    1.386   .     S
C69    C70     1.409   .     A
C70    C82     1.416   .     A
C70    O112    1.386   .     S
C71    C82     1.411   .     A
C71    O111    1.385   .     S
C72    C135    1.335   .     S
C72    H159    1.088   .     S
C74    C81     1.401   .     A
C74    H103    1.083   .     S
C74    C83     1.393   .     A
C75    C78     1.451   .     S
C75    C262    1.332   .     S
C75    H285    1.088   .     S
C76    C77     1.436   .     S
C76    C447    1.332   1_545 S
C76    H472    1.086   1_545 S
C77    O113    1.278   .     A
C77    O119    1.277   .     A
C78    O120    1.271   .     A
C78    O114    1.272   .     A
C79    C82     1.461   .     S
C79    O106    1.273   .     A
C79    O108    1.274   .     A
C80    O107    1.282   .     A
C80    O109    1.285   .     A
C80    C81     1.471   .     S
C81    C84     1.399   .     A
C83    H102    1.084   .     S
C83    C86     1.403   .     A
C84    H104    1.077   .     S
C84    C85     1.407   .     A
C85    C86     1.417   .     A
C85    C87     1.423   .     A
C86    C648    1.393   .     S
C87    C646    1.421   .     S
C88    C89     1.414   .     A
C88    C645    1.421   1_554 S
C89    H92     1.079   .     S
C89    C90     1.389   .     A
C90    H91     1.084   .     S
C90    C644    1.393   1_554 S
H94    O110    0.989   .     S
H95    O111    0.988   .     S
H96    O112    0.989   .     S
H98    C135    1.086   .     S
H99    C447    1.088   1_545 S
H100   C262    1.086   .     S
O105   Zn124   1.933   .     S
O105   Zn121   1.961   .     S
O105   Zn122   1.942   .     S
O105   Zn123   1.936   .     S
O106   Zn122   1.935   .     S
O107   Zn124   1.944   .     S
O108   Zn123   1.938   .     S
O109   Zn121   1.930   .     S
O113   Zn121   1.927   .     S
O114   Zn124   1.931   .     S
O115   Zn122   1.927   .     S
O116   Zn123   1.937   .     S
O117   Zn124   1.932   .     S
O118   Zn121   1.924   .     S
O119   Zn122   1.937   .     S
O120   Zn123   1.930   .     S
C125   C135    1.438   .     S
C125   O179    1.270   .     A
C125   O177    1.270   .     A
C126   C127    1.385   .     A
C126   C149    1.410   .     A
C126   H155    1.078   .     S
C127   H163    1.083   .     S
C127   C687    1.399   .     S
C128   O178    1.283   .     A
C128   O180    1.279   .     A
C128   C134    1.455   .     S
C129   C130    1.420   .     A
C129   C131    1.409   .     A
C129   C685    1.399   1_554 S
C130   C133    1.414   .     A
C130   C150    1.429   .     A
C131   O172    1.386   .     S
C131   C132    1.409   .     A
C132   C144    1.416   .     A
C132   O174    1.386   .     S
C133   C144    1.411   .     A
C133   O173    1.385   .     S
C134   C11     1.335   1_655 S
C134   H35     1.088   1_655 S
C136   C143    1.401   .     A
C136   H165    1.083   .     S
C136   C145    1.393   .     A
C137   C140    1.451   .     S
C137   C324    1.332   .     S
C137   H347    1.088   .     S
C138   C139    1.436   .     S
C138   C509    1.332   1_545 S
C138   H534    1.086   1_545 S
C139   O175    1.278   .     A
C139   O181    1.277   .     A
C140   O182    1.271   .     A
C140   O176    1.272   .     A
C141   C144    1.461   .     S
C141   O168    1.273   .     A
C141   O170    1.274   .     A
C142   O169    1.282   .     A
C142   O171    1.285   .     A
C142   C143    1.471   .     S
C143   C146    1.399   .     A
C145   H164    1.084   .     S
C145   C148    1.403   .     A
C146   H166    1.077   .     S
C146   C147    1.407   .     A
C147   C148    1.417   .     A
C147   C149    1.423   .     A
C148   C710    1.393   .     S
C149   C708    1.421   .     S
C150   C151    1.414   .     A
C150   C707    1.421   1_554 S
C151   H154    1.079   .     S
C151   C152    1.389   .     A
C152   H153    1.084   .     S
C152   C706    1.393   1_554 S
H156   O172    0.989   .     S
H157   O173    0.988   .     S
H158   O174    0.989   .     S
H160   C11     1.086   1_655 S
H161   C509    1.088   1_545 S
H162   C324    1.086   .     S
O167   Zn186   1.933   .     S
O167   Zn183   1.961   .     S
O167   Zn184   1.942   .     S
O167   Zn185   1.936   .     S
O168   Zn184   1.935   .     S
O169   Zn186   1.944   .     S
O170   Zn185   1.938   .     S
O171   Zn183   1.930   .     S
O175   Zn183   1.927   .     S
O176   Zn186   1.931   .     S
O177   Zn184   1.927   .     S
O178   Zn185   1.937   .     S
O179   Zn186   1.932   .     S
O180   Zn183   1.924   .     S
O181   Zn184   1.937   .     S
O182   Zn185   1.930   .     S
C187   C197    1.438   .     S
C187   O241    1.270   .     A
C187   O239    1.270   .     A
C188   C189    1.385   .     A
C188   C211    1.410   .     A
C188   H217    1.078   .     S
C189   H225    1.083   .     S
C189   C749    1.399   .     S
C190   O240    1.283   .     A
C190   O242    1.279   .     A
C190   C196    1.455   .     S
C191   C192    1.420   .     A
C191   C193    1.409   .     A
C191   C747    1.399   1_554 S
C192   C195    1.414   .     A
C192   C212    1.429   .     A
C193   O234    1.386   .     S
C193   C194    1.409   .     A
C194   C206    1.416   .     A
C194   O236    1.386   .     S
C195   C206    1.411   .     A
C195   O235    1.385   .     S
C196   C259    1.335   .     S
C196   H283    1.088   .     S
C197   C320    1.335   1_455 S
C197   H346    1.086   1_455 S
C198   C205    1.401   .     A
C198   H227    1.083   .     S
C198   C207    1.393   .     A
C199   C202    1.451   .     S
C199   C386    1.332   .     S
C199   H409    1.088   .     S
C200   C201    1.436   .     S
C201   O237    1.278   .     A
C201   O243    1.277   .     A
C202   O244    1.271   .     A
C202   O238    1.272   .     A
C203   C206    1.461   .     S
C203   O230    1.273   .     A
C203   O232    1.274   .     A
C204   O231    1.282   .     A
C204   O233    1.285   .     A
C204   C205    1.471   .     S
C205   C208    1.399   .     A
C207   H226    1.084   .     S
C207   C210    1.403   .     A
C208   H228    1.077   .     S
C208   C209    1.407   .     A
C209   C210    1.417   .     A
C209   C211    1.423   .     A
C210   C772    1.393   .     S
C211   C770    1.421   .     S
C212   C213    1.414   .     A
C212   C769    1.421   1_554 S
C213   H216    1.079   .     S
C213   C214    1.389   .     A
C214   H215    1.084   .     S
C214   C768    1.393   1_554 S
H218   O234    0.989   .     S
H219   O235    0.988   .     S
H220   O236    0.989   .     S
H221   C320    1.088   1_455 S
H222   C259    1.086   .     S
H224   C386    1.086   .     S
O229   Zn248   1.933   .     S
O229   Zn245   1.961   .     S
O229   Zn246   1.942   .     S
O229   Zn247   1.936   .     S
O230   Zn246   1.935   .     S
O231   Zn248   1.944   .     S
O232   Zn247   1.938   .     S
O233   Zn245   1.930   .     S
O237   Zn245   1.927   .     S
O238   Zn248   1.931   .     S
O239   Zn246   1.927   .     S
O240   Zn247   1.937   .     S
O241   Zn248   1.932   .     S
O242   Zn245   1.924   .     S
O243   Zn246   1.937   .     S
O244   Zn247   1.930   .     S
C249   C259    1.438   .     S
C249   O303    1.270   .     A
C249   O301    1.270   .     A
C250   C251    1.385   .     A
C250   C273    1.410   .     A
C250   H279    1.078   .     S
C251   H287    1.083   .     S
C251   C811    1.399   .     S
C252   O302    1.283   .     A
C252   O304    1.279   .     A
C252   C258    1.455   .     S
C253   C254    1.420   .     A
C253   C255    1.409   .     A
C253   C809    1.399   1_554 S
C254   C257    1.414   .     A
C254   C274    1.429   .     A
C255   O296    1.386   .     S
C255   C256    1.409   .     A
C256   C268    1.416   .     A
C256   O298    1.386   .     S
C257   C268    1.411   .     A
C257   O297    1.385   .     S
C258   C321    1.335   .     S
C258   H345    1.088   .     S
C260   C267    1.401   .     A
C260   H289    1.083   .     S
C260   C269    1.393   .     A
C261   C264    1.451   .     S
C261   C448    1.332   .     S
C261   H471    1.088   .     S
C262   C263    1.436   .     S
C263   O299    1.278   .     A
C263   O305    1.277   .     A
C264   O306    1.271   .     A
C264   O300    1.272   .     A
C265   C268    1.461   .     S
C265   O292    1.273   .     A
C265   O294    1.274   .     A
C266   O293    1.282   .     A
C266   O295    1.285   .     A
C266   C267    1.471   .     S
C267   C270    1.399   .     A
C269   H288    1.084   .     S
C269   C272    1.403   .     A
C270   H290    1.077   .     S
C270   C271    1.407   .     A
C271   C272    1.417   .     A
C271   C273    1.423   .     A
C272   C834    1.393   .     S
C273   C832    1.421   .     S
C274   C275    1.414   .     A
C274   C831    1.421   1_554 S
C275   H278    1.079   .     S
C275   C276    1.389   .     A
C276   H277    1.084   .     S
C276   C830    1.393   1_554 S
H280   O296    0.989   .     S
H281   O297    0.988   .     S
H282   O298    0.989   .     S
H284   C321    1.086   .     S
H286   C448    1.086   .     S
O291   Zn310   1.933   .     S
O291   Zn307   1.961   .     S
O291   Zn308   1.942   .     S
O291   Zn309   1.936   .     S
O292   Zn308   1.935   .     S
O293   Zn310   1.944   .     S
O294   Zn309   1.938   .     S
O295   Zn307   1.930   .     S
O299   Zn307   1.927   .     S
O300   Zn310   1.931   .     S
O301   Zn308   1.927   .     S
O302   Zn309   1.937   .     S
O303   Zn310   1.932   .     S
O304   Zn307   1.924   .     S
O305   Zn308   1.937   .     S
O306   Zn309   1.930   .     S
C311   C321    1.438   .     S
C311   O365    1.270   .     A
C311   O363    1.270   .     A
C312   C313    1.385   .     A
C312   C335    1.410   .     A
C312   H341    1.078   .     S
C313   H349    1.083   .     S
C313   C873    1.399   .     S
C314   O364    1.283   .     A
C314   O366    1.279   .     A
C314   C320    1.455   .     S
C315   C316    1.420   .     A
C315   C317    1.409   .     A
C315   C871    1.399   1_554 S
C316   C319    1.414   .     A
C316   C336    1.429   .     A
C317   O358    1.386   .     S
C317   C318    1.409   .     A
C318   C330    1.416   .     A
C318   O360    1.386   .     S
C319   C330    1.411   .     A
C319   O359    1.385   .     S
C320   C197    1.335   1_655 S
C320   H221    1.088   1_655 S
C322   C329    1.401   .     A
C322   H351    1.083   .     S
C322   C331    1.393   .     A
C323   C326    1.451   .     S
C323   C510    1.332   .     S
C323   H533    1.088   .     S
C324   C325    1.436   .     S
C325   O361    1.278   .     A
C325   O367    1.277   .     A
C326   O368    1.271   .     A
C326   O362    1.272   .     A
C327   C330    1.461   .     S
C327   O354    1.273   .     A
C327   O356    1.274   .     A
C328   O355    1.282   .     A
C328   O357    1.285   .     A
C328   C329    1.471   .     S
C329   C332    1.399   .     A
C331   H350    1.084   .     S
C331   C334    1.403   .     A
C332   H352    1.077   .     S
C332   C333    1.407   .     A
C333   C334    1.417   .     A
C333   C335    1.423   .     A
C334   C896    1.393   .     S
C335   C894    1.421   .     S
C336   C337    1.414   .     A
C336   C893    1.421   1_554 S
C337   H340    1.079   .     S
C337   C338    1.389   .     A
C338   H339    1.084   .     S
C338   C892    1.393   1_554 S
H342   O358    0.989   .     S
H343   O359    0.988   .     S
H344   O360    0.989   .     S
H346   C197    1.086   1_655 S
H348   C510    1.086   .     S
O353   Zn372   1.933   .     S
O353   Zn369   1.961   .     S
O353   Zn370   1.942   .     S
O353   Zn371   1.936   .     S
O354   Zn370   1.935   .     S
O355   Zn372   1.944   .     S
O356   Zn371   1.938   .     S
O357   Zn369   1.930   .     S
O361   Zn369   1.927   .     S
O362   Zn372   1.931   .     S
O363   Zn370   1.927   .     S
O364   Zn371   1.937   .     S
O365   Zn372   1.932   .     S
O366   Zn369   1.924   .     S
O367   Zn370   1.937   .     S
O368   Zn371   1.930   .     S
C373   C383    1.438   .     S
C373   O427    1.270   .     A
C373   O425    1.270   .     A
C374   C375    1.385   .     A
C374   C397    1.410   .     A
C374   H403    1.078   .     S
C375   H411    1.083   .     S
C375   C935    1.399   .     S
C376   O426    1.283   .     A
C376   O428    1.279   .     A
C376   C382    1.455   .     S
C377   C378    1.420   .     A
C377   C379    1.409   .     A
C377   C933    1.399   1_554 S
C378   C381    1.414   .     A
C378   C398    1.429   .     A
C379   O420    1.386   .     S
C379   C380    1.409   .     A
C380   C392    1.416   .     A
C380   O422    1.386   .     S
C381   C392    1.411   .     A
C381   O421    1.385   .     S
C382   C445    1.335   .     S
C382   H469    1.088   .     S
C383   C506    1.335   1_455 S
C383   H532    1.086   1_455 S
C384   C391    1.401   .     A
C384   H413    1.083   .     S
C384   C393    1.393   .     A
C385   C388    1.451   .     S
C385   C14     1.332   1_565 S
C385   H37     1.088   1_565 S
C386   C387    1.436   .     S
C387   O423    1.278   .     A
C387   O429    1.277   .     A
C388   O430    1.271   .     A
C388   O424    1.272   .     A
C389   C392    1.461   .     S
C389   O416    1.273   .     A
C389   O418    1.274   .     A
C390   O417    1.282   .     A
C390   O419    1.285   .     A
C390   C391    1.471   .     S
C391   C394    1.399   .     A
C393   H412    1.084   .     S
C393   C396    1.403   .     A
C394   H414    1.077   .     S
C394   C395    1.407   .     A
C395   C396    1.417   .     A
C395   C397    1.423   .     A
C396   C958    1.393   .     S
C397   C956    1.421   .     S
C398   C399    1.414   .     A
C398   C955    1.421   1_554 S
C399   H402    1.079   .     S
C399   C400    1.389   .     A
C400   H401    1.084   .     S
C400   C954    1.393   1_554 S
H404   O420    0.989   .     S
H405   O421    0.988   .     S
H406   O422    0.989   .     S
H407   C506    1.088   1_455 S
H408   C445    1.086   .     S
H410   C14     1.086   1_565 S
O415   Zn434   1.933   .     S
O415   Zn431   1.961   .     S
O415   Zn432   1.942   .     S
O415   Zn433   1.936   .     S
O416   Zn432   1.935   .     S
O417   Zn434   1.944   .     S
O418   Zn433   1.938   .     S
O419   Zn431   1.930   .     S
O423   Zn431   1.927   .     S
O424   Zn434   1.931   .     S
O425   Zn432   1.927   .     S
O426   Zn433   1.937   .     S
O427   Zn434   1.932   .     S
O428   Zn431   1.924   .     S
O429   Zn432   1.937   .     S
O430   Zn433   1.930   .     S
C435   C445    1.438   .     S
C435   O489    1.270   .     A
C435   O487    1.270   .     A
C436   C437    1.385   .     A
C436   C459    1.410   .     A
C436   H465    1.078   .     S
C437   H473    1.083   .     S
C437   C997    1.399   .     S
C438   O488    1.283   .     A
C438   O490    1.279   .     A
C438   C444    1.455   .     S
C439   C440    1.420   .     A
C439   C441    1.409   .     A
C439   C995    1.399   1_554 S
C440   C443    1.414   .     A
C440   C460    1.429   .     A
C441   O482    1.386   .     S
C441   C442    1.409   .     A
C442   C454    1.416   .     A
C442   O484    1.386   .     S
C443   C454    1.411   .     A
C443   O483    1.385   .     S
C444   C507    1.335   .     S
C444   H531    1.088   .     S
C446   C453    1.401   .     A
C446   H475    1.083   .     S
C446   C455    1.393   .     A
C447   C450    1.451   .     S
C447   C76     1.332   1_565 S
C447   H99     1.088   1_565 S
C448   C449    1.436   .     S
C449   O485    1.278   .     A
C449   O491    1.277   .     A
C450   O492    1.271   .     A
C450   O486    1.272   .     A
C451   C454    1.461   .     S
C451   O478    1.273   .     A
C451   O480    1.274   .     A
C452   O479    1.282   .     A
C452   O481    1.285   .     A
C452   C453    1.471   .     S
C453   C456    1.399   .     A
C455   H474    1.084   .     S
C455   C458    1.403   .     A
C456   H476    1.077   .     S
C456   C457    1.407   .     A
C457   C458    1.417   .     A
C457   C459    1.423   .     A
C458   C1020   1.393   .     S
C459   C1018   1.421   .     S
C460   C461    1.414   .     A
C460   C1017   1.421   1_554 S
C461   H464    1.079   .     S
C461   C462    1.389   .     A
C462   H463    1.084   .     S
C462   C1016   1.393   1_554 S
H466   O482    0.989   .     S
H467   O483    0.988   .     S
H468   O484    0.989   .     S
H470   C507    1.086   .     S
H472   C76     1.086   1_565 S
O477   Zn496   1.933   .     S
O477   Zn493   1.961   .     S
O477   Zn494   1.942   .     S
O477   Zn495   1.936   .     S
O478   Zn494   1.935   .     S
O479   Zn496   1.944   .     S
O480   Zn495   1.938   .     S
O481   Zn493   1.930   .     S
O485   Zn493   1.927   .     S
O486   Zn496   1.931   .     S
O487   Zn494   1.927   .     S
O488   Zn495   1.937   .     S
O489   Zn496   1.932   .     S
O490   Zn493   1.924   .     S
O491   Zn494   1.937   .     S
O492   Zn495   1.930   .     S
C497   C507    1.438   .     S
C497   O551    1.270   .     A
C497   O549    1.270   .     A
C498   C499    1.385   .     A
C498   C521    1.410   .     A
C498   H527    1.078   .     S
C499   H535    1.083   .     S
C499   C1059   1.399   .     S
C500   O550    1.283   .     A
C500   O552    1.279   .     A
C500   C506    1.455   .     S
C501   C502    1.420   .     A
C501   C503    1.409   .     A
C501   C1057   1.399   1_554 S
C502   C505    1.414   .     A
C502   C522    1.429   .     A
C503   O544    1.386   .     S
C503   C504    1.409   .     A
C504   C516    1.416   .     A
C504   O546    1.386   .     S
C505   C516    1.411   .     A
C505   O545    1.385   .     S
C506   C383    1.335   1_655 S
C506   H407    1.088   1_655 S
C508   C515    1.401   .     A
C508   H537    1.083   .     S
C508   C517    1.393   .     A
C509   C512    1.451   .     S
C509   C138    1.332   1_565 S
C509   H161    1.088   1_565 S
C510   C511    1.436   .     S
C511   O547    1.278   .     A
C511   O553    1.277   .     A
C512   O554    1.271   .     A
C512   O548    1.272   .     A
C513   C516    1.461   .     S
C513   O540    1.273   .     A
C513   O542    1.274   .     A
C514   O541    1.282   .     A
C514   O543    1.285   .     A
C514   C515    1.471   .     S
C515   C518    1.399   .     A
C517   H536    1.084   .     S
C517   C520    1.403   .     A
C518   H538    1.077   .     S
C518   C519    1.407   .     A
C519   C520    1.417   .     A
C519   C521    1.423   .     A
C520   C1082   1.393   .     S
C521   C1080   1.421   .     S
C522   C523    1.414   .     A
C522   C1079   1.421   1_554 S
C523   H526    1.079   .     S
C523   C524    1.389   .     A
C524   H525    1.084   .     S
C524   C1078   1.393   1_554 S
H528   O544    0.989   .     S
H529   O545    0.988   .     S
H530   O546    0.989   .     S
H532   C383    1.086   1_655 S
H534   C138    1.086   1_565 S
O539   Zn558   1.933   .     S
O539   Zn555   1.961   .     S
O539   Zn556   1.942   .     S
O539   Zn557   1.936   .     S
O540   Zn556   1.935   .     S
O541   Zn558   1.944   .     S
O542   Zn557   1.938   .     S
O543   Zn555   1.930   .     S
O547   Zn555   1.927   .     S
O548   Zn558   1.931   .     S
O549   Zn556   1.927   .     S
O550   Zn557   1.937   .     S
O551   Zn558   1.932   .     S
O552   Zn555   1.924   .     S
O553   Zn556   1.937   .     S
O554   Zn557   1.930   .     S
C559   C569    1.438   .     S
C559   O613    1.270   .     A
C559   O611    1.270   .     A
C560   C561    1.385   .     A
C560   C583    1.410   .     A
C560   H589    1.078   .     S
C561   H597    1.083   .     S
C561   C5      1.399   1_556 S
C562   O612    1.283   .     A
C562   O614    1.279   .     A
C562   C568    1.455   .     S
C563   C564    1.420   .     A
C563   C565    1.409   .     A
C564   C567    1.414   .     A
C564   C584    1.429   .     A
C565   O606    1.386   .     S
C565   C566    1.409   .     A
C566   C578    1.416   .     A
C566   O608    1.386   .     S
C567   C578    1.411   .     A
C567   O607    1.385   .     S
C568   C631    1.335   .     S
C568   H655    1.088   .     S
C569   C692    1.335   1_455 S
C569   H718    1.086   1_455 S
C570   C577    1.401   .     A
C570   H599    1.083   .     S
C570   C579    1.393   .     A
C571   C574    1.451   .     S
C571   C758    1.332   .     S
C571   H781    1.088   .     S
C572   C573    1.436   .     S
C572   C943    1.332   1_545 S
C572   H968    1.086   1_545 S
C573   O609    1.278   .     A
C573   O615    1.277   .     A
C574   O616    1.271   .     A
C574   O610    1.272   .     A
C575   C578    1.461   .     S
C575   O602    1.273   .     A
C575   O604    1.274   .     A
C576   O603    1.282   .     A
C576   O605    1.285   .     A
C576   C577    1.471   .     S
C577   C580    1.399   .     A
C579   H598    1.084   .     S
C579   C582    1.403   .     A
C580   H600    1.077   .     S
C580   C581    1.407   .     A
C581   C582    1.417   .     A
C581   C583    1.423   .     A
C582   C28     1.393   1_556 S
C583   C26     1.421   1_556 S
C584   C585    1.414   .     A
C585   H588    1.079   .     S
C585   C586    1.389   .     A
C586   H587    1.084   .     S
H590   O606    0.989   .     S
H591   O607    0.988   .     S
H592   O608    0.989   .     S
H593   C692    1.088   1_455 S
H594   C631    1.086   .     S
H595   C943    1.088   1_545 S
H596   C758    1.086   .     S
O601   Zn620   1.933   .     S
O601   Zn617   1.961   .     S
O601   Zn618   1.942   .     S
O601   Zn619   1.936   .     S
O602   Zn618   1.935   .     S
O603   Zn620   1.944   .     S
O604   Zn619   1.938   .     S
O605   Zn617   1.930   .     S
O609   Zn617   1.927   .     S
O610   Zn620   1.931   .     S
O611   Zn618   1.927   .     S
O612   Zn619   1.937   .     S
O613   Zn620   1.932   .     S
O614   Zn617   1.924   .     S
O615   Zn618   1.937   .     S
O616   Zn619   1.930   .     S
C621   C631    1.438   .     S
C621   O675    1.270   .     A
C621   O673    1.270   .     A
C622   C623    1.385   .     A
C622   C645    1.410   .     A
C622   H651    1.078   .     S
C623   H659    1.083   .     S
C623   C67     1.399   1_556 S
C624   O674    1.283   .     A
C624   O676    1.279   .     A
C624   C630    1.455   .     S
C625   C626    1.420   .     A
C625   C627    1.409   .     A
C626   C629    1.414   .     A
C626   C646    1.429   .     A
C627   O668    1.386   .     S
C627   C628    1.409   .     A
C628   C640    1.416   .     A
C628   O670    1.386   .     S
C629   C640    1.411   .     A
C629   O669    1.385   .     S
C630   C693    1.335   .     S
C630   H717    1.088   .     S
C632   C639    1.401   .     A
C632   H661    1.083   .     S
C632   C641    1.393   .     A
C633   C636    1.451   .     S
C633   C820    1.332   .     S
C633   H843    1.088   .     S
C634   C635    1.436   .     S
C634   C1005   1.332   1_545 S
C634   H1030   1.086   1_545 S
C635   O671    1.278   .     A
C635   O677    1.277   .     A
C636   O678    1.271   .     A
C636   O672    1.272   .     A
C637   C640    1.461   .     S
C637   O664    1.273   .     A
C637   O666    1.274   .     A
C638   O665    1.282   .     A
C638   O667    1.285   .     A
C638   C639    1.471   .     S
C639   C642    1.399   .     A
C641   H660    1.084   .     S
C641   C644    1.403   .     A
C642   H662    1.077   .     S
C642   C643    1.407   .     A
C643   C644    1.417   .     A
C643   C645    1.423   .     A
C644   C90     1.393   1_556 S
C645   C88     1.421   1_556 S
C646   C647    1.414   .     A
C647   H650    1.079   .     S
C647   C648    1.389   .     A
C648   H649    1.084   .     S
H652   O668    0.989   .     S
H653   O669    0.988   .     S
H654   O670    0.989   .     S
H656   C693    1.086   .     S
H657   C1005   1.088   1_545 S
H658   C820    1.086   .     S
O663   Zn682   1.933   .     S
O663   Zn679   1.961   .     S
O663   Zn680   1.942   .     S
O663   Zn681   1.936   .     S
O664   Zn680   1.935   .     S
O665   Zn682   1.944   .     S
O666   Zn681   1.938   .     S
O667   Zn679   1.930   .     S
O671   Zn679   1.927   .     S
O672   Zn682   1.931   .     S
O673   Zn680   1.927   .     S
O674   Zn681   1.937   .     S
O675   Zn682   1.932   .     S
O676   Zn679   1.924   .     S
O677   Zn680   1.937   .     S
O678   Zn681   1.930   .     S
C683   C693    1.438   .     S
C683   O737    1.270   .     A
C683   O735    1.270   .     A
C684   C685    1.385   .     A
C684   C707    1.410   .     A
C684   H713    1.078   .     S
C685   H721    1.083   .     S
C685   C129    1.399   1_556 S
C686   O736    1.283   .     A
C686   O738    1.279   .     A
C686   C692    1.455   .     S
C687   C688    1.420   .     A
C687   C689    1.409   .     A
C688   C691    1.414   .     A
C688   C708    1.429   .     A
C689   O730    1.386   .     S
C689   C690    1.409   .     A
C690   C702    1.416   .     A
C690   O732    1.386   .     S
C691   C702    1.411   .     A
C691   O731    1.385   .     S
C692   C569    1.335   1_655 S
C692   H593    1.088   1_655 S
C694   C701    1.401   .     A
C694   H723    1.083   .     S
C694   C703    1.393   .     A
C695   C698    1.451   .     S
C695   C882    1.332   .     S
C695   H905    1.088   .     S
C696   C697    1.436   .     S
C696   C1067   1.332   1_545 S
C696   H1092   1.086   1_545 S
C697   O733    1.278   .     A
C697   O739    1.277   .     A
C698   O740    1.271   .     A
C698   O734    1.272   .     A
C699   C702    1.461   .     S
C699   O726    1.273   .     A
C699   O728    1.274   .     A
C700   O727    1.282   .     A
C700   O729    1.285   .     A
C700   C701    1.471   .     S
C701   C704    1.399   .     A
C703   H722    1.084   .     S
C703   C706    1.403   .     A
C704   H724    1.077   .     S
C704   C705    1.407   .     A
C705   C706    1.417   .     A
C705   C707    1.423   .     A
C706   C152    1.393   1_556 S
C707   C150    1.421   1_556 S
C708   C709    1.414   .     A
C709   H712    1.079   .     S
C709   C710    1.389   .     A
C710   H711    1.084   .     S
H714   O730    0.989   .     S
H715   O731    0.988   .     S
H716   O732    0.989   .     S
H718   C569    1.086   1_655 S
H719   C1067   1.088   1_545 S
H720   C882    1.086   .     S
O725   Zn744   1.933   .     S
O725   Zn741   1.961   .     S
O725   Zn742   1.942   .     S
O725   Zn743   1.936   .     S
O726   Zn742   1.935   .     S
O727   Zn744   1.944   .     S
O728   Zn743   1.938   .     S
O729   Zn741   1.930   .     S
O733   Zn741   1.927   .     S
O734   Zn744   1.931   .     S
O735   Zn742   1.927   .     S
O736   Zn743   1.937   .     S
O737   Zn744   1.932   .     S
O738   Zn741   1.924   .     S
O739   Zn742   1.937   .     S
O740   Zn743   1.930   .     S
C745   C755    1.438   .     S
C745   O799    1.270   .     A
C745   O797    1.270   .     A
C746   C747    1.385   .     A
C746   C769    1.410   .     A
C746   H775    1.078   .     S
C747   H783    1.083   .     S
C747   C191    1.399   1_556 S
C748   O798    1.283   .     A
C748   O800    1.279   .     A
C748   C754    1.455   .     S
C749   C750    1.420   .     A
C749   C751    1.409   .     A
C750   C753    1.414   .     A
C750   C770    1.429   .     A
C751   O792    1.386   .     S
C751   C752    1.409   .     A
C752   C764    1.416   .     A
C752   O794    1.386   .     S
C753   C764    1.411   .     A
C753   O793    1.385   .     S
C754   C817    1.335   .     S
C754   H841    1.088   .     S
C755   C878    1.335   1_455 S
C755   H904    1.086   1_455 S
C756   C763    1.401   .     A
C756   H785    1.083   .     S
C756   C765    1.393   .     A
C757   C760    1.451   .     S
C757   C944    1.332   .     S
C757   H967    1.088   .     S
C758   C759    1.436   .     S
C759   O795    1.278   .     A
C759   O801    1.277   .     A
C760   O802    1.271   .     A
C760   O796    1.272   .     A
C761   C764    1.461   .     S
C761   O788    1.273   .     A
C761   O790    1.274   .     A
C762   O789    1.282   .     A
C762   O791    1.285   .     A
C762   C763    1.471   .     S
C763   C766    1.399   .     A
C765   H784    1.084   .     S
C765   C768    1.403   .     A
C766   H786    1.077   .     S
C766   C767    1.407   .     A
C767   C768    1.417   .     A
C767   C769    1.423   .     A
C768   C214    1.393   1_556 S
C769   C212    1.421   1_556 S
C770   C771    1.414   .     A
C771   H774    1.079   .     S
C771   C772    1.389   .     A
C772   H773    1.084   .     S
H776   O792    0.989   .     S
H777   O793    0.988   .     S
H778   O794    0.989   .     S
H779   C878    1.088   1_455 S
H780   C817    1.086   .     S
H782   C944    1.086   .     S
O787   Zn806   1.933   .     S
O787   Zn803   1.961   .     S
O787   Zn804   1.942   .     S
O787   Zn805   1.936   .     S
O788   Zn804   1.935   .     S
O789   Zn806   1.944   .     S
O790   Zn805   1.938   .     S
O791   Zn803   1.930   .     S
O795   Zn803   1.927   .     S
O796   Zn806   1.931   .     S
O797   Zn804   1.927   .     S
O798   Zn805   1.937   .     S
O799   Zn806   1.932   .     S
O800   Zn803   1.924   .     S
O801   Zn804   1.937   .     S
O802   Zn805   1.930   .     S
C807   C817    1.438   .     S
C807   O861    1.270   .     A
C807   O859    1.270   .     A
C808   C809    1.385   .     A
C808   C831    1.410   .     A
C808   H837    1.078   .     S
C809   H845    1.083   .     S
C809   C253    1.399   1_556 S
C810   O860    1.283   .     A
C810   O862    1.279   .     A
C810   C816    1.455   .     S
C811   C812    1.420   .     A
C811   C813    1.409   .     A
C812   C815    1.414   .     A
C812   C832    1.429   .     A
C813   O854    1.386   .     S
C813   C814    1.409   .     A
C814   C826    1.416   .     A
C814   O856    1.386   .     S
C815   C826    1.411   .     A
C815   O855    1.385   .     S
C816   C879    1.335   .     S
C816   H903    1.088   .     S
C818   C825    1.401   .     A
C818   H847    1.083   .     S
C818   C827    1.393   .     A
C819   C822    1.451   .     S
C819   C1006   1.332   .     S
C819   H1029   1.088   .     S
C820   C821    1.436   .     S
C821   O857    1.278   .     A
C821   O863    1.277   .     A
C822   O864    1.271   .     A
C822   O858    1.272   .     A
C823   C826    1.461   .     S
C823   O850    1.273   .     A
C823   O852    1.274   .     A
C824   O851    1.282   .     A
C824   O853    1.285   .     A
C824   C825    1.471   .     S
C825   C828    1.399   .     A
C827   H846    1.084   .     S
C827   C830    1.403   .     A
C828   H848    1.077   .     S
C828   C829    1.407   .     A
C829   C830    1.417   .     A
C829   C831    1.423   .     A
C830   C276    1.393   1_556 S
C831   C274    1.421   1_556 S
C832   C833    1.414   .     A
C833   H836    1.079   .     S
C833   C834    1.389   .     A
C834   H835    1.084   .     S
H838   O854    0.989   .     S
H839   O855    0.988   .     S
H840   O856    0.989   .     S
H842   C879    1.086   .     S
H844   C1006   1.086   .     S
O849   Zn868   1.933   .     S
O849   Zn865   1.961   .     S
O849   Zn866   1.942   .     S
O849   Zn867   1.936   .     S
O850   Zn866   1.935   .     S
O851   Zn868   1.944   .     S
O852   Zn867   1.938   .     S
O853   Zn865   1.930   .     S
O857   Zn865   1.927   .     S
O858   Zn868   1.931   .     S
O859   Zn866   1.927   .     S
O860   Zn867   1.937   .     S
O861   Zn868   1.932   .     S
O862   Zn865   1.924   .     S
O863   Zn866   1.937   .     S
O864   Zn867   1.930   .     S
C869   C879    1.438   .     S
C869   O923    1.270   .     A
C869   O921    1.270   .     A
C870   C871    1.385   .     A
C870   C893    1.410   .     A
C870   H899    1.078   .     S
C871   H907    1.083   .     S
C871   C315    1.399   1_556 S
C872   O922    1.283   .     A
C872   O924    1.279   .     A
C872   C878    1.455   .     S
C873   C874    1.420   .     A
C873   C875    1.409   .     A
C874   C877    1.414   .     A
C874   C894    1.429   .     A
C875   O916    1.386   .     S
C875   C876    1.409   .     A
C876   C888    1.416   .     A
C876   O918    1.386   .     S
C877   C888    1.411   .     A
C877   O917    1.385   .     S
C878   C755    1.335   1_655 S
C878   H779    1.088   1_655 S
C880   C887    1.401   .     A
C880   H909    1.083   .     S
C880   C889    1.393   .     A
C881   C884    1.451   .     S
C881   C1068   1.332   .     S
C881   H1091   1.088   .     S
C882   C883    1.436   .     S
C883   O919    1.278   .     A
C883   O925    1.277   .     A
C884   O926    1.271   .     A
C884   O920    1.272   .     A
C885   C888    1.461   .     S
C885   O912    1.273   .     A
C885   O914    1.274   .     A
C886   O913    1.282   .     A
C886   O915    1.285   .     A
C886   C887    1.471   .     S
C887   C890    1.399   .     A
C889   H908    1.084   .     S
C889   C892    1.403   .     A
C890   H910    1.077   .     S
C890   C891    1.407   .     A
C891   C892    1.417   .     A
C891   C893    1.423   .     A
C892   C338    1.393   1_556 S
C893   C336    1.421   1_556 S
C894   C895    1.414   .     A
C895   H898    1.079   .     S
C895   C896    1.389   .     A
C896   H897    1.084   .     S
H900   O916    0.989   .     S
H901   O917    0.988   .     S
H902   O918    0.989   .     S
H904   C755    1.086   1_655 S
H906   C1068   1.086   .     S
O911   Zn930   1.933   .     S
O911   Zn927   1.961   .     S
O911   Zn928   1.942   .     S
O911   Zn929   1.936   .     S
O912   Zn928   1.935   .     S
O913   Zn930   1.944   .     S
O914   Zn929   1.938   .     S
O915   Zn927   1.930   .     S
O919   Zn927   1.927   .     S
O920   Zn930   1.931   .     S
O921   Zn928   1.927   .     S
O922   Zn929   1.937   .     S
O923   Zn930   1.932   .     S
O924   Zn927   1.924   .     S
O925   Zn928   1.937   .     S
O926   Zn929   1.930   .     S
C931   C941    1.438   .     S
C931   O985    1.270   .     A
C931   O983    1.270   .     A
C932   C933    1.385   .     A
C932   C955    1.410   .     A
C932   H961    1.078   .     S
C933   H969    1.083   .     S
C933   C377    1.399   1_556 S
C934   O984    1.283   .     A
C934   O986    1.279   .     A
C934   C940    1.455   .     S
C935   C936    1.420   .     A
C935   C937    1.409   .     A
C936   C939    1.414   .     A
C936   C956    1.429   .     A
C937   O978    1.386   .     S
C937   C938    1.409   .     A
C938   C950    1.416   .     A
C938   O980    1.386   .     S
C939   C950    1.411   .     A
C939   O979    1.385   .     S
C940   C1003   1.335   .     S
C940   H1027   1.088   .     S
C941   C1064   1.335   1_455 S
C941   H1090   1.086   1_455 S
C942   C949    1.401   .     A
C942   H971    1.083   .     S
C942   C951    1.393   .     A
C943   C946    1.451   .     S
C943   C572    1.332   1_565 S
C943   H595    1.088   1_565 S
C944   C945    1.436   .     S
C945   O981    1.278   .     A
C945   O987    1.277   .     A
C946   O988    1.271   .     A
C946   O982    1.272   .     A
C947   C950    1.461   .     S
C947   O974    1.273   .     A
C947   O976    1.274   .     A
C948   O975    1.282   .     A
C948   O977    1.285   .     A
C948   C949    1.471   .     S
C949   C952    1.399   .     A
C951   H970    1.084   .     S
C951   C954    1.403   .     A
C952   H972    1.077   .     S
C952   C953    1.407   .     A
C953   C954    1.417   .     A
C953   C955    1.423   .     A
C954   C400    1.393   1_556 S
C955   C398    1.421   1_556 S
C956   C957    1.414   .     A
C957   H960    1.079   .     S
C957   C958    1.389   .     A
C958   H959    1.084   .     S
H962   O978    0.989   .     S
H963   O979    0.988   .     S
H964   O980    0.989   .     S
H965   C1064   1.088   1_455 S
H966   C1003   1.086   .     S
H968   C572    1.086   1_565 S
O973   Zn992   1.933   .     S
O973   Zn989   1.961   .     S
O973   Zn990   1.942   .     S
O973   Zn991   1.936   .     S
O974   Zn990   1.935   .     S
O975   Zn992   1.944   .     S
O976   Zn991   1.938   .     S
O977   Zn989   1.930   .     S
O981   Zn989   1.927   .     S
O982   Zn992   1.931   .     S
O983   Zn990   1.927   .     S
O984   Zn991   1.937   .     S
O985   Zn992   1.932   .     S
O986   Zn989   1.924   .     S
O987   Zn990   1.937   .     S
O988   Zn991   1.930   .     S
C993   C1003   1.438   .     S
C993   O1047   1.270   .     A
C993   O1045   1.270   .     A
C994   C995    1.385   .     A
C994   C1017   1.410   .     A
C994   H1023   1.078   .     S
C995   H1031   1.083   .     S
C995   C439    1.399   1_556 S
C996   O1046   1.283   .     A
C996   O1048   1.279   .     A
C996   C1002   1.455   .     S
C997   C998    1.420   .     A
C997   C999    1.409   .     A
C998   C1001   1.414   .     A
C998   C1018   1.429   .     A
C999   O1040   1.386   .     S
C999   C1000   1.409   .     A
C1000  C1012   1.416   .     A
C1000  O1042   1.386   .     S
C1001  C1012   1.411   .     A
C1001  O1041   1.385   .     S
C1002  C1065   1.335   .     S
C1002  H1089   1.088   .     S
C1004  C1011   1.401   .     A
C1004  H1033   1.083   .     S
C1004  C1013   1.393   .     A
C1005  C1008   1.451   .     S
C1005  C634    1.332   1_565 S
C1005  H657    1.088   1_565 S
C1006  C1007   1.436   .     S
C1007  O1043   1.278   .     A
C1007  O1049   1.277   .     A
C1008  O1050   1.271   .     A
C1008  O1044   1.272   .     A
C1009  C1012   1.461   .     S
C1009  O1036   1.273   .     A
C1009  O1038   1.274   .     A
C1010  O1037   1.282   .     A
C1010  O1039   1.285   .     A
C1010  C1011   1.471   .     S
C1011  C1014   1.399   .     A
C1013  H1032   1.084   .     S
C1013  C1016   1.403   .     A
C1014  H1034   1.077   .     S
C1014  C1015   1.407   .     A
C1015  C1016   1.417   .     A
C1015  C1017   1.423   .     A
C1016  C462    1.393   1_556 S
C1017  C460    1.421   1_556 S
C1018  C1019   1.414   .     A
C1019  H1022   1.079   .     S
C1019  C1020   1.389   .     A
C1020  H1021   1.084   .     S
H1024  O1040   0.989   .     S
H1025  O1041   0.988   .     S
H1026  O1042   0.989   .     S
H1028  C1065   1.086   .     S
H1030  C634    1.086   1_565 S
O1035  Zn1054  1.933   .     S
O1035  Zn1051  1.961   .     S
O1035  Zn1052  1.942   .     S
O1035  Zn1053  1.936   .     S
O1036  Zn1052  1.935   .     S
O1037  Zn1054  1.944   .     S
O1038  Zn1053  1.938   .     S
O1039  Zn1051  1.930   .     S
O1043  Zn1051  1.927   .     S
O1044  Zn1054  1.931   .     S
O1045  Zn1052  1.927   .     S
O1046  Zn1053  1.937   .     S
O1047  Zn1054  1.932   .     S
O1048  Zn1051  1.924   .     S
O1049  Zn1052  1.937   .     S
O1050  Zn1053  1.930   .     S
C1055  C1065   1.438   .     S
C1055  O1109   1.270   .     A
C1055  O1107   1.270   .     A
C1056  C1057   1.385   .     A
C1056  C1079   1.410   .     A
C1056  H1085   1.078   .     S
C1057  H1093   1.083   .     S
C1057  C501    1.399   1_556 S
C1058  O1108   1.283   .     A
C1058  O1110   1.279   .     A
C1058  C1064   1.455   .     S
C1059  C1060   1.420   .     A
C1059  C1061   1.409   .     A
C1060  C1063   1.414   .     A
C1060  C1080   1.429   .     A
C1061  O1102   1.386   .     S
C1061  C1062   1.409   .     A
C1062  C1074   1.416   .     A
C1062  O1104   1.386   .     S
C1063  C1074   1.411   .     A
C1063  O1103   1.385   .     S
C1064  C941    1.335   1_655 S
C1064  H965    1.088   1_655 S
C1066  C1073   1.401   .     A
C1066  H1095   1.083   .     S
C1066  C1075   1.393   .     A
C1067  C1070   1.451   .     S
C1067  C696    1.332   1_565 S
C1067  H719    1.088   1_565 S
C1068  C1069   1.436   .     S
C1069  O1105   1.278   .     A
C1069  O1111   1.277   .     A
C1070  O1112   1.271   .     A
C1070  O1106   1.272   .     A
C1071  C1074   1.461   .     S
C1071  O1098   1.273   .     A
C1071  O1100   1.274   .     A
C1072  O1099   1.282   .     A
C1072  O1101   1.285   .     A
C1072  C1073   1.471   .     S
C1073  C1076   1.399   .     A
C1075  H1094   1.084   .     S
C1075  C1078   1.403   .     A
C1076  H1096   1.077   .     S
C1076  C1077   1.407   .     A
C1077  C1078   1.417   .     A
C1077  C1079   1.423   .     A
C1078  C524    1.393   1_556 S
C1079  C522    1.421   1_556 S
C1080  C1081   1.414   .     A
C1081  H1084   1.079   .     S
C1081  C1082   1.389   .     A
C1082  H1083   1.084   .     S
H1086  O1102   0.989   .     S
H1087  O1103   0.988   .     S
H1088  O1104   0.989   .     S
H1090  C941    1.086   1_655 S
H1092  C696    1.086   1_565 S
O1097  Zn1116  1.933   .     S
O1097  Zn1113  1.961   .     S
O1097  Zn1114  1.942   .     S
O1097  Zn1115  1.936   .     S
O1098  Zn1114  1.935   .     S
O1099  Zn1116  1.944   .     S
O1100  Zn1115  1.938   .     S
O1101  Zn1113  1.930   .     S
O1105  Zn1113  1.927   .     S
O1106  Zn1116  1.931   .     S
O1107  Zn1114  1.927   .     S
O1108  Zn1115  1.937   .     S
O1109  Zn1116  1.932   .     S
O1110  Zn1113  1.924   .     S
O1111  Zn1114  1.937   .     S
O1112  Zn1115  1.930   .     S
