data_str_m1_o1_o2_pcu_sym.74
_audit_creation_date              2020-01-03
_audit_creation_method            'Materials Studio'
_symmetry_space_group_name_H-M    'P1'
_symmetry_Int_Tables_number       1
_symmetry_cell_setting            triclinic
loop_
_symmetry_equiv_pos_as_xyz
  x,y,z
_cell_length_a                    36.5821
_cell_length_b                    36.6417
_cell_length_c                    34.5438
_cell_angle_alpha                 90.0005
_cell_angle_beta                  90.0017
_cell_angle_gamma                 89.9265
loop_
_atom_site_label
_atom_site_type_symbol
_atom_site_fract_x
_atom_site_fract_y
_atom_site_fract_z
_atom_site_U_iso_or_equiv
_atom_site_adp_type
_atom_site_occupancy
C1     C     0.21886   0.48869   0.04182   0.00000  Uiso   1.00
C2     C     0.03131   0.23898   0.45820   0.00000  Uiso   1.00
C3     C     0.34847   0.40205   0.75072   0.00000  Uiso   1.00
C4     C     0.40190   0.15168   0.24974   0.00000  Uiso   1.00
C5     C     0.09797   0.34800   0.74976   0.00000  Uiso   1.00
C6     C     0.34836   0.40238   0.25030   0.00000  Uiso   1.00
C7     C     0.15153   0.09795   0.75072   0.00000  Uiso   1.00
C8     C     0.09836   0.15238   0.75030   0.00000  Uiso   1.00
C9     C     0.40153   0.34795   0.25072   0.00000  Uiso   1.00
C10    C     0.15189   0.40170   0.74970   0.00000  Uiso   1.00
C11    C     0.34800   0.09797   0.24979   0.00000  Uiso   1.00
C12    C     0.40164   0.34762   0.75030   0.00000  Uiso   1.00
C13    C     0.26039   0.46849   0.54179   0.00000  Uiso   1.00
C14    C     0.09857   0.15216   0.25059   0.00000  Uiso   1.00
C15    C     0.34811   0.09830   0.74970   0.00000  Uiso   1.00
C16    C     0.15201   0.40202   0.24972   0.00000  Uiso   1.00
C17    C     0.25000   0.00001   0.10245   0.00000  Uiso   1.00
C18    C     0.25000   0.00001   0.89757   0.00000  Uiso   1.00
C19    C     0.00001   0.25000   0.10242   0.00000  Uiso   1.00
C20    C     0.00000   0.25000   0.89751   0.00000  Uiso   1.00
C21    C     0.00000   0.24997   0.60245   0.00000  Uiso   1.00
C22    C     0.00000   0.24995   0.39757   0.00000  Uiso   1.00
C23    C     0.25007  -0.00000   0.60242   0.00000  Uiso   1.00
C24    C     0.26204   0.03088   0.45812   0.00000  Uiso   1.00
C25    C     0.25013   0.49998   0.39751   0.00000  Uiso   1.00
C26    C     0.17307   0.38488   0.18157   0.00000  Uiso   1.00
C27    C     0.15715   0.41035   0.15070   0.00000  Uiso   1.00
C28    C     0.32528   0.11774   0.81645   0.00000  Uiso   1.00
C29    C     0.29133   0.14069   0.80831   0.00000  Uiso   1.00
C30    C     0.14020   0.19590   0.21401   0.00000  Uiso   1.00
C31    C     0.15765   0.21952   0.24561   0.00000  Uiso   1.00
C32    C     0.36499   0.30668   0.79553   0.00000  Uiso   1.00
C33    C     0.38960   0.30513   0.83140   0.00000  Uiso   1.00
C34    C     0.32668   0.11536   0.18181   0.00000  Uiso   1.00
C35    C     0.03117   0.26119   0.54181   0.00000  Uiso   1.00
C36    C     0.34254   0.09007   0.15076   0.00000  Uiso   1.00
C37    C     0.17472   0.38226   0.81645   0.00000  Uiso   1.00
C38    C     0.20867   0.35931   0.80831   0.00000  Uiso   1.00
C39    C     0.35905   0.30353   0.21608   0.00000  Uiso   1.00
C40    C     0.34224   0.28017   0.24830   0.00000  Uiso   1.00
C41    C     0.13501   0.19332   0.79553   0.00000  Uiso   1.00
C42    C     0.11040   0.19486   0.83141   0.00000  Uiso   1.00
C43    C     0.19280   0.13416   0.79615   0.00000  Uiso   1.00
C44    C     0.18573   0.12624   0.83894   0.00000  Uiso   1.00
C45    C     0.30931   0.36786   0.20139   0.00000  Uiso   1.00
C46    C     0.46869   0.26083   0.45821   0.00000  Uiso   1.00
C47    C     0.27659   0.34875   0.21990   0.00000  Uiso   1.00
C48    C     0.11549   0.32656   0.81769   0.00000  Uiso   1.00
C49    C     0.09113   0.34355   0.84886   0.00000  Uiso   1.00
C50    C     0.38634   0.17086   0.18039   0.00000  Uiso   1.00
C51    C     0.36900   0.20835   0.18557   0.00000  Uiso   1.00
C52    C     0.30720   0.36584   0.79615   0.00000  Uiso   1.00
C53    C     0.31427   0.37376   0.83894   0.00000  Uiso   1.00
C54    C     0.18922   0.13099   0.19872   0.00000  Uiso   1.00
C55    C     0.22266   0.15002   0.21582   0.00000  Uiso   1.00
C56    C     0.38451   0.17344   0.81768   0.00000  Uiso   1.00
C57    C     0.23999   0.03149   0.54174   0.00000  Uiso   1.00
C58    C     0.40888   0.15646   0.84886   0.00000  Uiso   1.00
C59    C     0.11320   0.32960   0.18005   0.00000  Uiso   1.00
C60    C     0.13032   0.29196   0.18479   0.00000  Uiso   1.00
C61    C     0.42327   0.13468   0.68172   0.00000  Uiso   1.00
C62    C     0.40733   0.15999   0.65072   0.00000  Uiso   1.00
C63    C     0.07516   0.36790   0.31633   0.00000  Uiso   1.00
C64    C     0.04142   0.39114   0.30813   0.00000  Uiso   1.00
C65    C     0.39093   0.44646   0.71603   0.00000  Uiso   1.00
C66    C     0.40774   0.46984   0.74823   0.00000  Uiso   1.00
C67    C     0.11641   0.05872   0.29824   0.00000  Uiso   1.00
C68    C     0.23843   0.46905   0.45814   0.00000  Uiso   1.00
C69    C     0.09715   0.02808   0.27625   0.00000  Uiso   1.00
C70    C     0.07673   0.36531   0.68172   0.00000  Uiso   1.00
C71    C     0.09266   0.34001   0.65072   0.00000  Uiso   1.00
C72    C     0.42465   0.13242   0.31659   0.00000  Uiso   1.00
C73    C     0.45891   0.10995   0.30843   0.00000  Uiso   1.00
C74    C     0.10907   0.05354   0.71603   0.00000  Uiso   1.00
C75    C     0.09226   0.03016   0.74823   0.00000  Uiso   1.00
C76    C     0.38504   0.44334   0.29550   0.00000  Uiso   1.00
C77    C     0.36047   0.44485   0.33141   0.00000  Uiso   1.00
C78    C     0.44287   0.38422   0.29604   0.00000  Uiso   1.00
C79    C     0.21878   0.48892   0.08209   0.00000  Uiso   1.00
C80    C     0.43588   0.37628   0.33883   0.00000  Uiso   1.00
C81    C     0.05934   0.11788   0.70134   0.00000  Uiso   1.00
C82    C     0.02661   0.09875   0.71983   0.00000  Uiso   1.00
C83    C     0.36566   0.07642   0.31764   0.00000  Uiso   1.00
C84    C     0.34129   0.09326   0.34891   0.00000  Uiso   1.00
C85    C     0.13635   0.42086   0.68035   0.00000  Uiso   1.00
C86    C     0.11901   0.45835   0.68552   0.00000  Uiso   1.00
C87    C     0.05877   0.11674   0.29791   0.00000  Uiso   1.00
C88    C     0.06450   0.13442   0.33753   0.00000  Uiso   1.00
C89    C     0.44066   0.38212   0.70134   0.00000  Uiso   1.00
C90    C     0.28141   0.48941   0.91794   0.00000  Uiso   1.00
C91    C     0.47339   0.40125   0.71983   0.00000  Uiso   1.00
C92    C     0.13460   0.42333   0.31773   0.00000  Uiso   1.00
C93    C     0.15892   0.40618   0.34885   0.00000  Uiso   1.00
C94    C     0.36365   0.07914   0.68035   0.00000  Uiso   1.00
C95    C     0.38099   0.04165   0.68552   0.00000  Uiso   1.00
C96    C     0.01001   0.21844   0.08204   0.00000  Uiso   1.00
C97    C     0.28134   0.48918   0.95821   0.00000  Uiso   1.00
C98    C     0.01150   0.28103   0.91786   0.00000  Uiso   1.00
C99    C     0.28121   0.01111   0.08210   0.00000  Uiso   1.00
C100   C     0.21858   0.01061   0.91794   0.00000  Uiso   1.00
C101   C     0.49001   0.28156   0.08204   0.00000  Uiso   1.00
C102   C     0.48851   0.21897   0.91786   0.00000  Uiso   1.00
C103   C     0.46876   0.23892   0.58209   0.00000  Uiso   1.00
C104   C     0.03138   0.23923   0.41793   0.00000  Uiso   1.00
C105   C     0.26007   0.46842   0.58206   0.00000  Uiso   1.00
C106   C     0.26174   0.03098   0.41785   0.00000  Uiso   1.00
C107   C     0.03124   0.26099   0.58208   0.00000  Uiso   1.00
C108   C     0.01026   0.21851   0.04177   0.00000  Uiso   1.00
C109   C     0.46862   0.26063   0.41794   0.00000  Uiso   1.00
C110   C     0.24016   0.03157   0.58202   0.00000  Uiso   1.00
C111   C     0.23863   0.46896   0.41788   0.00000  Uiso   1.00
C112   C     0.25000   0.00002   0.02134   0.00000  Uiso   1.00
C113   C     0.25000   0.00002   0.97870   0.00000  Uiso   1.00
C114   C     0.00001   0.25000   0.02127   0.00000  Uiso   1.00
C115   C     0.00001   0.25000   0.97863   0.00000  Uiso   1.00
C116   C     0.00001   0.24991   0.52133   0.00000  Uiso   1.00
C117   C     0.00000   0.24990   0.47870   0.00000  Uiso   1.00
C118   C     0.25022   0.49999   0.52127   0.00000  Uiso   1.00
C119   C     0.01176   0.28094   0.95813   0.00000  Uiso   1.00
C120   C     0.25025   0.49997   0.47863   0.00000  Uiso   1.00
C121   C     0.25004  -0.00000   0.35520   0.00000  Uiso   1.00
C122   C     0.25001  -0.00000   0.64478   0.00000  Uiso   1.00
C123   C     0.00000   0.24999   0.35523   0.00000  Uiso   1.00
C124   C    -0.00000   0.25000   0.64478   0.00000  Uiso   1.00
C125   C     0.00000   0.25000   0.85520   0.00000  Uiso   1.00
C126   C     0.00000   0.25000   0.14478   0.00000  Uiso   1.00
C127   C     0.25000   0.00000   0.85523   0.00000  Uiso   1.00
C128   C     0.25000   0.00000   0.14478   0.00000  Uiso   1.00
C129   C     0.17991   0.06978   0.25013   0.00000  Uiso   1.00
C130   C     0.28113   0.01135   0.04183   0.00000  Uiso   1.00
C131   C     0.32032   0.43028   0.74979   0.00000  Uiso   1.00
C132   C     0.42997   0.17998   0.24991   0.00000  Uiso   1.00
C133   C     0.06986   0.32002   0.74984   0.00000  Uiso   1.00
C134   C     0.32024   0.43037   0.25039   0.00000  Uiso   1.00
C135   C     0.17968   0.06972   0.74979   0.00000  Uiso   1.00
C136   C     0.07004   0.32001   0.24988   0.00000  Uiso   1.00
C137   C     0.43013   0.17998   0.74984   0.00000  Uiso   1.00
C138   C     0.17996   0.42999   0.74990   0.00000  Uiso   1.00
C139   C     0.31989   0.07000   0.24987   0.00000  Uiso   1.00
C140   C     0.42976   0.31963   0.75038   0.00000  Uiso   1.00
C141   C     0.21866   0.01085   0.95821   0.00000  Uiso   1.00
C142   C     0.07022   0.18019   0.24992   0.00000  Uiso   1.00
C143   C     0.32004   0.07001   0.74990   0.00000  Uiso   1.00
C144   C     0.18014   0.42997   0.24983   0.00000  Uiso   1.00
C145   C     0.07024   0.18037   0.75038   0.00000  Uiso   1.00
C146   C     0.42968   0.31972   0.24979   0.00000  Uiso   1.00
C147   C     0.14725   0.38035   0.21614   0.00000  Uiso   1.00
C148   C     0.35239   0.12067   0.78290   0.00000  Uiso   1.00
C149   C     0.13139   0.15799   0.22976   0.00000  Uiso   1.00
C150   C     0.36959   0.34224   0.77257   0.00000  Uiso   1.00
C151   C     0.35261   0.11978   0.21629   0.00000  Uiso   1.00
C152   C     0.48977   0.28149   0.04177   0.00000  Uiso   1.00
C153   C     0.14761   0.37933   0.78290   0.00000  Uiso   1.00
C154   C     0.36810   0.34166   0.23113   0.00000  Uiso   1.00
C155   C     0.13041   0.15776   0.77258   0.00000  Uiso   1.00
C156   C     0.15784   0.13038   0.77211   0.00000  Uiso   1.00
C157   C     0.34231   0.37025   0.22861   0.00000  Uiso   1.00
C158   C     0.12025   0.35215   0.78296   0.00000  Uiso   1.00
C159   C     0.38024   0.14671   0.21604   0.00000  Uiso   1.00
C160   C     0.34216   0.36962   0.77211   0.00000  Uiso   1.00
C161   C     0.15709   0.12929   0.22709   0.00000  Uiso   1.00
C162   C     0.37975   0.14785   0.78296   0.00000  Uiso   1.00
C163   C     0.48826   0.21906   0.95813   0.00000  Uiso   1.00
C164   C     0.11959   0.35345   0.21587   0.00000  Uiso   1.00
C165   C     0.39739   0.13022   0.71624   0.00000  Uiso   1.00
C166   C     0.10237   0.37069   0.28286   0.00000  Uiso   1.00
C167   C     0.38189   0.40833   0.73111   0.00000  Uiso   1.00
C168   C     0.12034   0.09298   0.27327   0.00000  Uiso   1.00
C169   C     0.10261   0.36978   0.71624   0.00000  Uiso   1.00
C170   C     0.39763   0.12933   0.28296   0.00000  Uiso   1.00
C171   C     0.11811   0.09167   0.73110   0.00000  Uiso   1.00
C172   C     0.38043   0.40778   0.27255   0.00000  Uiso   1.00
C173   C     0.40787   0.38041   0.27206   0.00000  Uiso   1.00
C174   C     0.46885   0.23865   0.54183   0.00000  Uiso   1.00
C175   C     0.09232   0.12026   0.72859   0.00000  Uiso   1.00
C176   C     0.37031   0.10211   0.28298   0.00000  Uiso   1.00
C177   C     0.13024   0.39672   0.71600   0.00000  Uiso   1.00
C178   C     0.09295   0.12021   0.27284   0.00000  Uiso   1.00
C179   C     0.40768   0.37974   0.72859   0.00000  Uiso   1.00
C180   C     0.12975   0.39784   0.28294   0.00000  Uiso   1.00
C181   C     0.36976   0.10328   0.71600   0.00000  Uiso   1.00
C182   C     0.09807   0.34834   0.24966   0.00000  Uiso   1.00
C183   C     0.40203   0.15200   0.74976   0.00000  Uiso   1.00
C184   C     0.15175   0.09772   0.24991   0.00000  Uiso   1.00
H185   H     0.19449   0.47995   0.09729   0.00000  Uiso   1.00
H186   H     0.05580   0.23056   0.40273   0.00000  Uiso   1.00
H187   H     0.21800   0.17975   0.21850   0.00000  Uiso   1.00
H188   H     0.19763   0.10322   0.18947   0.00000  Uiso   1.00
H189   H     0.18110   0.14398   0.17104   0.00000  Uiso   1.00
H190   H     0.39773   0.13000   0.85900   0.00000  Uiso   1.00
H191   H     0.43686   0.15169   0.83761   0.00000  Uiso   1.00
H192   H     0.41073   0.17528   0.87398   0.00000  Uiso   1.00
H193   H     0.39639   0.20008   0.80909   0.00000  Uiso   1.00
H194   H     0.35781   0.18129   0.83034   0.00000  Uiso   1.00
H195   H     0.16016   0.29453   0.18998   0.00000  Uiso   1.00
H196   H     0.11752   0.27730   0.20931   0.00000  Uiso   1.00
H197   H     0.26812   0.44383   0.59725   0.00000  Uiso   1.00
H198   H     0.12598   0.27570   0.15807   0.00000  Uiso   1.00
H199   H     0.08370   0.32682   0.17364   0.00000  Uiso   1.00
H200   H     0.12413   0.34169   0.15319   0.00000  Uiso   1.00
H201   H     0.40482   0.18826   0.66178   0.00000  Uiso   1.00
H202   H     0.42576   0.16036   0.62518   0.00000  Uiso   1.00
H203   H     0.37987   0.15089   0.64124   0.00000  Uiso   1.00
H204   H     0.45020   0.14567   0.69071   0.00000  Uiso   1.00
H205   H     0.43032   0.10782   0.66893   0.00000  Uiso   1.00
H206   H     0.04904   0.42019   0.30395   0.00000  Uiso   1.00
H207   H     0.02743   0.38132   0.28162   0.00000  Uiso   1.00
H208   H     0.27105   0.05509   0.40264   0.00000  Uiso   1.00
H209   H     0.02230   0.38933   0.33294   0.00000  Uiso   1.00
H210   H     0.06657   0.33941   0.32176   0.00000  Uiso   1.00
H211   H     0.08711   0.37627   0.34434   0.00000  Uiso   1.00
H212   H     0.38623   0.48150   0.76712   0.00000  Uiso   1.00
H213   H     0.42665   0.45359   0.76654   0.00000  Uiso   1.00
H214   H     0.42343   0.49274   0.73541   0.00000  Uiso   1.00
H215   H     0.41003   0.44602   0.69129   0.00000  Uiso   1.00
H216   H     0.36627   0.46019   0.70425   0.00000  Uiso   1.00
H217   H     0.06975   0.03699   0.26618   0.00000  Uiso   1.00
H218   H     0.11350   0.01955   0.25076   0.00000  Uiso   1.00
H219   H     0.05555   0.26993   0.59727   0.00000  Uiso   1.00
H220   H     0.09376   0.00410   0.29557   0.00000  Uiso   1.00
H221   H     0.14342   0.04866   0.30827   0.00000  Uiso   1.00
H222   H     0.10155   0.06442   0.32551   0.00000  Uiso   1.00
H223   H     0.09518   0.31174   0.66179   0.00000  Uiso   1.00
H224   H     0.07423   0.33963   0.62518   0.00000  Uiso   1.00
H225   H     0.12012   0.34911   0.64123   0.00000  Uiso   1.00
H226   H     0.04979   0.35433   0.69071   0.00000  Uiso   1.00
H227   H     0.06967   0.39218   0.66892   0.00000  Uiso   1.00
H228   H     0.45202   0.08061   0.30531   0.00000  Uiso   1.00
H229   H     0.47209   0.11940   0.28133   0.00000  Uiso   1.00
H230   H     0.44420   0.26930   0.40276   0.00000  Uiso   1.00
H231   H     0.47847   0.11302   0.33275   0.00000  Uiso   1.00
H232   H     0.43256   0.16107   0.32224   0.00000  Uiso   1.00
H233   H     0.41281   0.12362   0.34451   0.00000  Uiso   1.00
H234   H     0.11377   0.01850   0.76712   0.00000  Uiso   1.00
H235   H     0.07335   0.04641   0.76654   0.00000  Uiso   1.00
H236   H     0.07657   0.00727   0.73541   0.00000  Uiso   1.00
H237   H     0.08997   0.05398   0.69128   0.00000  Uiso   1.00
H238   H     0.13372   0.03981   0.70425   0.00000  Uiso   1.00
H239   H     0.37228   0.46402   0.35294   0.00000  Uiso   1.00
H240   H     0.33287   0.45517   0.32399   0.00000  Uiso   1.00
H241   H     0.23206   0.05617   0.59717   0.00000  Uiso   1.00
H242   H     0.35787   0.41755   0.34508   0.00000  Uiso   1.00
H243   H     0.41334   0.44802   0.30525   0.00000  Uiso   1.00
H244   H     0.37904   0.46713   0.27659   0.00000  Uiso   1.00
H245   H     0.41908   0.39798   0.35225   0.00000  Uiso   1.00
H246   H     0.42182   0.34961   0.34219   0.00000  Uiso   1.00
H247   H     0.46221   0.37497   0.35469   0.00000  Uiso   1.00
H248   H     0.46448   0.36514   0.28647   0.00000  Uiso   1.00
H249   H     0.45585   0.41124   0.29195   0.00000  Uiso   1.00
H250   H     0.02102   0.10992   0.74911   0.00000  Uiso   1.00
H251   H     0.00205   0.10303   0.70153   0.00000  Uiso   1.00
H252   H     0.22928   0.44485   0.40269   0.00000  Uiso   1.00
H253   H     0.03127   0.06897   0.72185   0.00000  Uiso   1.00
H254   H     0.05032   0.14541   0.69196   0.00000  Uiso   1.00
H255   H     0.06673   0.10466   0.67356   0.00000  Uiso   1.00
H256   H     0.35233   0.11975   0.35906   0.00000  Uiso   1.00
H257   H     0.31326   0.09791   0.33773   0.00000  Uiso   1.00
H258   H     0.33958   0.07439   0.37400   0.00000  Uiso   1.00
H259   H     0.35382   0.04977   0.30898   0.00000  Uiso   1.00
H260   H     0.39240   0.06861   0.33022   0.00000  Uiso   1.00
H261   H     0.08919   0.45559   0.69077   0.00000  Uiso   1.00
H262   H     0.13178   0.47283   0.71017   0.00000  Uiso   1.00
H263   H     0.19472   0.47921   0.02674   0.00000  Uiso   1.00
H264   H     0.12320   0.47489   0.65896   0.00000  Uiso   1.00
H265   H     0.16582   0.42389   0.67386   0.00000  Uiso   1.00
H266   H     0.12541   0.40889   0.65343   0.00000  Uiso   1.00
H267   H     0.08836   0.12217   0.35255   0.00000  Uiso   1.00
H268   H     0.06916   0.16419   0.33444   0.00000  Uiso   1.00
H269   H     0.03987   0.13028   0.35575   0.00000  Uiso   1.00
H270   H     0.03497   0.12972   0.28368   0.00000  Uiso   1.00
H271   H     0.05026   0.08798   0.30170   0.00000  Uiso   1.00
H272   H     0.47898   0.39008   0.74911   0.00000  Uiso   1.00
H273   H     0.49795   0.39697   0.70153   0.00000  Uiso   1.00
H274   H     0.30565   0.48010   0.97330   0.00000  Uiso   1.00
H275   H     0.46873   0.43103   0.72185   0.00000  Uiso   1.00
H276   H     0.44968   0.35459   0.69196   0.00000  Uiso   1.00
H277   H     0.43326   0.39534   0.67356   0.00000  Uiso   1.00
H278   H     0.14766   0.37975   0.35892   0.00000  Uiso   1.00
H279   H     0.18687   0.40132   0.33755   0.00000  Uiso   1.00
H280   H     0.16086   0.42493   0.37401   0.00000  Uiso   1.00
H281   H     0.14659   0.44995   0.30921   0.00000  Uiso   1.00
H282   H     0.10794   0.43125   0.33041   0.00000  Uiso   1.00
H283   H     0.41080   0.04440   0.69077   0.00000  Uiso   1.00
H284   H     0.36821   0.02717   0.71017   0.00000  Uiso   1.00
H285   H     0.01890   0.19407   0.02670   0.00000  Uiso   1.00
H286   H     0.37679   0.02511   0.65896   0.00000  Uiso   1.00
H287   H     0.33418   0.07611   0.67386   0.00000  Uiso   1.00
H288   H     0.37459   0.09111   0.65343   0.00000  Uiso   1.00
H289   H     0.30586   0.48082   0.90276   0.00000  Uiso   1.00
H290   H     0.02158   0.30491   0.97319   0.00000  Uiso   1.00
H291   H     0.30527   0.02083   0.02675   0.00000  Uiso   1.00
H292   H     0.19434   0.01993   0.97328   0.00000  Uiso   1.00
H293   H     0.48112   0.30593   0.02670   0.00000  Uiso   1.00
H294   H     0.47844   0.19509   0.97319   0.00000  Uiso   1.00
H295   H     0.44469   0.22921   0.52675   0.00000  Uiso   1.00
H296   H     0.05560   0.22982   0.47327   0.00000  Uiso   1.00
H297   H     0.26903   0.44403   0.52674   0.00000  Uiso   1.00
H298   H     0.27192   0.05484   0.47318   0.00000  Uiso   1.00
H299   H     0.05533   0.27061   0.52673   0.00000  Uiso   1.00
H300   H     0.01811   0.19386   0.09721   0.00000  Uiso   1.00
H301   H     0.44441   0.26998   0.47330   0.00000  Uiso   1.00
H302   H     0.23141   0.05595   0.52666   0.00000  Uiso   1.00
H303   H     0.22858   0.44509   0.47322   0.00000  Uiso   1.00
H304   H     0.15486   0.43861   0.16183   0.00000  Uiso   1.00
H305   H     0.17547   0.41065   0.12507   0.00000  Uiso   1.00
H306   H     0.12959   0.40145   0.14133   0.00000  Uiso   1.00
H307   H     0.20006   0.39574   0.19055   0.00000  Uiso   1.00
H308   H     0.18000   0.35804   0.16865   0.00000  Uiso   1.00
H309   H     0.29871   0.16980   0.80415   0.00000  Uiso   1.00
H310   H     0.27740   0.13076   0.78181   0.00000  Uiso   1.00
H311   H     0.02079   0.30516   0.90266   0.00000  Uiso   1.00
H312   H     0.27226   0.13869   0.83315   0.00000  Uiso   1.00
H313   H     0.31696   0.08919   0.82198   0.00000  Uiso   1.00
H314   H     0.33722   0.12628   0.84441   0.00000  Uiso   1.00
H315   H     0.13649   0.23136   0.26483   0.00000  Uiso   1.00
H316   H     0.17688   0.20339   0.26369   0.00000  Uiso   1.00
H317   H     0.17318   0.24224   0.23226   0.00000  Uiso   1.00
H318   H     0.15887   0.19514   0.18891   0.00000  Uiso   1.00
H319   H     0.11533   0.20956   0.20264   0.00000  Uiso   1.00
H320   H     0.37776   0.28603   0.85298   0.00000  Uiso   1.00
H321   H     0.41715   0.29473   0.82396   0.00000  Uiso   1.00
H322   H     0.30550   0.02009   0.09729   0.00000  Uiso   1.00
H323   H     0.39230   0.33244   0.84503   0.00000  Uiso   1.00
H324   H     0.33669   0.30202   0.80530   0.00000  Uiso   1.00
H325   H     0.37094   0.28289   0.77660   0.00000  Uiso   1.00
H326   H     0.34503   0.06178   0.16178   0.00000  Uiso   1.00
H327   H     0.32408   0.08975   0.12524   0.00000  Uiso   1.00
H328   H     0.37000   0.09914   0.14125   0.00000  Uiso   1.00
H329   H     0.29975   0.10440   0.19084   0.00000  Uiso   1.00
H330   H     0.31963   0.14224   0.16904   0.00000  Uiso   1.00
H331   H     0.20129   0.33020   0.80414   0.00000  Uiso   1.00
H332   H     0.22260   0.36924   0.78181   0.00000  Uiso   1.00
H333   H     0.19414   0.01920   0.90275   0.00000  Uiso   1.00
H334   H     0.22774   0.36131   0.83315   0.00000  Uiso   1.00
H335   H     0.18305   0.41081   0.82198   0.00000  Uiso   1.00
H336   H     0.16279   0.37372   0.84441   0.00000  Uiso   1.00
H337   H     0.36374   0.26855   0.26722   0.00000  Uiso   1.00
H338   H     0.32330   0.29643   0.26658   0.00000  Uiso   1.00
H339   H     0.32657   0.25725   0.23550   0.00000  Uiso   1.00
H340   H     0.33995   0.30396   0.19134   0.00000  Uiso   1.00
H341   H     0.38370   0.28978   0.20431   0.00000  Uiso   1.00
H342   H     0.12224   0.21397   0.85298   0.00000  Uiso   1.00
H343   H     0.08285   0.20526   0.82396   0.00000  Uiso   1.00
H344   H     0.48190   0.30615   0.09721   0.00000  Uiso   1.00
H345   H     0.10770   0.16755   0.84503   0.00000  Uiso   1.00
H346   H     0.16331   0.19798   0.80531   0.00000  Uiso   1.00
H347   H     0.12906   0.21711   0.77660   0.00000  Uiso   1.00
H348   H     0.16890   0.14794   0.85231   0.00000  Uiso   1.00
H349   H     0.17167   0.09956   0.84227   0.00000  Uiso   1.00
H350   H     0.21203   0.12494   0.85486   0.00000  Uiso   1.00
H351   H     0.21441   0.11505   0.78664   0.00000  Uiso   1.00
H352   H     0.20582   0.16117   0.79209   0.00000  Uiso   1.00
H353   H     0.27106   0.35988   0.24921   0.00000  Uiso   1.00
H354   H     0.25200   0.35309   0.20166   0.00000  Uiso   1.00
H355   H     0.47922   0.19484   0.90266   0.00000  Uiso   1.00
H356   H     0.28121   0.31896   0.22187   0.00000  Uiso   1.00
H357   H     0.30030   0.39539   0.19199   0.00000  Uiso   1.00
H358   H     0.31669   0.35463   0.17361   0.00000  Uiso   1.00
H359   H     0.10228   0.37000   0.85900   0.00000  Uiso   1.00
H360   H     0.06315   0.34832   0.83761   0.00000  Uiso   1.00
H361   H     0.08927   0.32473   0.87398   0.00000  Uiso   1.00
H362   H     0.10361   0.29992   0.80909   0.00000  Uiso   1.00
H363   H     0.14219   0.31871   0.83034   0.00000  Uiso   1.00
H364   H     0.33919   0.20559   0.19083   0.00000  Uiso   1.00
H365   H     0.38178   0.22282   0.21023   0.00000  Uiso   1.00
H366   H     0.44446   0.23000   0.59729   0.00000  Uiso   1.00
H367   H     0.37319   0.22489   0.15901   0.00000  Uiso   1.00
H368   H     0.41580   0.17388   0.17389   0.00000  Uiso   1.00
H369   H     0.37538   0.15889   0.15348   0.00000  Uiso   1.00
H370   H     0.33110   0.35205   0.85231   0.00000  Uiso   1.00
H371   H     0.32834   0.40043   0.84227   0.00000  Uiso   1.00
H372   H     0.28797   0.37506   0.85485   0.00000  Uiso   1.00
H373   H     0.28559   0.38495   0.78664   0.00000  Uiso   1.00
H374   H     0.29418   0.33883   0.79209   0.00000  Uiso   1.00
H375   H     0.22956   0.13851   0.24463   0.00000  Uiso   1.00
H376   H     0.24638   0.14602   0.19626   0.00000  Uiso   1.00
O377   O     0.25000  -0.00000   0.25000   0.00000  Uiso   1.00
O378   O     0.25000   0.46964   0.66317   0.00000  Uiso   1.00
O379   O     0.46964   0.25000   0.33683   0.00000  Uiso   1.00
O380   O     0.03036   0.25000   0.66317   0.00000  Uiso   1.00
O381   O     0.00000   0.21964   0.83683   0.00000  Uiso   1.00
O382   O    -0.00000   0.28036   0.16317   0.00000  Uiso   1.00
O383   O     0.28036  -0.00000   0.83683   0.00000  Uiso   1.00
O384   O     0.21964  -0.00000   0.16317   0.00000  Uiso   1.00
O385   O    -0.00000   0.28036   0.83683   0.00000  Uiso   1.00
O386   O     0.00000   0.21964   0.16317   0.00000  Uiso   1.00
O387   O     0.21964  -0.00000   0.83683   0.00000  Uiso   1.00
O388   O     0.25000  -0.00000   0.75000   0.00000  Uiso   1.00
O389   O     0.28036  -0.00000   0.16317   0.00000  Uiso   1.00
O390   O     0.20725   0.07307   0.27282   0.00000  Uiso   1.00
O391   O     0.29274   0.42693   0.72718   0.00000  Uiso   1.00
O392   O     0.42693   0.20725   0.27282   0.00000  Uiso   1.00
O393   O     0.07307   0.29274   0.72718   0.00000  Uiso   1.00
O394   O     0.29274   0.42693   0.27282   0.00000  Uiso   1.00
O395   O     0.20725   0.07307   0.72718   0.00000  Uiso   1.00
O396   O     0.07307   0.29274   0.27282   0.00000  Uiso   1.00
O397   O     0.42693   0.20725   0.72718   0.00000  Uiso   1.00
O398   O     0.20725   0.42693   0.72718   0.00000  Uiso   1.00
O399   O    -0.00000   0.25000   0.25000   0.00000  Uiso   1.00
O400   O     0.29274   0.07307   0.27282   0.00000  Uiso   1.00
O401   O     0.42693   0.29274   0.72718   0.00000  Uiso   1.00
O402   O     0.07307   0.20725   0.27282   0.00000  Uiso   1.00
O403   O     0.29274   0.07307   0.72718   0.00000  Uiso   1.00
O404   O     0.20725   0.42693   0.27282   0.00000  Uiso   1.00
O405   O     0.07307   0.20725   0.72718   0.00000  Uiso   1.00
O406   O     0.42693   0.29274   0.27282   0.00000  Uiso   1.00
O407   O     0.45725   0.32307   0.77282   0.00000  Uiso   1.00
O408   O     0.04274   0.17693   0.22718   0.00000  Uiso   1.00
O409   O     0.17693   0.45725   0.77282   0.00000  Uiso   1.00
O410   O    -0.00000   0.25000   0.75000   0.00000  Uiso   1.00
O411   O     0.32307   0.04274   0.22718   0.00000  Uiso   1.00
O412   O     0.04274   0.17693   0.77282   0.00000  Uiso   1.00
O413   O     0.45725   0.32307   0.22718   0.00000  Uiso   1.00
O414   O     0.32307   0.04274   0.77282   0.00000  Uiso   1.00
O415   O     0.17693   0.45725   0.22718   0.00000  Uiso   1.00
O416   O     0.45725   0.17693   0.22718   0.00000  Uiso   1.00
O417   O     0.04274   0.32307   0.77282   0.00000  Uiso   1.00
O418   O     0.17693   0.04274   0.22718   0.00000  Uiso   1.00
O419   O     0.32307   0.45725   0.77282   0.00000  Uiso   1.00
O420   O     0.04274   0.32307   0.22718   0.00000  Uiso   1.00
O421   O     0.25000   0.46964   0.33683   0.00000  Uiso   1.00
O422   O     0.45725   0.17693   0.77282   0.00000  Uiso   1.00
O423   O     0.32307   0.45725   0.22718   0.00000  Uiso   1.00
O424   O     0.17693   0.04274   0.77282   0.00000  Uiso   1.00
O425   O     0.25000   0.03036   0.66317   0.00000  Uiso   1.00
O426   O     0.03036   0.25000   0.33683   0.00000  Uiso   1.00
O427   O     0.46964   0.25000   0.66317   0.00000  Uiso   1.00
O428   O     0.25000   0.03036   0.33683   0.00000  Uiso   1.00
Zn429  Zn    0.20660  -0.00000   0.21760   0.00000  Uiso   1.00
Zn430  Zn    0.04340   0.25000   0.28240   0.00000  Uiso   1.00
Zn431  Zn    0.25000   0.45660   0.71760   0.00000  Uiso   1.00
Zn432  Zn    0.25000   0.04340   0.28240   0.00000  Uiso   1.00
Zn433  Zn    0.04340   0.25000   0.71760   0.00000  Uiso   1.00
Zn434  Zn    0.45660   0.25000   0.28240   0.00000  Uiso   1.00
Zn435  Zn    0.25000   0.04340   0.71760   0.00000  Uiso   1.00
Zn436  Zn    0.25000   0.45660   0.28240   0.00000  Uiso   1.00
Zn437  Zn    0.29340  -0.00000   0.78240   0.00000  Uiso   1.00
Zn438  Zn   -0.00000   0.20660   0.21760   0.00000  Uiso   1.00
Zn439  Zn   -0.00000   0.29340   0.78240   0.00000  Uiso   1.00
Zn440  Zn    0.29340  -0.00000   0.21760   0.00000  Uiso   1.00
Zn441  Zn    0.20660  -0.00000   0.78240   0.00000  Uiso   1.00
Zn442  Zn   -0.00000   0.29340   0.21760   0.00000  Uiso   1.00
Zn443  Zn   -0.00000   0.20660   0.78240   0.00000  Uiso   1.00
Zn444  Zn    0.45660   0.25000   0.71760   0.00000  Uiso   1.00
C445   C     0.71886   0.48869   0.04182   0.00000  Uiso   1.00
C446   C     0.53131   0.23898   0.45820   0.00000  Uiso   1.00
C447   C     0.84847   0.40205   0.75072   0.00000  Uiso   1.00
C448   C     0.90190   0.15168   0.24974   0.00000  Uiso   1.00
C449   C     0.59797   0.34800   0.74976   0.00000  Uiso   1.00
C450   C     0.84836   0.40238   0.25030   0.00000  Uiso   1.00
C451   C     0.65153   0.09795   0.75072   0.00000  Uiso   1.00
C452   C     0.59836   0.15238   0.75030   0.00000  Uiso   1.00
C453   C     0.90153   0.34795   0.25072   0.00000  Uiso   1.00
C454   C     0.65189   0.40170   0.74970   0.00000  Uiso   1.00
C455   C     0.84800   0.09797   0.24979   0.00000  Uiso   1.00
C456   C     0.90164   0.34762   0.75030   0.00000  Uiso   1.00
C457   C     0.76039   0.46849   0.54179   0.00000  Uiso   1.00
C458   C     0.59857   0.15216   0.25059   0.00000  Uiso   1.00
C459   C     0.84811   0.09830   0.74970   0.00000  Uiso   1.00
C460   C     0.65201   0.40202   0.24972   0.00000  Uiso   1.00
C461   C     0.75000   0.00001   0.10245   0.00000  Uiso   1.00
C462   C     0.75000   0.00001   0.89757   0.00000  Uiso   1.00
C463   C     0.50001   0.25000   0.10242   0.00000  Uiso   1.00
C464   C     0.50000   0.25000   0.89751   0.00000  Uiso   1.00
C465   C     0.50000   0.24997   0.60245   0.00000  Uiso   1.00
C466   C     0.50000   0.24995   0.39757   0.00000  Uiso   1.00
C467   C     0.75007  -0.00000   0.60242   0.00000  Uiso   1.00
C468   C     0.76204   0.03088   0.45812   0.00000  Uiso   1.00
C469   C     0.75013   0.49998   0.39751   0.00000  Uiso   1.00
C470   C     0.67307   0.38488   0.18157   0.00000  Uiso   1.00
C471   C     0.65715   0.41035   0.15070   0.00000  Uiso   1.00
C472   C     0.82528   0.11774   0.81645   0.00000  Uiso   1.00
C473   C     0.79133   0.14069   0.80831   0.00000  Uiso   1.00
C474   C     0.64020   0.19590   0.21401   0.00000  Uiso   1.00
C475   C     0.65765   0.21952   0.24561   0.00000  Uiso   1.00
C476   C     0.86499   0.30668   0.79553   0.00000  Uiso   1.00
C477   C     0.88960   0.30513   0.83140   0.00000  Uiso   1.00
C478   C     0.82668   0.11536   0.18181   0.00000  Uiso   1.00
C479   C     0.53117   0.26119   0.54181   0.00000  Uiso   1.00
C480   C     0.84254   0.09007   0.15076   0.00000  Uiso   1.00
C481   C     0.67472   0.38226   0.81645   0.00000  Uiso   1.00
C482   C     0.70867   0.35931   0.80831   0.00000  Uiso   1.00
C483   C     0.85905   0.30353   0.21608   0.00000  Uiso   1.00
C484   C     0.84224   0.28017   0.24830   0.00000  Uiso   1.00
C485   C     0.63501   0.19332   0.79553   0.00000  Uiso   1.00
C486   C     0.61040   0.19486   0.83141   0.00000  Uiso   1.00
C487   C     0.69280   0.13416   0.79615   0.00000  Uiso   1.00
C488   C     0.68573   0.12624   0.83894   0.00000  Uiso   1.00
C489   C     0.80931   0.36786   0.20139   0.00000  Uiso   1.00
C490   C     0.96869   0.26083   0.45821   0.00000  Uiso   1.00
C491   C     0.77659   0.34875   0.21990   0.00000  Uiso   1.00
C492   C     0.61549   0.32656   0.81769   0.00000  Uiso   1.00
C493   C     0.59113   0.34355   0.84886   0.00000  Uiso   1.00
C494   C     0.88634   0.17086   0.18039   0.00000  Uiso   1.00
C495   C     0.86900   0.20835   0.18557   0.00000  Uiso   1.00
C496   C     0.80720   0.36584   0.79615   0.00000  Uiso   1.00
C497   C     0.81427   0.37376   0.83894   0.00000  Uiso   1.00
C498   C     0.68922   0.13099   0.19872   0.00000  Uiso   1.00
C499   C     0.72266   0.15002   0.21582   0.00000  Uiso   1.00
C500   C     0.88451   0.17344   0.81768   0.00000  Uiso   1.00
C501   C     0.73999   0.03149   0.54174   0.00000  Uiso   1.00
C502   C     0.90888   0.15646   0.84886   0.00000  Uiso   1.00
C503   C     0.61320   0.32960   0.18005   0.00000  Uiso   1.00
C504   C     0.63032   0.29196   0.18479   0.00000  Uiso   1.00
C505   C     0.92327   0.13468   0.68172   0.00000  Uiso   1.00
C506   C     0.90733   0.15999   0.65072   0.00000  Uiso   1.00
C507   C     0.57516   0.36790   0.31633   0.00000  Uiso   1.00
C508   C     0.54142   0.39114   0.30813   0.00000  Uiso   1.00
C509   C     0.89093   0.44646   0.71603   0.00000  Uiso   1.00
C510   C     0.90774   0.46984   0.74823   0.00000  Uiso   1.00
C511   C     0.61641   0.05872   0.29824   0.00000  Uiso   1.00
C512   C     0.73843   0.46905   0.45814   0.00000  Uiso   1.00
C513   C     0.59715   0.02808   0.27625   0.00000  Uiso   1.00
C514   C     0.57673   0.36531   0.68172   0.00000  Uiso   1.00
C515   C     0.59266   0.34001   0.65072   0.00000  Uiso   1.00
C516   C     0.92465   0.13242   0.31659   0.00000  Uiso   1.00
C517   C     0.95891   0.10995   0.30843   0.00000  Uiso   1.00
C518   C     0.60907   0.05354   0.71603   0.00000  Uiso   1.00
C519   C     0.59226   0.03016   0.74823   0.00000  Uiso   1.00
C520   C     0.88504   0.44334   0.29550   0.00000  Uiso   1.00
C521   C     0.86047   0.44485   0.33141   0.00000  Uiso   1.00
C522   C     0.94287   0.38422   0.29604   0.00000  Uiso   1.00
C523   C     0.71878   0.48892   0.08209   0.00000  Uiso   1.00
C524   C     0.93588   0.37628   0.33883   0.00000  Uiso   1.00
C525   C     0.55934   0.11788   0.70134   0.00000  Uiso   1.00
C526   C     0.52661   0.09875   0.71983   0.00000  Uiso   1.00
C527   C     0.86566   0.07642   0.31764   0.00000  Uiso   1.00
C528   C     0.84129   0.09326   0.34891   0.00000  Uiso   1.00
C529   C     0.63635   0.42086   0.68035   0.00000  Uiso   1.00
C530   C     0.61901   0.45835   0.68552   0.00000  Uiso   1.00
C531   C     0.55877   0.11674   0.29791   0.00000  Uiso   1.00
C532   C     0.56450   0.13442   0.33753   0.00000  Uiso   1.00
C533   C     0.94066   0.38212   0.70134   0.00000  Uiso   1.00
C534   C     0.78141   0.48941   0.91794   0.00000  Uiso   1.00
C535   C     0.97339   0.40125   0.71983   0.00000  Uiso   1.00
C536   C     0.63460   0.42333   0.31773   0.00000  Uiso   1.00
C537   C     0.65892   0.40618   0.34885   0.00000  Uiso   1.00
C538   C     0.86365   0.07914   0.68035   0.00000  Uiso   1.00
C539   C     0.88099   0.04165   0.68552   0.00000  Uiso   1.00
C540   C     0.51001   0.21844   0.08204   0.00000  Uiso   1.00
C541   C     0.78134   0.48918   0.95821   0.00000  Uiso   1.00
C542   C     0.51150   0.28103   0.91786   0.00000  Uiso   1.00
C543   C     0.78121   0.01111   0.08210   0.00000  Uiso   1.00
C544   C     0.71858   0.01061   0.91794   0.00000  Uiso   1.00
C545   C     0.99001   0.28156   0.08204   0.00000  Uiso   1.00
C546   C     0.98851   0.21897   0.91786   0.00000  Uiso   1.00
C547   C     0.96876   0.23892   0.58209   0.00000  Uiso   1.00
C548   C     0.53138   0.23923   0.41793   0.00000  Uiso   1.00
C549   C     0.76007   0.46842   0.58206   0.00000  Uiso   1.00
C550   C     0.76174   0.03098   0.41785   0.00000  Uiso   1.00
C551   C     0.53124   0.26099   0.58208   0.00000  Uiso   1.00
C552   C     0.51026   0.21851   0.04177   0.00000  Uiso   1.00
C553   C     0.96862   0.26063   0.41794   0.00000  Uiso   1.00
C554   C     0.74016   0.03157   0.58202   0.00000  Uiso   1.00
C555   C     0.73863   0.46896   0.41788   0.00000  Uiso   1.00
C556   C     0.75000   0.00002   0.02134   0.00000  Uiso   1.00
C557   C     0.75000   0.00002   0.97870   0.00000  Uiso   1.00
C558   C     0.50001   0.25000   0.02127   0.00000  Uiso   1.00
C559   C     0.50001   0.25000   0.97863   0.00000  Uiso   1.00
C560   C     0.50001   0.24991   0.52133   0.00000  Uiso   1.00
C561   C     0.50000   0.24990   0.47870   0.00000  Uiso   1.00
C562   C     0.75022   0.49999   0.52127   0.00000  Uiso   1.00
C563   C     0.51176   0.28094   0.95813   0.00000  Uiso   1.00
C564   C     0.75025   0.49997   0.47863   0.00000  Uiso   1.00
C565   C     0.75004  -0.00000   0.35520   0.00000  Uiso   1.00
C566   C     0.75001  -0.00000   0.64478   0.00000  Uiso   1.00
C567   C     0.50000   0.24999   0.35523   0.00000  Uiso   1.00
C568   C     0.50000   0.25000   0.64478   0.00000  Uiso   1.00
C569   C     0.50000   0.25000   0.85520   0.00000  Uiso   1.00
C570   C     0.50000   0.25000   0.14478   0.00000  Uiso   1.00
C571   C     0.75000   0.00000   0.85523   0.00000  Uiso   1.00
C572   C     0.75000   0.00000   0.14478   0.00000  Uiso   1.00
C573   C     0.67991   0.06978   0.25013   0.00000  Uiso   1.00
C574   C     0.78113   0.01135   0.04183   0.00000  Uiso   1.00
C575   C     0.82032   0.43028   0.74979   0.00000  Uiso   1.00
C576   C     0.92997   0.17998   0.24991   0.00000  Uiso   1.00
C577   C     0.56986   0.32002   0.74984   0.00000  Uiso   1.00
C578   C     0.82024   0.43037   0.25039   0.00000  Uiso   1.00
C579   C     0.67968   0.06972   0.74979   0.00000  Uiso   1.00
C580   C     0.57004   0.32001   0.24988   0.00000  Uiso   1.00
C581   C     0.93013   0.17998   0.74984   0.00000  Uiso   1.00
C582   C     0.67996   0.42999   0.74990   0.00000  Uiso   1.00
C583   C     0.81989   0.07000   0.24987   0.00000  Uiso   1.00
C584   C     0.92976   0.31963   0.75038   0.00000  Uiso   1.00
C585   C     0.71866   0.01085   0.95821   0.00000  Uiso   1.00
C586   C     0.57022   0.18019   0.24992   0.00000  Uiso   1.00
C587   C     0.82004   0.07001   0.74990   0.00000  Uiso   1.00
C588   C     0.68014   0.42997   0.24983   0.00000  Uiso   1.00
C589   C     0.57024   0.18037   0.75038   0.00000  Uiso   1.00
C590   C     0.92968   0.31972   0.24979   0.00000  Uiso   1.00
C591   C     0.64725   0.38035   0.21614   0.00000  Uiso   1.00
C592   C     0.85239   0.12067   0.78290   0.00000  Uiso   1.00
C593   C     0.63139   0.15799   0.22976   0.00000  Uiso   1.00
C594   C     0.86959   0.34224   0.77257   0.00000  Uiso   1.00
C595   C     0.85261   0.11978   0.21629   0.00000  Uiso   1.00
C596   C     0.98977   0.28149   0.04177   0.00000  Uiso   1.00
C597   C     0.64761   0.37933   0.78290   0.00000  Uiso   1.00
C598   C     0.86810   0.34166   0.23113   0.00000  Uiso   1.00
C599   C     0.63041   0.15776   0.77258   0.00000  Uiso   1.00
C600   C     0.65784   0.13038   0.77211   0.00000  Uiso   1.00
C601   C     0.84231   0.37025   0.22861   0.00000  Uiso   1.00
C602   C     0.62025   0.35215   0.78296   0.00000  Uiso   1.00
C603   C     0.88024   0.14671   0.21604   0.00000  Uiso   1.00
C604   C     0.84216   0.36962   0.77211   0.00000  Uiso   1.00
C605   C     0.65709   0.12929   0.22709   0.00000  Uiso   1.00
C606   C     0.87975   0.14785   0.78296   0.00000  Uiso   1.00
C607   C     0.98826   0.21906   0.95813   0.00000  Uiso   1.00
C608   C     0.61959   0.35345   0.21587   0.00000  Uiso   1.00
C609   C     0.89739   0.13022   0.71624   0.00000  Uiso   1.00
C610   C     0.60237   0.37069   0.28286   0.00000  Uiso   1.00
C611   C     0.88189   0.40833   0.73111   0.00000  Uiso   1.00
C612   C     0.62034   0.09298   0.27327   0.00000  Uiso   1.00
C613   C     0.60261   0.36978   0.71624   0.00000  Uiso   1.00
C614   C     0.89763   0.12933   0.28296   0.00000  Uiso   1.00
C615   C     0.61811   0.09167   0.73110   0.00000  Uiso   1.00
C616   C     0.88043   0.40778   0.27255   0.00000  Uiso   1.00
C617   C     0.90787   0.38041   0.27206   0.00000  Uiso   1.00
C618   C     0.96885   0.23865   0.54183   0.00000  Uiso   1.00
C619   C     0.59232   0.12026   0.72859   0.00000  Uiso   1.00
C620   C     0.87031   0.10211   0.28298   0.00000  Uiso   1.00
C621   C     0.63024   0.39672   0.71600   0.00000  Uiso   1.00
C622   C     0.59295   0.12021   0.27284   0.00000  Uiso   1.00
C623   C     0.90768   0.37974   0.72859   0.00000  Uiso   1.00
C624   C     0.62975   0.39784   0.28294   0.00000  Uiso   1.00
C625   C     0.86976   0.10328   0.71600   0.00000  Uiso   1.00
C626   C     0.59807   0.34834   0.24966   0.00000  Uiso   1.00
C627   C     0.90203   0.15200   0.74976   0.00000  Uiso   1.00
C628   C     0.65175   0.09772   0.24991   0.00000  Uiso   1.00
H629   H     0.69449   0.47995   0.09729   0.00000  Uiso   1.00
H630   H     0.55580   0.23056   0.40273   0.00000  Uiso   1.00
H631   H     0.71800   0.17975   0.21850   0.00000  Uiso   1.00
H632   H     0.69763   0.10322   0.18947   0.00000  Uiso   1.00
H633   H     0.68110   0.14398   0.17104   0.00000  Uiso   1.00
H634   H     0.89773   0.13000   0.85900   0.00000  Uiso   1.00
H635   H     0.93686   0.15169   0.83761   0.00000  Uiso   1.00
H636   H     0.91073   0.17528   0.87398   0.00000  Uiso   1.00
H637   H     0.89639   0.20008   0.80909   0.00000  Uiso   1.00
H638   H     0.85781   0.18129   0.83034   0.00000  Uiso   1.00
H639   H     0.66016   0.29453   0.18998   0.00000  Uiso   1.00
H640   H     0.61752   0.27730   0.20931   0.00000  Uiso   1.00
H641   H     0.76812   0.44383   0.59725   0.00000  Uiso   1.00
H642   H     0.62598   0.27570   0.15807   0.00000  Uiso   1.00
H643   H     0.58370   0.32682   0.17364   0.00000  Uiso   1.00
H644   H     0.62413   0.34169   0.15319   0.00000  Uiso   1.00
H645   H     0.90482   0.18826   0.66178   0.00000  Uiso   1.00
H646   H     0.92576   0.16036   0.62518   0.00000  Uiso   1.00
H647   H     0.87987   0.15089   0.64124   0.00000  Uiso   1.00
H648   H     0.95020   0.14567   0.69071   0.00000  Uiso   1.00
H649   H     0.93032   0.10782   0.66893   0.00000  Uiso   1.00
H650   H     0.54904   0.42019   0.30395   0.00000  Uiso   1.00
H651   H     0.52743   0.38132   0.28162   0.00000  Uiso   1.00
H652   H     0.77105   0.05509   0.40264   0.00000  Uiso   1.00
H653   H     0.52230   0.38933   0.33294   0.00000  Uiso   1.00
H654   H     0.56657   0.33941   0.32176   0.00000  Uiso   1.00
H655   H     0.58711   0.37627   0.34434   0.00000  Uiso   1.00
H656   H     0.88623   0.48150   0.76712   0.00000  Uiso   1.00
H657   H     0.92665   0.45359   0.76654   0.00000  Uiso   1.00
H658   H     0.92343   0.49274   0.73541   0.00000  Uiso   1.00
H659   H     0.91003   0.44602   0.69129   0.00000  Uiso   1.00
H660   H     0.86627   0.46019   0.70425   0.00000  Uiso   1.00
H661   H     0.56975   0.03699   0.26618   0.00000  Uiso   1.00
H662   H     0.61350   0.01955   0.25076   0.00000  Uiso   1.00
H663   H     0.55555   0.26993   0.59727   0.00000  Uiso   1.00
H664   H     0.59376   0.00410   0.29557   0.00000  Uiso   1.00
H665   H     0.64342   0.04866   0.30827   0.00000  Uiso   1.00
H666   H     0.60155   0.06442   0.32551   0.00000  Uiso   1.00
H667   H     0.59518   0.31174   0.66179   0.00000  Uiso   1.00
H668   H     0.57423   0.33963   0.62518   0.00000  Uiso   1.00
H669   H     0.62012   0.34911   0.64123   0.00000  Uiso   1.00
H670   H     0.54979   0.35433   0.69071   0.00000  Uiso   1.00
H671   H     0.56967   0.39218   0.66892   0.00000  Uiso   1.00
H672   H     0.95202   0.08061   0.30531   0.00000  Uiso   1.00
H673   H     0.97209   0.11940   0.28133   0.00000  Uiso   1.00
H674   H     0.94420   0.26930   0.40276   0.00000  Uiso   1.00
H675   H     0.97847   0.11302   0.33275   0.00000  Uiso   1.00
H676   H     0.93256   0.16107   0.32224   0.00000  Uiso   1.00
H677   H     0.91281   0.12362   0.34451   0.00000  Uiso   1.00
H678   H     0.61377   0.01850   0.76712   0.00000  Uiso   1.00
H679   H     0.57335   0.04641   0.76654   0.00000  Uiso   1.00
H680   H     0.57657   0.00727   0.73541   0.00000  Uiso   1.00
H681   H     0.58997   0.05398   0.69128   0.00000  Uiso   1.00
H682   H     0.63372   0.03981   0.70425   0.00000  Uiso   1.00
H683   H     0.87228   0.46402   0.35294   0.00000  Uiso   1.00
H684   H     0.83287   0.45517   0.32399   0.00000  Uiso   1.00
H685   H     0.73206   0.05617   0.59717   0.00000  Uiso   1.00
H686   H     0.85787   0.41755   0.34508   0.00000  Uiso   1.00
H687   H     0.91334   0.44802   0.30525   0.00000  Uiso   1.00
H688   H     0.87904   0.46713   0.27659   0.00000  Uiso   1.00
H689   H     0.91908   0.39798   0.35225   0.00000  Uiso   1.00
H690   H     0.92182   0.34961   0.34219   0.00000  Uiso   1.00
H691   H     0.96221   0.37497   0.35469   0.00000  Uiso   1.00
H692   H     0.96448   0.36514   0.28647   0.00000  Uiso   1.00
H693   H     0.95585   0.41124   0.29195   0.00000  Uiso   1.00
H694   H     0.52102   0.10992   0.74911   0.00000  Uiso   1.00
H695   H     0.50205   0.10303   0.70153   0.00000  Uiso   1.00
H696   H     0.72928   0.44485   0.40269   0.00000  Uiso   1.00
H697   H     0.53127   0.06897   0.72185   0.00000  Uiso   1.00
H698   H     0.55032   0.14541   0.69196   0.00000  Uiso   1.00
H699   H     0.56673   0.10466   0.67356   0.00000  Uiso   1.00
H700   H     0.85233   0.11975   0.35906   0.00000  Uiso   1.00
H701   H     0.81326   0.09791   0.33773   0.00000  Uiso   1.00
H702   H     0.83958   0.07439   0.37400   0.00000  Uiso   1.00
H703   H     0.85382   0.04977   0.30898   0.00000  Uiso   1.00
H704   H     0.89240   0.06861   0.33022   0.00000  Uiso   1.00
H705   H     0.58919   0.45559   0.69077   0.00000  Uiso   1.00
H706   H     0.63178   0.47283   0.71017   0.00000  Uiso   1.00
H707   H     0.69472   0.47921   0.02674   0.00000  Uiso   1.00
H708   H     0.62320   0.47489   0.65896   0.00000  Uiso   1.00
H709   H     0.66582   0.42389   0.67386   0.00000  Uiso   1.00
H710   H     0.62541   0.40889   0.65343   0.00000  Uiso   1.00
H711   H     0.58836   0.12217   0.35255   0.00000  Uiso   1.00
H712   H     0.56916   0.16419   0.33444   0.00000  Uiso   1.00
H713   H     0.53987   0.13028   0.35575   0.00000  Uiso   1.00
H714   H     0.53497   0.12972   0.28368   0.00000  Uiso   1.00
H715   H     0.55026   0.08798   0.30170   0.00000  Uiso   1.00
H716   H     0.97898   0.39008   0.74911   0.00000  Uiso   1.00
H717   H     0.99795   0.39697   0.70153   0.00000  Uiso   1.00
H718   H     0.80565   0.48010   0.97330   0.00000  Uiso   1.00
H719   H     0.96873   0.43103   0.72185   0.00000  Uiso   1.00
H720   H     0.94968   0.35459   0.69196   0.00000  Uiso   1.00
H721   H     0.93326   0.39534   0.67356   0.00000  Uiso   1.00
H722   H     0.64766   0.37975   0.35892   0.00000  Uiso   1.00
H723   H     0.68687   0.40132   0.33755   0.00000  Uiso   1.00
H724   H     0.66086   0.42493   0.37401   0.00000  Uiso   1.00
H725   H     0.64659   0.44995   0.30921   0.00000  Uiso   1.00
H726   H     0.60794   0.43125   0.33041   0.00000  Uiso   1.00
H727   H     0.91080   0.04440   0.69077   0.00000  Uiso   1.00
H728   H     0.86821   0.02717   0.71017   0.00000  Uiso   1.00
H729   H     0.51890   0.19407   0.02670   0.00000  Uiso   1.00
H730   H     0.87679   0.02511   0.65896   0.00000  Uiso   1.00
H731   H     0.83418   0.07611   0.67386   0.00000  Uiso   1.00
H732   H     0.87459   0.09111   0.65343   0.00000  Uiso   1.00
H733   H     0.80586   0.48082   0.90276   0.00000  Uiso   1.00
H734   H     0.52158   0.30491   0.97319   0.00000  Uiso   1.00
H735   H     0.80527   0.02083   0.02675   0.00000  Uiso   1.00
H736   H     0.69434   0.01993   0.97328   0.00000  Uiso   1.00
H737   H     0.98112   0.30593   0.02670   0.00000  Uiso   1.00
H738   H     0.97844   0.19509   0.97319   0.00000  Uiso   1.00
H739   H     0.94469   0.22921   0.52675   0.00000  Uiso   1.00
H740   H     0.55560   0.22982   0.47327   0.00000  Uiso   1.00
H741   H     0.76903   0.44403   0.52674   0.00000  Uiso   1.00
H742   H     0.77192   0.05484   0.47318   0.00000  Uiso   1.00
H743   H     0.55533   0.27061   0.52673   0.00000  Uiso   1.00
H744   H     0.51811   0.19386   0.09721   0.00000  Uiso   1.00
H745   H     0.94441   0.26998   0.47330   0.00000  Uiso   1.00
H746   H     0.73141   0.05595   0.52666   0.00000  Uiso   1.00
H747   H     0.72858   0.44509   0.47322   0.00000  Uiso   1.00
H748   H     0.65486   0.43861   0.16183   0.00000  Uiso   1.00
H749   H     0.67547   0.41065   0.12507   0.00000  Uiso   1.00
H750   H     0.62959   0.40145   0.14133   0.00000  Uiso   1.00
H751   H     0.70006   0.39574   0.19055   0.00000  Uiso   1.00
H752   H     0.68000   0.35804   0.16865   0.00000  Uiso   1.00
H753   H     0.79871   0.16980   0.80415   0.00000  Uiso   1.00
H754   H     0.77740   0.13076   0.78181   0.00000  Uiso   1.00
H755   H     0.52079   0.30516   0.90266   0.00000  Uiso   1.00
H756   H     0.77226   0.13869   0.83315   0.00000  Uiso   1.00
H757   H     0.81696   0.08919   0.82198   0.00000  Uiso   1.00
H758   H     0.83722   0.12628   0.84441   0.00000  Uiso   1.00
H759   H     0.63649   0.23136   0.26483   0.00000  Uiso   1.00
H760   H     0.67688   0.20339   0.26369   0.00000  Uiso   1.00
H761   H     0.67318   0.24224   0.23226   0.00000  Uiso   1.00
H762   H     0.65887   0.19514   0.18891   0.00000  Uiso   1.00
H763   H     0.61533   0.20956   0.20264   0.00000  Uiso   1.00
H764   H     0.87776   0.28603   0.85298   0.00000  Uiso   1.00
H765   H     0.91715   0.29473   0.82396   0.00000  Uiso   1.00
H766   H     0.80550   0.02009   0.09729   0.00000  Uiso   1.00
H767   H     0.89230   0.33244   0.84503   0.00000  Uiso   1.00
H768   H     0.83669   0.30202   0.80530   0.00000  Uiso   1.00
H769   H     0.87094   0.28289   0.77660   0.00000  Uiso   1.00
H770   H     0.84503   0.06178   0.16178   0.00000  Uiso   1.00
H771   H     0.82408   0.08975   0.12524   0.00000  Uiso   1.00
H772   H     0.87000   0.09914   0.14125   0.00000  Uiso   1.00
H773   H     0.79975   0.10440   0.19084   0.00000  Uiso   1.00
H774   H     0.81963   0.14224   0.16904   0.00000  Uiso   1.00
H775   H     0.70129   0.33020   0.80414   0.00000  Uiso   1.00
H776   H     0.72260   0.36924   0.78181   0.00000  Uiso   1.00
H777   H     0.69414   0.01920   0.90275   0.00000  Uiso   1.00
H778   H     0.72774   0.36131   0.83315   0.00000  Uiso   1.00
H779   H     0.68305   0.41081   0.82198   0.00000  Uiso   1.00
H780   H     0.66279   0.37372   0.84441   0.00000  Uiso   1.00
H781   H     0.86374   0.26855   0.26722   0.00000  Uiso   1.00
H782   H     0.82330   0.29643   0.26658   0.00000  Uiso   1.00
H783   H     0.82657   0.25725   0.23550   0.00000  Uiso   1.00
H784   H     0.83995   0.30396   0.19134   0.00000  Uiso   1.00
H785   H     0.88370   0.28978   0.20431   0.00000  Uiso   1.00
H786   H     0.62224   0.21397   0.85298   0.00000  Uiso   1.00
H787   H     0.58285   0.20526   0.82396   0.00000  Uiso   1.00
H788   H     0.98190   0.30615   0.09721   0.00000  Uiso   1.00
H789   H     0.60770   0.16755   0.84503   0.00000  Uiso   1.00
H790   H     0.66331   0.19798   0.80531   0.00000  Uiso   1.00
H791   H     0.62906   0.21711   0.77660   0.00000  Uiso   1.00
H792   H     0.66890   0.14794   0.85231   0.00000  Uiso   1.00
H793   H     0.67167   0.09956   0.84227   0.00000  Uiso   1.00
H794   H     0.71203   0.12494   0.85486   0.00000  Uiso   1.00
H795   H     0.71441   0.11505   0.78664   0.00000  Uiso   1.00
H796   H     0.70582   0.16117   0.79209   0.00000  Uiso   1.00
H797   H     0.77106   0.35988   0.24921   0.00000  Uiso   1.00
H798   H     0.75200   0.35309   0.20166   0.00000  Uiso   1.00
H799   H     0.97922   0.19484   0.90266   0.00000  Uiso   1.00
H800   H     0.78121   0.31896   0.22187   0.00000  Uiso   1.00
H801   H     0.80030   0.39539   0.19199   0.00000  Uiso   1.00
H802   H     0.81669   0.35463   0.17361   0.00000  Uiso   1.00
H803   H     0.60228   0.37000   0.85900   0.00000  Uiso   1.00
H804   H     0.56315   0.34832   0.83761   0.00000  Uiso   1.00
H805   H     0.58927   0.32473   0.87398   0.00000  Uiso   1.00
H806   H     0.60361   0.29992   0.80909   0.00000  Uiso   1.00
H807   H     0.64219   0.31871   0.83034   0.00000  Uiso   1.00
H808   H     0.83919   0.20559   0.19083   0.00000  Uiso   1.00
H809   H     0.88178   0.22282   0.21023   0.00000  Uiso   1.00
H810   H     0.94446   0.23000   0.59729   0.00000  Uiso   1.00
H811   H     0.87319   0.22489   0.15901   0.00000  Uiso   1.00
H812   H     0.91580   0.17388   0.17389   0.00000  Uiso   1.00
H813   H     0.87538   0.15889   0.15348   0.00000  Uiso   1.00
H814   H     0.83110   0.35205   0.85231   0.00000  Uiso   1.00
H815   H     0.82834   0.40043   0.84227   0.00000  Uiso   1.00
H816   H     0.78797   0.37506   0.85485   0.00000  Uiso   1.00
H817   H     0.78559   0.38495   0.78664   0.00000  Uiso   1.00
H818   H     0.79418   0.33883   0.79209   0.00000  Uiso   1.00
H819   H     0.72956   0.13851   0.24463   0.00000  Uiso   1.00
H820   H     0.74638   0.14602   0.19626   0.00000  Uiso   1.00
O821   O     0.75000  -0.00000   0.25000   0.00000  Uiso   1.00
O822   O     0.75000   0.46964   0.66317   0.00000  Uiso   1.00
O823   O     0.96964   0.25000   0.33683   0.00000  Uiso   1.00
O824   O     0.53036   0.25000   0.66317   0.00000  Uiso   1.00
O825   O     0.50000   0.21964   0.83683   0.00000  Uiso   1.00
O826   O     0.50000   0.28036   0.16317   0.00000  Uiso   1.00
O827   O     0.78036  -0.00000   0.83683   0.00000  Uiso   1.00
O828   O     0.71964  -0.00000   0.16317   0.00000  Uiso   1.00
O829   O     0.50000   0.28036   0.83683   0.00000  Uiso   1.00
O830   O     0.50000   0.21964   0.16317   0.00000  Uiso   1.00
O831   O     0.71964  -0.00000   0.83683   0.00000  Uiso   1.00
O832   O     0.75000  -0.00000   0.75000   0.00000  Uiso   1.00
O833   O     0.78036  -0.00000   0.16317   0.00000  Uiso   1.00
O834   O     0.70725   0.07307   0.27282   0.00000  Uiso   1.00
O835   O     0.79274   0.42693   0.72718   0.00000  Uiso   1.00
O836   O     0.92693   0.20725   0.27282   0.00000  Uiso   1.00
O837   O     0.57307   0.29274   0.72718   0.00000  Uiso   1.00
O838   O     0.79274   0.42693   0.27282   0.00000  Uiso   1.00
O839   O     0.70725   0.07307   0.72718   0.00000  Uiso   1.00
O840   O     0.57307   0.29274   0.27282   0.00000  Uiso   1.00
O841   O     0.92693   0.20725   0.72718   0.00000  Uiso   1.00
O842   O     0.70725   0.42693   0.72718   0.00000  Uiso   1.00
O843   O     0.50000   0.25000   0.25000   0.00000  Uiso   1.00
O844   O     0.79274   0.07307   0.27282   0.00000  Uiso   1.00
O845   O     0.92693   0.29274   0.72718   0.00000  Uiso   1.00
O846   O     0.57307   0.20725   0.27282   0.00000  Uiso   1.00
O847   O     0.79274   0.07307   0.72718   0.00000  Uiso   1.00
O848   O     0.70725   0.42693   0.27282   0.00000  Uiso   1.00
O849   O     0.57307   0.20725   0.72718   0.00000  Uiso   1.00
O850   O     0.92693   0.29274   0.27282   0.00000  Uiso   1.00
O851   O     0.95725   0.32307   0.77282   0.00000  Uiso   1.00
O852   O     0.54274   0.17693   0.22718   0.00000  Uiso   1.00
O853   O     0.67693   0.45725   0.77282   0.00000  Uiso   1.00
O854   O     0.50000   0.25000   0.75000   0.00000  Uiso   1.00
O855   O     0.82307   0.04274   0.22718   0.00000  Uiso   1.00
O856   O     0.54274   0.17693   0.77282   0.00000  Uiso   1.00
O857   O     0.95725   0.32307   0.22718   0.00000  Uiso   1.00
O858   O     0.82307   0.04274   0.77282   0.00000  Uiso   1.00
O859   O     0.67693   0.45725   0.22718   0.00000  Uiso   1.00
O860   O     0.95725   0.17693   0.22718   0.00000  Uiso   1.00
O861   O     0.54274   0.32307   0.77282   0.00000  Uiso   1.00
O862   O     0.67693   0.04274   0.22718   0.00000  Uiso   1.00
O863   O     0.82307   0.45725   0.77282   0.00000  Uiso   1.00
O864   O     0.54274   0.32307   0.22718   0.00000  Uiso   1.00
O865   O     0.75000   0.46964   0.33683   0.00000  Uiso   1.00
O866   O     0.95725   0.17693   0.77282   0.00000  Uiso   1.00
O867   O     0.82307   0.45725   0.22718   0.00000  Uiso   1.00
O868   O     0.67693   0.04274   0.77282   0.00000  Uiso   1.00
O869   O     0.75000   0.03036   0.66317   0.00000  Uiso   1.00
O870   O     0.53036   0.25000   0.33683   0.00000  Uiso   1.00
O871   O     0.96964   0.25000   0.66317   0.00000  Uiso   1.00
O872   O     0.75000   0.03036   0.33683   0.00000  Uiso   1.00
Zn873  Zn    0.70660  -0.00000   0.21760   0.00000  Uiso   1.00
Zn874  Zn    0.54340   0.25000   0.28240   0.00000  Uiso   1.00
Zn875  Zn    0.75000   0.45660   0.71760   0.00000  Uiso   1.00
Zn876  Zn    0.75000   0.04340   0.28240   0.00000  Uiso   1.00
Zn877  Zn    0.54340   0.25000   0.71760   0.00000  Uiso   1.00
Zn878  Zn    0.95660   0.25000   0.28240   0.00000  Uiso   1.00
Zn879  Zn    0.75000   0.04340   0.71760   0.00000  Uiso   1.00
Zn880  Zn    0.75000   0.45660   0.28240   0.00000  Uiso   1.00
Zn881  Zn    0.79340  -0.00000   0.78240   0.00000  Uiso   1.00
Zn882  Zn    0.50000   0.20660   0.21760   0.00000  Uiso   1.00
Zn883  Zn    0.50000   0.29340   0.78240   0.00000  Uiso   1.00
Zn884  Zn    0.79340  -0.00000   0.21760   0.00000  Uiso   1.00
Zn885  Zn    0.70660  -0.00000   0.78240   0.00000  Uiso   1.00
Zn886  Zn    0.50000   0.29340   0.21760   0.00000  Uiso   1.00
Zn887  Zn    0.50000   0.20660   0.78240   0.00000  Uiso   1.00
Zn888  Zn    0.95660   0.25000   0.71760   0.00000  Uiso   1.00
C889   C     0.21886   0.98869   0.04182   0.00000  Uiso   1.00
C890   C     0.03131   0.73898   0.45820   0.00000  Uiso   1.00
C891   C     0.34847   0.90205   0.75072   0.00000  Uiso   1.00
C892   C     0.40190   0.65168   0.24974   0.00000  Uiso   1.00
C893   C     0.09797   0.84800   0.74976   0.00000  Uiso   1.00
C894   C     0.34836   0.90238   0.25030   0.00000  Uiso   1.00
C895   C     0.15153   0.59795   0.75072   0.00000  Uiso   1.00
C896   C     0.09836   0.65238   0.75030   0.00000  Uiso   1.00
C897   C     0.40153   0.84795   0.25072   0.00000  Uiso   1.00
C898   C     0.15189   0.90170   0.74970   0.00000  Uiso   1.00
C899   C     0.34800   0.59797   0.24979   0.00000  Uiso   1.00
C900   C     0.40164   0.84762   0.75030   0.00000  Uiso   1.00
C901   C     0.26039   0.96849   0.54179   0.00000  Uiso   1.00
C902   C     0.09857   0.65216   0.25059   0.00000  Uiso   1.00
C903   C     0.34811   0.59830   0.74970   0.00000  Uiso   1.00
C904   C     0.15201   0.90202   0.24972   0.00000  Uiso   1.00
C905   C     0.25000   0.50001   0.10245   0.00000  Uiso   1.00
C906   C     0.25000   0.50001   0.89757   0.00000  Uiso   1.00
C907   C     0.00001   0.75000   0.10242   0.00000  Uiso   1.00
C908   C     0.00000   0.75000   0.89751   0.00000  Uiso   1.00
C909   C     0.00000   0.74997   0.60245   0.00000  Uiso   1.00
C910   C     0.00000   0.74995   0.39757   0.00000  Uiso   1.00
C911   C     0.25007   0.50000   0.60242   0.00000  Uiso   1.00
C912   C     0.26204   0.53088   0.45812   0.00000  Uiso   1.00
C913   C     0.25013   0.99998   0.39751   0.00000  Uiso   1.00
C914   C     0.17307   0.88488   0.18157   0.00000  Uiso   1.00
C915   C     0.15715   0.91035   0.15070   0.00000  Uiso   1.00
C916   C     0.32528   0.61774   0.81645   0.00000  Uiso   1.00
C917   C     0.29133   0.64069   0.80831   0.00000  Uiso   1.00
C918   C     0.14020   0.69590   0.21401   0.00000  Uiso   1.00
C919   C     0.15765   0.71952   0.24561   0.00000  Uiso   1.00
C920   C     0.36499   0.80668   0.79553   0.00000  Uiso   1.00
C921   C     0.38960   0.80513   0.83140   0.00000  Uiso   1.00
C922   C     0.32668   0.61536   0.18181   0.00000  Uiso   1.00
C923   C     0.03117   0.76119   0.54181   0.00000  Uiso   1.00
C924   C     0.34254   0.59007   0.15076   0.00000  Uiso   1.00
C925   C     0.17472   0.88226   0.81645   0.00000  Uiso   1.00
C926   C     0.20867   0.85931   0.80831   0.00000  Uiso   1.00
C927   C     0.35905   0.80353   0.21608   0.00000  Uiso   1.00
C928   C     0.34224   0.78017   0.24830   0.00000  Uiso   1.00
C929   C     0.13501   0.69332   0.79553   0.00000  Uiso   1.00
C930   C     0.11040   0.69486   0.83141   0.00000  Uiso   1.00
C931   C     0.19280   0.63416   0.79615   0.00000  Uiso   1.00
C932   C     0.18573   0.62624   0.83894   0.00000  Uiso   1.00
C933   C     0.30931   0.86786   0.20139   0.00000  Uiso   1.00
C934   C     0.46869   0.76083   0.45821   0.00000  Uiso   1.00
C935   C     0.27659   0.84875   0.21990   0.00000  Uiso   1.00
C936   C     0.11549   0.82656   0.81769   0.00000  Uiso   1.00
C937   C     0.09113   0.84355   0.84886   0.00000  Uiso   1.00
C938   C     0.38634   0.67086   0.18039   0.00000  Uiso   1.00
C939   C     0.36900   0.70835   0.18557   0.00000  Uiso   1.00
C940   C     0.30720   0.86584   0.79615   0.00000  Uiso   1.00
C941   C     0.31427   0.87376   0.83894   0.00000  Uiso   1.00
C942   C     0.18922   0.63099   0.19872   0.00000  Uiso   1.00
C943   C     0.22266   0.65002   0.21582   0.00000  Uiso   1.00
C944   C     0.38451   0.67344   0.81768   0.00000  Uiso   1.00
C945   C     0.23999   0.53149   0.54174   0.00000  Uiso   1.00
C946   C     0.40888   0.65646   0.84886   0.00000  Uiso   1.00
C947   C     0.11320   0.82960   0.18005   0.00000  Uiso   1.00
C948   C     0.13032   0.79196   0.18479   0.00000  Uiso   1.00
C949   C     0.42327   0.63468   0.68172   0.00000  Uiso   1.00
C950   C     0.40733   0.65999   0.65072   0.00000  Uiso   1.00
C951   C     0.07516   0.86790   0.31633   0.00000  Uiso   1.00
C952   C     0.04142   0.89114   0.30813   0.00000  Uiso   1.00
C953   C     0.39093   0.94646   0.71603   0.00000  Uiso   1.00
C954   C     0.40774   0.96984   0.74823   0.00000  Uiso   1.00
C955   C     0.11641   0.55872   0.29824   0.00000  Uiso   1.00
C956   C     0.23843   0.96905   0.45814   0.00000  Uiso   1.00
C957   C     0.09715   0.52808   0.27625   0.00000  Uiso   1.00
C958   C     0.07673   0.86531   0.68172   0.00000  Uiso   1.00
C959   C     0.09266   0.84001   0.65072   0.00000  Uiso   1.00
C960   C     0.42465   0.63242   0.31659   0.00000  Uiso   1.00
C961   C     0.45891   0.60995   0.30843   0.00000  Uiso   1.00
C962   C     0.10907   0.55354   0.71603   0.00000  Uiso   1.00
C963   C     0.09226   0.53016   0.74823   0.00000  Uiso   1.00
C964   C     0.38504   0.94334   0.29550   0.00000  Uiso   1.00
C965   C     0.36047   0.94485   0.33141   0.00000  Uiso   1.00
C966   C     0.44287   0.88422   0.29604   0.00000  Uiso   1.00
C967   C     0.21878   0.98892   0.08209   0.00000  Uiso   1.00
C968   C     0.43588   0.87628   0.33883   0.00000  Uiso   1.00
C969   C     0.05934   0.61788   0.70134   0.00000  Uiso   1.00
C970   C     0.02661   0.59875   0.71983   0.00000  Uiso   1.00
C971   C     0.36566   0.57642   0.31764   0.00000  Uiso   1.00
C972   C     0.34129   0.59326   0.34891   0.00000  Uiso   1.00
C973   C     0.13635   0.92086   0.68035   0.00000  Uiso   1.00
C974   C     0.11901   0.95835   0.68552   0.00000  Uiso   1.00
C975   C     0.05877   0.61674   0.29791   0.00000  Uiso   1.00
C976   C     0.06450   0.63442   0.33753   0.00000  Uiso   1.00
C977   C     0.44066   0.88212   0.70134   0.00000  Uiso   1.00
C978   C     0.28141   0.98941   0.91794   0.00000  Uiso   1.00
C979   C     0.47339   0.90125   0.71983   0.00000  Uiso   1.00
C980   C     0.13460   0.92333   0.31773   0.00000  Uiso   1.00
C981   C     0.15892   0.90618   0.34885   0.00000  Uiso   1.00
C982   C     0.36365   0.57914   0.68035   0.00000  Uiso   1.00
C983   C     0.38099   0.54165   0.68552   0.00000  Uiso   1.00
C984   C     0.01001   0.71844   0.08204   0.00000  Uiso   1.00
C985   C     0.28134   0.98918   0.95821   0.00000  Uiso   1.00
C986   C     0.01150   0.78103   0.91786   0.00000  Uiso   1.00
C987   C     0.28121   0.51111   0.08210   0.00000  Uiso   1.00
C988   C     0.21858   0.51061   0.91794   0.00000  Uiso   1.00
C989   C     0.49001   0.78156   0.08204   0.00000  Uiso   1.00
C990   C     0.48851   0.71897   0.91786   0.00000  Uiso   1.00
C991   C     0.46876   0.73892   0.58209   0.00000  Uiso   1.00
C992   C     0.03138   0.73923   0.41793   0.00000  Uiso   1.00
C993   C     0.26007   0.96842   0.58206   0.00000  Uiso   1.00
C994   C     0.26174   0.53098   0.41785   0.00000  Uiso   1.00
C995   C     0.03124   0.76099   0.58208   0.00000  Uiso   1.00
C996   C     0.01026   0.71851   0.04177   0.00000  Uiso   1.00
C997   C     0.46862   0.76063   0.41794   0.00000  Uiso   1.00
C998   C     0.24016   0.53157   0.58202   0.00000  Uiso   1.00
C999   C     0.23863   0.96896   0.41788   0.00000  Uiso   1.00
C1000  C     0.25000   0.50002   0.02134   0.00000  Uiso   1.00
C1001  C     0.25000   0.50002   0.97870   0.00000  Uiso   1.00
C1002  C     0.00001   0.75000   0.02127   0.00000  Uiso   1.00
C1003  C     0.00001   0.75000   0.97863   0.00000  Uiso   1.00
C1004  C     0.00001   0.74991   0.52133   0.00000  Uiso   1.00
C1005  C     0.00000   0.74990   0.47870   0.00000  Uiso   1.00
C1006  C     0.25022   0.99999   0.52127   0.00000  Uiso   1.00
C1007  C     0.01176   0.78094   0.95813   0.00000  Uiso   1.00
C1008  C     0.25025   0.99997   0.47863   0.00000  Uiso   1.00
C1009  C     0.25004   0.50000   0.35520   0.00000  Uiso   1.00
C1010  C     0.25001   0.50000   0.64478   0.00000  Uiso   1.00
C1011  C     0.00000   0.74999   0.35523   0.00000  Uiso   1.00
C1012  C    -0.00000   0.75000   0.64478   0.00000  Uiso   1.00
C1013  C     0.00000   0.75000   0.85520   0.00000  Uiso   1.00
C1014  C     0.00000   0.75000   0.14478   0.00000  Uiso   1.00
C1015  C     0.25000   0.50000   0.85523   0.00000  Uiso   1.00
C1016  C     0.25000   0.50000   0.14478   0.00000  Uiso   1.00
C1017  C     0.17991   0.56978   0.25013   0.00000  Uiso   1.00
C1018  C     0.28113   0.51135   0.04183   0.00000  Uiso   1.00
C1019  C     0.32032   0.93028   0.74979   0.00000  Uiso   1.00
C1020  C     0.42997   0.67998   0.24991   0.00000  Uiso   1.00
C1021  C     0.06986   0.82002   0.74984   0.00000  Uiso   1.00
C1022  C     0.32024   0.93037   0.25039   0.00000  Uiso   1.00
C1023  C     0.17968   0.56972   0.74979   0.00000  Uiso   1.00
C1024  C     0.07004   0.82001   0.24988   0.00000  Uiso   1.00
C1025  C     0.43013   0.67998   0.74984   0.00000  Uiso   1.00
C1026  C     0.17996   0.92999   0.74990   0.00000  Uiso   1.00
C1027  C     0.31989   0.57000   0.24987   0.00000  Uiso   1.00
C1028  C     0.42976   0.81963   0.75038   0.00000  Uiso   1.00
C1029  C     0.21866   0.51085   0.95821   0.00000  Uiso   1.00
C1030  C     0.07022   0.68019   0.24992   0.00000  Uiso   1.00
C1031  C     0.32004   0.57001   0.74990   0.00000  Uiso   1.00
C1032  C     0.18014   0.92997   0.24983   0.00000  Uiso   1.00
C1033  C     0.07024   0.68037   0.75038   0.00000  Uiso   1.00
C1034  C     0.42968   0.81972   0.24979   0.00000  Uiso   1.00
C1035  C     0.14725   0.88035   0.21614   0.00000  Uiso   1.00
C1036  C     0.35239   0.62067   0.78290   0.00000  Uiso   1.00
C1037  C     0.13139   0.65799   0.22976   0.00000  Uiso   1.00
C1038  C     0.36959   0.84224   0.77257   0.00000  Uiso   1.00
C1039  C     0.35261   0.61978   0.21629   0.00000  Uiso   1.00
C1040  C     0.48977   0.78149   0.04177   0.00000  Uiso   1.00
C1041  C     0.14761   0.87933   0.78290   0.00000  Uiso   1.00
C1042  C     0.36810   0.84166   0.23113   0.00000  Uiso   1.00
C1043  C     0.13041   0.65776   0.77258   0.00000  Uiso   1.00
C1044  C     0.15784   0.63038   0.77211   0.00000  Uiso   1.00
C1045  C     0.34231   0.87025   0.22861   0.00000  Uiso   1.00
C1046  C     0.12025   0.85215   0.78296   0.00000  Uiso   1.00
C1047  C     0.38024   0.64671   0.21604   0.00000  Uiso   1.00
C1048  C     0.34216   0.86962   0.77211   0.00000  Uiso   1.00
C1049  C     0.15709   0.62929   0.22709   0.00000  Uiso   1.00
C1050  C     0.37975   0.64785   0.78296   0.00000  Uiso   1.00
C1051  C     0.48826   0.71906   0.95813   0.00000  Uiso   1.00
C1052  C     0.11959   0.85345   0.21587   0.00000  Uiso   1.00
C1053  C     0.39739   0.63022   0.71624   0.00000  Uiso   1.00
C1054  C     0.10237   0.87069   0.28286   0.00000  Uiso   1.00
C1055  C     0.38189   0.90833   0.73111   0.00000  Uiso   1.00
C1056  C     0.12034   0.59298   0.27327   0.00000  Uiso   1.00
C1057  C     0.10261   0.86978   0.71624   0.00000  Uiso   1.00
C1058  C     0.39763   0.62933   0.28296   0.00000  Uiso   1.00
C1059  C     0.11811   0.59167   0.73110   0.00000  Uiso   1.00
C1060  C     0.38043   0.90778   0.27255   0.00000  Uiso   1.00
C1061  C     0.40787   0.88041   0.27206   0.00000  Uiso   1.00
C1062  C     0.46885   0.73865   0.54183   0.00000  Uiso   1.00
C1063  C     0.09232   0.62026   0.72859   0.00000  Uiso   1.00
C1064  C     0.37031   0.60211   0.28298   0.00000  Uiso   1.00
C1065  C     0.13024   0.89672   0.71600   0.00000  Uiso   1.00
C1066  C     0.09295   0.62021   0.27284   0.00000  Uiso   1.00
C1067  C     0.40768   0.87974   0.72859   0.00000  Uiso   1.00
C1068  C     0.12975   0.89784   0.28294   0.00000  Uiso   1.00
C1069  C     0.36976   0.60328   0.71600   0.00000  Uiso   1.00
C1070  C     0.09807   0.84834   0.24966   0.00000  Uiso   1.00
C1071  C     0.40203   0.65200   0.74976   0.00000  Uiso   1.00
C1072  C     0.15175   0.59772   0.24991   0.00000  Uiso   1.00
H1073  H     0.19449   0.97995   0.09729   0.00000  Uiso   1.00
H1074  H     0.05580   0.73056   0.40273   0.00000  Uiso   1.00
H1075  H     0.21800   0.67975   0.21850   0.00000  Uiso   1.00
H1076  H     0.19763   0.60322   0.18947   0.00000  Uiso   1.00
H1077  H     0.18110   0.64398   0.17104   0.00000  Uiso   1.00
H1078  H     0.39773   0.63000   0.85900   0.00000  Uiso   1.00
H1079  H     0.43686   0.65169   0.83761   0.00000  Uiso   1.00
H1080  H     0.41073   0.67528   0.87398   0.00000  Uiso   1.00
H1081  H     0.39639   0.70008   0.80909   0.00000  Uiso   1.00
H1082  H     0.35781   0.68129   0.83034   0.00000  Uiso   1.00
H1083  H     0.16016   0.79453   0.18998   0.00000  Uiso   1.00
H1084  H     0.11752   0.77730   0.20931   0.00000  Uiso   1.00
H1085  H     0.26812   0.94383   0.59725   0.00000  Uiso   1.00
H1086  H     0.12598   0.77570   0.15807   0.00000  Uiso   1.00
H1087  H     0.08370   0.82682   0.17364   0.00000  Uiso   1.00
H1088  H     0.12413   0.84169   0.15319   0.00000  Uiso   1.00
H1089  H     0.40482   0.68826   0.66178   0.00000  Uiso   1.00
H1090  H     0.42576   0.66036   0.62518   0.00000  Uiso   1.00
H1091  H     0.37987   0.65089   0.64124   0.00000  Uiso   1.00
H1092  H     0.45020   0.64567   0.69071   0.00000  Uiso   1.00
H1093  H     0.43032   0.60782   0.66893   0.00000  Uiso   1.00
H1094  H     0.04904   0.92019   0.30395   0.00000  Uiso   1.00
H1095  H     0.02743   0.88132   0.28162   0.00000  Uiso   1.00
H1096  H     0.27105   0.55509   0.40264   0.00000  Uiso   1.00
H1097  H     0.02230   0.88933   0.33294   0.00000  Uiso   1.00
H1098  H     0.06657   0.83941   0.32176   0.00000  Uiso   1.00
H1099  H     0.08711   0.87627   0.34434   0.00000  Uiso   1.00
H1100  H     0.38623   0.98150   0.76712   0.00000  Uiso   1.00
H1101  H     0.42665   0.95359   0.76654   0.00000  Uiso   1.00
H1102  H     0.42343   0.99274   0.73541   0.00000  Uiso   1.00
H1103  H     0.41003   0.94602   0.69129   0.00000  Uiso   1.00
H1104  H     0.36627   0.96019   0.70425   0.00000  Uiso   1.00
H1105  H     0.06975   0.53699   0.26618   0.00000  Uiso   1.00
H1106  H     0.11350   0.51955   0.25076   0.00000  Uiso   1.00
H1107  H     0.05555   0.76993   0.59727   0.00000  Uiso   1.00
H1108  H     0.09376   0.50410   0.29557   0.00000  Uiso   1.00
H1109  H     0.14342   0.54866   0.30827   0.00000  Uiso   1.00
H1110  H     0.10155   0.56442   0.32551   0.00000  Uiso   1.00
H1111  H     0.09518   0.81174   0.66179   0.00000  Uiso   1.00
H1112  H     0.07423   0.83963   0.62518   0.00000  Uiso   1.00
H1113  H     0.12012   0.84911   0.64123   0.00000  Uiso   1.00
H1114  H     0.04979   0.85433   0.69071   0.00000  Uiso   1.00
H1115  H     0.06967   0.89218   0.66892   0.00000  Uiso   1.00
H1116  H     0.45202   0.58061   0.30531   0.00000  Uiso   1.00
H1117  H     0.47209   0.61940   0.28133   0.00000  Uiso   1.00
H1118  H     0.44420   0.76930   0.40276   0.00000  Uiso   1.00
H1119  H     0.47847   0.61302   0.33275   0.00000  Uiso   1.00
H1120  H     0.43256   0.66107   0.32224   0.00000  Uiso   1.00
H1121  H     0.41281   0.62362   0.34451   0.00000  Uiso   1.00
H1122  H     0.11377   0.51850   0.76712   0.00000  Uiso   1.00
H1123  H     0.07335   0.54641   0.76654   0.00000  Uiso   1.00
H1124  H     0.07657   0.50727   0.73541   0.00000  Uiso   1.00
H1125  H     0.08997   0.55398   0.69128   0.00000  Uiso   1.00
H1126  H     0.13372   0.53981   0.70425   0.00000  Uiso   1.00
H1127  H     0.37228   0.96402   0.35294   0.00000  Uiso   1.00
H1128  H     0.33287   0.95517   0.32399   0.00000  Uiso   1.00
H1129  H     0.23206   0.55617   0.59717   0.00000  Uiso   1.00
H1130  H     0.35787   0.91755   0.34508   0.00000  Uiso   1.00
H1131  H     0.41334   0.94802   0.30525   0.00000  Uiso   1.00
H1132  H     0.37904   0.96713   0.27659   0.00000  Uiso   1.00
H1133  H     0.41908   0.89798   0.35225   0.00000  Uiso   1.00
H1134  H     0.42182   0.84961   0.34219   0.00000  Uiso   1.00
H1135  H     0.46221   0.87497   0.35469   0.00000  Uiso   1.00
H1136  H     0.46448   0.86514   0.28647   0.00000  Uiso   1.00
H1137  H     0.45585   0.91124   0.29195   0.00000  Uiso   1.00
H1138  H     0.02102   0.60992   0.74911   0.00000  Uiso   1.00
H1139  H     0.00205   0.60303   0.70153   0.00000  Uiso   1.00
H1140  H     0.22928   0.94485   0.40269   0.00000  Uiso   1.00
H1141  H     0.03127   0.56897   0.72185   0.00000  Uiso   1.00
H1142  H     0.05032   0.64541   0.69196   0.00000  Uiso   1.00
H1143  H     0.06673   0.60466   0.67356   0.00000  Uiso   1.00
H1144  H     0.35233   0.61975   0.35906   0.00000  Uiso   1.00
H1145  H     0.31326   0.59791   0.33773   0.00000  Uiso   1.00
H1146  H     0.33958   0.57439   0.37400   0.00000  Uiso   1.00
H1147  H     0.35382   0.54977   0.30898   0.00000  Uiso   1.00
H1148  H     0.39240   0.56861   0.33022   0.00000  Uiso   1.00
H1149  H     0.08919   0.95559   0.69077   0.00000  Uiso   1.00
H1150  H     0.13178   0.97283   0.71017   0.00000  Uiso   1.00
H1151  H     0.19472   0.97921   0.02674   0.00000  Uiso   1.00
H1152  H     0.12320   0.97489   0.65896   0.00000  Uiso   1.00
H1153  H     0.16582   0.92389   0.67386   0.00000  Uiso   1.00
H1154  H     0.12541   0.90889   0.65343   0.00000  Uiso   1.00
H1155  H     0.08836   0.62217   0.35255   0.00000  Uiso   1.00
H1156  H     0.06916   0.66419   0.33444   0.00000  Uiso   1.00
H1157  H     0.03987   0.63028   0.35575   0.00000  Uiso   1.00
H1158  H     0.03497   0.62972   0.28368   0.00000  Uiso   1.00
H1159  H     0.05026   0.58798   0.30170   0.00000  Uiso   1.00
H1160  H     0.47898   0.89008   0.74911   0.00000  Uiso   1.00
H1161  H     0.49795   0.89697   0.70153   0.00000  Uiso   1.00
H1162  H     0.30565   0.98010   0.97330   0.00000  Uiso   1.00
H1163  H     0.46873   0.93103   0.72185   0.00000  Uiso   1.00
H1164  H     0.44968   0.85459   0.69196   0.00000  Uiso   1.00
H1165  H     0.43326   0.89534   0.67356   0.00000  Uiso   1.00
H1166  H     0.14766   0.87975   0.35892   0.00000  Uiso   1.00
H1167  H     0.18687   0.90132   0.33755   0.00000  Uiso   1.00
H1168  H     0.16086   0.92493   0.37401   0.00000  Uiso   1.00
H1169  H     0.14659   0.94995   0.30921   0.00000  Uiso   1.00
H1170  H     0.10794   0.93125   0.33041   0.00000  Uiso   1.00
H1171  H     0.41080   0.54440   0.69077   0.00000  Uiso   1.00
H1172  H     0.36821   0.52717   0.71017   0.00000  Uiso   1.00
H1173  H     0.01890   0.69407   0.02670   0.00000  Uiso   1.00
H1174  H     0.37679   0.52511   0.65896   0.00000  Uiso   1.00
H1175  H     0.33418   0.57611   0.67386   0.00000  Uiso   1.00
H1176  H     0.37459   0.59111   0.65343   0.00000  Uiso   1.00
H1177  H     0.30586   0.98082   0.90276   0.00000  Uiso   1.00
H1178  H     0.02158   0.80491   0.97319   0.00000  Uiso   1.00
H1179  H     0.30527   0.52083   0.02675   0.00000  Uiso   1.00
H1180  H     0.19434   0.51993   0.97328   0.00000  Uiso   1.00
H1181  H     0.48112   0.80593   0.02670   0.00000  Uiso   1.00
H1182  H     0.47844   0.69509   0.97319   0.00000  Uiso   1.00
H1183  H     0.44469   0.72921   0.52675   0.00000  Uiso   1.00
H1184  H     0.05560   0.72982   0.47327   0.00000  Uiso   1.00
H1185  H     0.26903   0.94403   0.52674   0.00000  Uiso   1.00
H1186  H     0.27192   0.55484   0.47318   0.00000  Uiso   1.00
H1187  H     0.05533   0.77061   0.52673   0.00000  Uiso   1.00
H1188  H     0.01811   0.69386   0.09721   0.00000  Uiso   1.00
H1189  H     0.44441   0.76998   0.47330   0.00000  Uiso   1.00
H1190  H     0.23141   0.55595   0.52666   0.00000  Uiso   1.00
H1191  H     0.22858   0.94509   0.47322   0.00000  Uiso   1.00
H1192  H     0.15486   0.93861   0.16183   0.00000  Uiso   1.00
H1193  H     0.17547   0.91065   0.12507   0.00000  Uiso   1.00
H1194  H     0.12959   0.90145   0.14133   0.00000  Uiso   1.00
H1195  H     0.20006   0.89574   0.19055   0.00000  Uiso   1.00
H1196  H     0.18000   0.85804   0.16865   0.00000  Uiso   1.00
H1197  H     0.29871   0.66980   0.80415   0.00000  Uiso   1.00
H1198  H     0.27740   0.63076   0.78181   0.00000  Uiso   1.00
H1199  H     0.02079   0.80516   0.90266   0.00000  Uiso   1.00
H1200  H     0.27226   0.63869   0.83315   0.00000  Uiso   1.00
H1201  H     0.31696   0.58919   0.82198   0.00000  Uiso   1.00
H1202  H     0.33722   0.62628   0.84441   0.00000  Uiso   1.00
H1203  H     0.13649   0.73136   0.26483   0.00000  Uiso   1.00
H1204  H     0.17688   0.70339   0.26369   0.00000  Uiso   1.00
H1205  H     0.17318   0.74224   0.23226   0.00000  Uiso   1.00
H1206  H     0.15887   0.69514   0.18891   0.00000  Uiso   1.00
H1207  H     0.11533   0.70956   0.20264   0.00000  Uiso   1.00
H1208  H     0.37776   0.78603   0.85298   0.00000  Uiso   1.00
H1209  H     0.41715   0.79473   0.82396   0.00000  Uiso   1.00
H1210  H     0.30550   0.52009   0.09729   0.00000  Uiso   1.00
H1211  H     0.39230   0.83244   0.84503   0.00000  Uiso   1.00
H1212  H     0.33669   0.80202   0.80530   0.00000  Uiso   1.00
H1213  H     0.37094   0.78289   0.77660   0.00000  Uiso   1.00
H1214  H     0.34503   0.56178   0.16178   0.00000  Uiso   1.00
H1215  H     0.32408   0.58975   0.12524   0.00000  Uiso   1.00
H1216  H     0.37000   0.59914   0.14125   0.00000  Uiso   1.00
H1217  H     0.29975   0.60440   0.19084   0.00000  Uiso   1.00
H1218  H     0.31963   0.64224   0.16904   0.00000  Uiso   1.00
H1219  H     0.20129   0.83020   0.80414   0.00000  Uiso   1.00
H1220  H     0.22260   0.86924   0.78181   0.00000  Uiso   1.00
H1221  H     0.19414   0.51920   0.90275   0.00000  Uiso   1.00
H1222  H     0.22774   0.86131   0.83315   0.00000  Uiso   1.00
H1223  H     0.18305   0.91081   0.82198   0.00000  Uiso   1.00
H1224  H     0.16279   0.87372   0.84441   0.00000  Uiso   1.00
H1225  H     0.36374   0.76855   0.26722   0.00000  Uiso   1.00
H1226  H     0.32330   0.79643   0.26658   0.00000  Uiso   1.00
H1227  H     0.32657   0.75725   0.23550   0.00000  Uiso   1.00
H1228  H     0.33995   0.80396   0.19134   0.00000  Uiso   1.00
H1229  H     0.38370   0.78978   0.20431   0.00000  Uiso   1.00
H1230  H     0.12224   0.71397   0.85298   0.00000  Uiso   1.00
H1231  H     0.08285   0.70526   0.82396   0.00000  Uiso   1.00
H1232  H     0.48190   0.80615   0.09721   0.00000  Uiso   1.00
H1233  H     0.10770   0.66755   0.84503   0.00000  Uiso   1.00
H1234  H     0.16331   0.69798   0.80531   0.00000  Uiso   1.00
H1235  H     0.12906   0.71711   0.77660   0.00000  Uiso   1.00
H1236  H     0.16890   0.64794   0.85231   0.00000  Uiso   1.00
H1237  H     0.17167   0.59956   0.84227   0.00000  Uiso   1.00
H1238  H     0.21203   0.62494   0.85486   0.00000  Uiso   1.00
H1239  H     0.21441   0.61505   0.78664   0.00000  Uiso   1.00
H1240  H     0.20582   0.66117   0.79209   0.00000  Uiso   1.00
H1241  H     0.27106   0.85988   0.24921   0.00000  Uiso   1.00
H1242  H     0.25200   0.85309   0.20166   0.00000  Uiso   1.00
H1243  H     0.47922   0.69484   0.90266   0.00000  Uiso   1.00
H1244  H     0.28121   0.81896   0.22187   0.00000  Uiso   1.00
H1245  H     0.30030   0.89539   0.19199   0.00000  Uiso   1.00
H1246  H     0.31669   0.85463   0.17361   0.00000  Uiso   1.00
H1247  H     0.10228   0.87000   0.85900   0.00000  Uiso   1.00
H1248  H     0.06315   0.84832   0.83761   0.00000  Uiso   1.00
H1249  H     0.08927   0.82473   0.87398   0.00000  Uiso   1.00
H1250  H     0.10361   0.79992   0.80909   0.00000  Uiso   1.00
H1251  H     0.14219   0.81871   0.83034   0.00000  Uiso   1.00
H1252  H     0.33919   0.70559   0.19083   0.00000  Uiso   1.00
H1253  H     0.38178   0.72282   0.21023   0.00000  Uiso   1.00
H1254  H     0.44446   0.73000   0.59729   0.00000  Uiso   1.00
H1255  H     0.37319   0.72489   0.15901   0.00000  Uiso   1.00
H1256  H     0.41580   0.67388   0.17389   0.00000  Uiso   1.00
H1257  H     0.37538   0.65889   0.15348   0.00000  Uiso   1.00
H1258  H     0.33110   0.85205   0.85231   0.00000  Uiso   1.00
H1259  H     0.32834   0.90043   0.84227   0.00000  Uiso   1.00
H1260  H     0.28797   0.87506   0.85485   0.00000  Uiso   1.00
H1261  H     0.28559   0.88495   0.78664   0.00000  Uiso   1.00
H1262  H     0.29418   0.83883   0.79209   0.00000  Uiso   1.00
H1263  H     0.22956   0.63851   0.24463   0.00000  Uiso   1.00
H1264  H     0.24638   0.64602   0.19626   0.00000  Uiso   1.00
O1265  O     0.25000   0.50000   0.25000   0.00000  Uiso   1.00
O1266  O     0.25000   0.96964   0.66317   0.00000  Uiso   1.00
O1267  O     0.46964   0.75000   0.33683   0.00000  Uiso   1.00
O1268  O     0.03036   0.75000   0.66317   0.00000  Uiso   1.00
O1269  O     0.00000   0.71964   0.83683   0.00000  Uiso   1.00
O1270  O    -0.00000   0.78036   0.16317   0.00000  Uiso   1.00
O1271  O     0.28036   0.50000   0.83683   0.00000  Uiso   1.00
O1272  O     0.21964   0.50000   0.16317   0.00000  Uiso   1.00
O1273  O    -0.00000   0.78036   0.83683   0.00000  Uiso   1.00
O1274  O     0.00000   0.71964   0.16317   0.00000  Uiso   1.00
O1275  O     0.21964   0.50000   0.83683   0.00000  Uiso   1.00
O1276  O     0.25000   0.50000   0.75000   0.00000  Uiso   1.00
O1277  O     0.28036   0.50000   0.16317   0.00000  Uiso   1.00
O1278  O     0.20725   0.57307   0.27282   0.00000  Uiso   1.00
O1279  O     0.29274   0.92693   0.72718   0.00000  Uiso   1.00
O1280  O     0.42693   0.70725   0.27282   0.00000  Uiso   1.00
O1281  O     0.07307   0.79274   0.72718   0.00000  Uiso   1.00
O1282  O     0.29274   0.92693   0.27282   0.00000  Uiso   1.00
O1283  O     0.20725   0.57307   0.72718   0.00000  Uiso   1.00
O1284  O     0.07307   0.79274   0.27282   0.00000  Uiso   1.00
O1285  O     0.42693   0.70725   0.72718   0.00000  Uiso   1.00
O1286  O     0.20725   0.92693   0.72718   0.00000  Uiso   1.00
O1287  O    -0.00000   0.75000   0.25000   0.00000  Uiso   1.00
O1288  O     0.29274   0.57307   0.27282   0.00000  Uiso   1.00
O1289  O     0.42693   0.79274   0.72718   0.00000  Uiso   1.00
O1290  O     0.07307   0.70725   0.27282   0.00000  Uiso   1.00
O1291  O     0.29274   0.57307   0.72718   0.00000  Uiso   1.00
O1292  O     0.20725   0.92693   0.27282   0.00000  Uiso   1.00
O1293  O     0.07307   0.70725   0.72718   0.00000  Uiso   1.00
O1294  O     0.42693   0.79274   0.27282   0.00000  Uiso   1.00
O1295  O     0.45725   0.82307   0.77282   0.00000  Uiso   1.00
O1296  O     0.04274   0.67693   0.22718   0.00000  Uiso   1.00
O1297  O     0.17693   0.95725   0.77282   0.00000  Uiso   1.00
O1298  O    -0.00000   0.75000   0.75000   0.00000  Uiso   1.00
O1299  O     0.32307   0.54274   0.22718   0.00000  Uiso   1.00
O1300  O     0.04274   0.67693   0.77282   0.00000  Uiso   1.00
O1301  O     0.45725   0.82307   0.22718   0.00000  Uiso   1.00
O1302  O     0.32307   0.54274   0.77282   0.00000  Uiso   1.00
O1303  O     0.17693   0.95725   0.22718   0.00000  Uiso   1.00
O1304  O     0.45725   0.67693   0.22718   0.00000  Uiso   1.00
O1305  O     0.04274   0.82307   0.77282   0.00000  Uiso   1.00
O1306  O     0.17693   0.54274   0.22718   0.00000  Uiso   1.00
O1307  O     0.32307   0.95725   0.77282   0.00000  Uiso   1.00
O1308  O     0.04274   0.82307   0.22718   0.00000  Uiso   1.00
O1309  O     0.25000   0.96964   0.33683   0.00000  Uiso   1.00
O1310  O     0.45725   0.67693   0.77282   0.00000  Uiso   1.00
O1311  O     0.32307   0.95725   0.22718   0.00000  Uiso   1.00
O1312  O     0.17693   0.54274   0.77282   0.00000  Uiso   1.00
O1313  O     0.25000   0.53036   0.66317   0.00000  Uiso   1.00
O1314  O     0.03036   0.75000   0.33683   0.00000  Uiso   1.00
O1315  O     0.46964   0.75000   0.66317   0.00000  Uiso   1.00
O1316  O     0.25000   0.53036   0.33683   0.00000  Uiso   1.00
Zn1317 Zn    0.20660   0.50000   0.21760   0.00000  Uiso   1.00
Zn1318 Zn    0.04340   0.75000   0.28240   0.00000  Uiso   1.00
Zn1319 Zn    0.25000   0.95660   0.71760   0.00000  Uiso   1.00
Zn1320 Zn    0.25000   0.54340   0.28240   0.00000  Uiso   1.00
Zn1321 Zn    0.04340   0.75000   0.71760   0.00000  Uiso   1.00
Zn1322 Zn    0.45660   0.75000   0.28240   0.00000  Uiso   1.00
Zn1323 Zn    0.25000   0.54340   0.71760   0.00000  Uiso   1.00
Zn1324 Zn    0.25000   0.95660   0.28240   0.00000  Uiso   1.00
Zn1325 Zn    0.29340   0.50000   0.78240   0.00000  Uiso   1.00
Zn1326 Zn   -0.00000   0.70660   0.21760   0.00000  Uiso   1.00
Zn1327 Zn   -0.00000   0.79340   0.78240   0.00000  Uiso   1.00
Zn1328 Zn    0.29340   0.50000   0.21760   0.00000  Uiso   1.00
Zn1329 Zn    0.20660   0.50000   0.78240   0.00000  Uiso   1.00
Zn1330 Zn   -0.00000   0.79340   0.21760   0.00000  Uiso   1.00
Zn1331 Zn   -0.00000   0.70660   0.78240   0.00000  Uiso   1.00
Zn1332 Zn    0.45660   0.75000   0.71760   0.00000  Uiso   1.00
C1333  C     0.71886   0.98869   0.04182   0.00000  Uiso   1.00
C1334  C     0.53131   0.73898   0.45820   0.00000  Uiso   1.00
C1335  C     0.84847   0.90205   0.75072   0.00000  Uiso   1.00
C1336  C     0.90190   0.65168   0.24974   0.00000  Uiso   1.00
C1337  C     0.59797   0.84800   0.74976   0.00000  Uiso   1.00
C1338  C     0.84836   0.90238   0.25030   0.00000  Uiso   1.00
C1339  C     0.65153   0.59795   0.75072   0.00000  Uiso   1.00
C1340  C     0.59836   0.65238   0.75030   0.00000  Uiso   1.00
C1341  C     0.90153   0.84795   0.25072   0.00000  Uiso   1.00
C1342  C     0.65189   0.90170   0.74970   0.00000  Uiso   1.00
C1343  C     0.84800   0.59797   0.24979   0.00000  Uiso   1.00
C1344  C     0.90164   0.84762   0.75030   0.00000  Uiso   1.00
C1345  C     0.76039   0.96849   0.54179   0.00000  Uiso   1.00
C1346  C     0.59857   0.65216   0.25059   0.00000  Uiso   1.00
C1347  C     0.84811   0.59830   0.74970   0.00000  Uiso   1.00
C1348  C     0.65201   0.90202   0.24972   0.00000  Uiso   1.00
C1349  C     0.75000   0.50001   0.10245   0.00000  Uiso   1.00
C1350  C     0.75000   0.50001   0.89757   0.00000  Uiso   1.00
C1351  C     0.50001   0.75000   0.10242   0.00000  Uiso   1.00
C1352  C     0.50000   0.75000   0.89751   0.00000  Uiso   1.00
C1353  C     0.50000   0.74997   0.60245   0.00000  Uiso   1.00
C1354  C     0.50000   0.74995   0.39757   0.00000  Uiso   1.00
C1355  C     0.75007   0.50000   0.60242   0.00000  Uiso   1.00
C1356  C     0.76204   0.53088   0.45812   0.00000  Uiso   1.00
C1357  C     0.75013   0.99998   0.39751   0.00000  Uiso   1.00
C1358  C     0.67307   0.88488   0.18157   0.00000  Uiso   1.00
C1359  C     0.65715   0.91035   0.15070   0.00000  Uiso   1.00
C1360  C     0.82528   0.61774   0.81645   0.00000  Uiso   1.00
C1361  C     0.79133   0.64069   0.80831   0.00000  Uiso   1.00
C1362  C     0.64020   0.69590   0.21401   0.00000  Uiso   1.00
C1363  C     0.65765   0.71952   0.24561   0.00000  Uiso   1.00
C1364  C     0.86499   0.80668   0.79553   0.00000  Uiso   1.00
C1365  C     0.88960   0.80513   0.83140   0.00000  Uiso   1.00
C1366  C     0.82668   0.61536   0.18181   0.00000  Uiso   1.00
C1367  C     0.53117   0.76119   0.54181   0.00000  Uiso   1.00
C1368  C     0.84254   0.59007   0.15076   0.00000  Uiso   1.00
C1369  C     0.67472   0.88226   0.81645   0.00000  Uiso   1.00
C1370  C     0.70867   0.85931   0.80831   0.00000  Uiso   1.00
C1371  C     0.85905   0.80353   0.21608   0.00000  Uiso   1.00
C1372  C     0.84224   0.78017   0.24830   0.00000  Uiso   1.00
C1373  C     0.63501   0.69332   0.79553   0.00000  Uiso   1.00
C1374  C     0.61040   0.69486   0.83141   0.00000  Uiso   1.00
C1375  C     0.69280   0.63416   0.79615   0.00000  Uiso   1.00
C1376  C     0.68573   0.62624   0.83894   0.00000  Uiso   1.00
C1377  C     0.80931   0.86786   0.20139   0.00000  Uiso   1.00
C1378  C     0.96869   0.76083   0.45821   0.00000  Uiso   1.00
C1379  C     0.77659   0.84875   0.21990   0.00000  Uiso   1.00
C1380  C     0.61549   0.82656   0.81769   0.00000  Uiso   1.00
C1381  C     0.59113   0.84355   0.84886   0.00000  Uiso   1.00
C1382  C     0.88634   0.67086   0.18039   0.00000  Uiso   1.00
C1383  C     0.86900   0.70835   0.18557   0.00000  Uiso   1.00
C1384  C     0.80720   0.86584   0.79615   0.00000  Uiso   1.00
C1385  C     0.81427   0.87376   0.83894   0.00000  Uiso   1.00
C1386  C     0.68922   0.63099   0.19872   0.00000  Uiso   1.00
C1387  C     0.72266   0.65002   0.21582   0.00000  Uiso   1.00
C1388  C     0.88451   0.67344   0.81768   0.00000  Uiso   1.00
C1389  C     0.73999   0.53149   0.54174   0.00000  Uiso   1.00
C1390  C     0.90888   0.65646   0.84886   0.00000  Uiso   1.00
C1391  C     0.61320   0.82960   0.18005   0.00000  Uiso   1.00
C1392  C     0.63032   0.79196   0.18479   0.00000  Uiso   1.00
C1393  C     0.92327   0.63468   0.68172   0.00000  Uiso   1.00
C1394  C     0.90733   0.65999   0.65072   0.00000  Uiso   1.00
C1395  C     0.57516   0.86790   0.31633   0.00000  Uiso   1.00
C1396  C     0.54142   0.89114   0.30813   0.00000  Uiso   1.00
C1397  C     0.89093   0.94646   0.71603   0.00000  Uiso   1.00
C1398  C     0.90774   0.96984   0.74823   0.00000  Uiso   1.00
C1399  C     0.61641   0.55872   0.29824   0.00000  Uiso   1.00
C1400  C     0.73843   0.96905   0.45814   0.00000  Uiso   1.00
C1401  C     0.59715   0.52808   0.27625   0.00000  Uiso   1.00
C1402  C     0.57673   0.86531   0.68172   0.00000  Uiso   1.00
C1403  C     0.59266   0.84001   0.65072   0.00000  Uiso   1.00
C1404  C     0.92465   0.63242   0.31659   0.00000  Uiso   1.00
C1405  C     0.95891   0.60995   0.30843   0.00000  Uiso   1.00
C1406  C     0.60907   0.55354   0.71603   0.00000  Uiso   1.00
C1407  C     0.59226   0.53016   0.74823   0.00000  Uiso   1.00
C1408  C     0.88504   0.94334   0.29550   0.00000  Uiso   1.00
C1409  C     0.86047   0.94485   0.33141   0.00000  Uiso   1.00
C1410  C     0.94287   0.88422   0.29604   0.00000  Uiso   1.00
C1411  C     0.71878   0.98892   0.08209   0.00000  Uiso   1.00
C1412  C     0.93588   0.87628   0.33883   0.00000  Uiso   1.00
C1413  C     0.55934   0.61788   0.70134   0.00000  Uiso   1.00
C1414  C     0.52661   0.59875   0.71983   0.00000  Uiso   1.00
C1415  C     0.86566   0.57642   0.31764   0.00000  Uiso   1.00
C1416  C     0.84129   0.59326   0.34891   0.00000  Uiso   1.00
C1417  C     0.63635   0.92086   0.68035   0.00000  Uiso   1.00
C1418  C     0.61901   0.95835   0.68552   0.00000  Uiso   1.00
C1419  C     0.55877   0.61674   0.29791   0.00000  Uiso   1.00
C1420  C     0.56450   0.63442   0.33753   0.00000  Uiso   1.00
C1421  C     0.94066   0.88212   0.70134   0.00000  Uiso   1.00
C1422  C     0.78141   0.98941   0.91794   0.00000  Uiso   1.00
C1423  C     0.97339   0.90125   0.71983   0.00000  Uiso   1.00
C1424  C     0.63460   0.92333   0.31773   0.00000  Uiso   1.00
C1425  C     0.65892   0.90618   0.34885   0.00000  Uiso   1.00
C1426  C     0.86365   0.57914   0.68035   0.00000  Uiso   1.00
C1427  C     0.88099   0.54165   0.68552   0.00000  Uiso   1.00
C1428  C     0.51001   0.71844   0.08204   0.00000  Uiso   1.00
C1429  C     0.78134   0.98918   0.95821   0.00000  Uiso   1.00
C1430  C     0.51150   0.78103   0.91786   0.00000  Uiso   1.00
C1431  C     0.78121   0.51111   0.08210   0.00000  Uiso   1.00
C1432  C     0.71858   0.51061   0.91794   0.00000  Uiso   1.00
C1433  C     0.99001   0.78156   0.08204   0.00000  Uiso   1.00
C1434  C     0.98851   0.71897   0.91786   0.00000  Uiso   1.00
C1435  C     0.96876   0.73892   0.58209   0.00000  Uiso   1.00
C1436  C     0.53138   0.73923   0.41793   0.00000  Uiso   1.00
C1437  C     0.76007   0.96842   0.58206   0.00000  Uiso   1.00
C1438  C     0.76174   0.53098   0.41785   0.00000  Uiso   1.00
C1439  C     0.53124   0.76099   0.58208   0.00000  Uiso   1.00
C1440  C     0.51026   0.71851   0.04177   0.00000  Uiso   1.00
C1441  C     0.96862   0.76063   0.41794   0.00000  Uiso   1.00
C1442  C     0.74016   0.53157   0.58202   0.00000  Uiso   1.00
C1443  C     0.73863   0.96896   0.41788   0.00000  Uiso   1.00
C1444  C     0.75000   0.50002   0.02134   0.00000  Uiso   1.00
C1445  C     0.75000   0.50002   0.97870   0.00000  Uiso   1.00
C1446  C     0.50001   0.75000   0.02127   0.00000  Uiso   1.00
C1447  C     0.50001   0.75000   0.97863   0.00000  Uiso   1.00
C1448  C     0.50001   0.74991   0.52133   0.00000  Uiso   1.00
C1449  C     0.50000   0.74990   0.47870   0.00000  Uiso   1.00
C1450  C     0.75022   0.99999   0.52127   0.00000  Uiso   1.00
C1451  C     0.51176   0.78094   0.95813   0.00000  Uiso   1.00
C1452  C     0.75025   0.99997   0.47863   0.00000  Uiso   1.00
C1453  C     0.75004   0.50000   0.35520   0.00000  Uiso   1.00
C1454  C     0.75001   0.50000   0.64478   0.00000  Uiso   1.00
C1455  C     0.50000   0.74999   0.35523   0.00000  Uiso   1.00
C1456  C     0.50000   0.75000   0.64478   0.00000  Uiso   1.00
C1457  C     0.50000   0.75000   0.85520   0.00000  Uiso   1.00
C1458  C     0.50000   0.75000   0.14478   0.00000  Uiso   1.00
C1459  C     0.75000   0.50000   0.85523   0.00000  Uiso   1.00
C1460  C     0.75000   0.50000   0.14478   0.00000  Uiso   1.00
C1461  C     0.67991   0.56978   0.25013   0.00000  Uiso   1.00
C1462  C     0.78113   0.51135   0.04183   0.00000  Uiso   1.00
C1463  C     0.82032   0.93028   0.74979   0.00000  Uiso   1.00
C1464  C     0.92997   0.67998   0.24991   0.00000  Uiso   1.00
C1465  C     0.56986   0.82002   0.74984   0.00000  Uiso   1.00
C1466  C     0.82024   0.93037   0.25039   0.00000  Uiso   1.00
C1467  C     0.67968   0.56972   0.74979   0.00000  Uiso   1.00
C1468  C     0.57004   0.82001   0.24988   0.00000  Uiso   1.00
C1469  C     0.93013   0.67998   0.74984   0.00000  Uiso   1.00
C1470  C     0.67996   0.92999   0.74990   0.00000  Uiso   1.00
C1471  C     0.81989   0.57000   0.24987   0.00000  Uiso   1.00
C1472  C     0.92976   0.81963   0.75038   0.00000  Uiso   1.00
C1473  C     0.71866   0.51085   0.95821   0.00000  Uiso   1.00
C1474  C     0.57022   0.68019   0.24992   0.00000  Uiso   1.00
C1475  C     0.82004   0.57001   0.74990   0.00000  Uiso   1.00
C1476  C     0.68014   0.92997   0.24983   0.00000  Uiso   1.00
C1477  C     0.57024   0.68037   0.75038   0.00000  Uiso   1.00
C1478  C     0.92968   0.81972   0.24979   0.00000  Uiso   1.00
C1479  C     0.64725   0.88035   0.21614   0.00000  Uiso   1.00
C1480  C     0.85239   0.62067   0.78290   0.00000  Uiso   1.00
C1481  C     0.63139   0.65799   0.22976   0.00000  Uiso   1.00
C1482  C     0.86959   0.84224   0.77257   0.00000  Uiso   1.00
C1483  C     0.85261   0.61978   0.21629   0.00000  Uiso   1.00
C1484  C     0.98977   0.78149   0.04177   0.00000  Uiso   1.00
C1485  C     0.64761   0.87933   0.78290   0.00000  Uiso   1.00
C1486  C     0.86810   0.84166   0.23113   0.00000  Uiso   1.00
C1487  C     0.63041   0.65776   0.77258   0.00000  Uiso   1.00
C1488  C     0.65784   0.63038   0.77211   0.00000  Uiso   1.00
C1489  C     0.84231   0.87025   0.22861   0.00000  Uiso   1.00
C1490  C     0.62025   0.85215   0.78296   0.00000  Uiso   1.00
C1491  C     0.88024   0.64671   0.21604   0.00000  Uiso   1.00
C1492  C     0.84216   0.86962   0.77211   0.00000  Uiso   1.00
C1493  C     0.65709   0.62929   0.22709   0.00000  Uiso   1.00
C1494  C     0.87975   0.64785   0.78296   0.00000  Uiso   1.00
C1495  C     0.98826   0.71906   0.95813   0.00000  Uiso   1.00
C1496  C     0.61959   0.85345   0.21587   0.00000  Uiso   1.00
C1497  C     0.89739   0.63022   0.71624   0.00000  Uiso   1.00
C1498  C     0.60237   0.87069   0.28286   0.00000  Uiso   1.00
C1499  C     0.88189   0.90833   0.73111   0.00000  Uiso   1.00
C1500  C     0.62034   0.59298   0.27327   0.00000  Uiso   1.00
C1501  C     0.60261   0.86978   0.71624   0.00000  Uiso   1.00
C1502  C     0.89763   0.62933   0.28296   0.00000  Uiso   1.00
C1503  C     0.61811   0.59167   0.73110   0.00000  Uiso   1.00
C1504  C     0.88043   0.90778   0.27255   0.00000  Uiso   1.00
C1505  C     0.90787   0.88041   0.27206   0.00000  Uiso   1.00
C1506  C     0.96885   0.73865   0.54183   0.00000  Uiso   1.00
C1507  C     0.59232   0.62026   0.72859   0.00000  Uiso   1.00
C1508  C     0.87031   0.60211   0.28298   0.00000  Uiso   1.00
C1509  C     0.63024   0.89672   0.71600   0.00000  Uiso   1.00
C1510  C     0.59295   0.62021   0.27284   0.00000  Uiso   1.00
C1511  C     0.90768   0.87974   0.72859   0.00000  Uiso   1.00
C1512  C     0.62975   0.89784   0.28294   0.00000  Uiso   1.00
C1513  C     0.86976   0.60328   0.71600   0.00000  Uiso   1.00
C1514  C     0.59807   0.84834   0.24966   0.00000  Uiso   1.00
C1515  C     0.90203   0.65200   0.74976   0.00000  Uiso   1.00
C1516  C     0.65175   0.59772   0.24991   0.00000  Uiso   1.00
H1517  H     0.69449   0.97995   0.09729   0.00000  Uiso   1.00
H1518  H     0.55580   0.73056   0.40273   0.00000  Uiso   1.00
H1519  H     0.71800   0.67975   0.21850   0.00000  Uiso   1.00
H1520  H     0.69763   0.60322   0.18947   0.00000  Uiso   1.00
H1521  H     0.68110   0.64398   0.17104   0.00000  Uiso   1.00
H1522  H     0.89773   0.63000   0.85900   0.00000  Uiso   1.00
H1523  H     0.93686   0.65169   0.83761   0.00000  Uiso   1.00
H1524  H     0.91073   0.67528   0.87398   0.00000  Uiso   1.00
H1525  H     0.89639   0.70008   0.80909   0.00000  Uiso   1.00
H1526  H     0.85781   0.68129   0.83034   0.00000  Uiso   1.00
H1527  H     0.66016   0.79453   0.18998   0.00000  Uiso   1.00
H1528  H     0.61752   0.77730   0.20931   0.00000  Uiso   1.00
H1529  H     0.76812   0.94383   0.59725   0.00000  Uiso   1.00
H1530  H     0.62598   0.77570   0.15807   0.00000  Uiso   1.00
H1531  H     0.58370   0.82682   0.17364   0.00000  Uiso   1.00
H1532  H     0.62413   0.84169   0.15319   0.00000  Uiso   1.00
H1533  H     0.90482   0.68826   0.66178   0.00000  Uiso   1.00
H1534  H     0.92576   0.66036   0.62518   0.00000  Uiso   1.00
H1535  H     0.87987   0.65089   0.64124   0.00000  Uiso   1.00
H1536  H     0.95020   0.64567   0.69071   0.00000  Uiso   1.00
H1537  H     0.93032   0.60782   0.66893   0.00000  Uiso   1.00
H1538  H     0.54904   0.92019   0.30395   0.00000  Uiso   1.00
H1539  H     0.52743   0.88132   0.28162   0.00000  Uiso   1.00
H1540  H     0.77105   0.55509   0.40264   0.00000  Uiso   1.00
H1541  H     0.52230   0.88933   0.33294   0.00000  Uiso   1.00
H1542  H     0.56657   0.83941   0.32176   0.00000  Uiso   1.00
H1543  H     0.58711   0.87627   0.34434   0.00000  Uiso   1.00
H1544  H     0.88623   0.98150   0.76712   0.00000  Uiso   1.00
H1545  H     0.92665   0.95359   0.76654   0.00000  Uiso   1.00
H1546  H     0.92343   0.99274   0.73541   0.00000  Uiso   1.00
H1547  H     0.91003   0.94602   0.69129   0.00000  Uiso   1.00
H1548  H     0.86627   0.96019   0.70425   0.00000  Uiso   1.00
H1549  H     0.56975   0.53699   0.26618   0.00000  Uiso   1.00
H1550  H     0.61350   0.51955   0.25076   0.00000  Uiso   1.00
H1551  H     0.55555   0.76993   0.59727   0.00000  Uiso   1.00
H1552  H     0.59376   0.50410   0.29557   0.00000  Uiso   1.00
H1553  H     0.64342   0.54866   0.30827   0.00000  Uiso   1.00
H1554  H     0.60155   0.56442   0.32551   0.00000  Uiso   1.00
H1555  H     0.59518   0.81174   0.66179   0.00000  Uiso   1.00
H1556  H     0.57423   0.83963   0.62518   0.00000  Uiso   1.00
H1557  H     0.62012   0.84911   0.64123   0.00000  Uiso   1.00
H1558  H     0.54979   0.85433   0.69071   0.00000  Uiso   1.00
H1559  H     0.56967   0.89218   0.66892   0.00000  Uiso   1.00
H1560  H     0.95202   0.58061   0.30531   0.00000  Uiso   1.00
H1561  H     0.97209   0.61940   0.28133   0.00000  Uiso   1.00
H1562  H     0.94420   0.76930   0.40276   0.00000  Uiso   1.00
H1563  H     0.97847   0.61302   0.33275   0.00000  Uiso   1.00
H1564  H     0.93256   0.66107   0.32224   0.00000  Uiso   1.00
H1565  H     0.91281   0.62362   0.34451   0.00000  Uiso   1.00
H1566  H     0.61377   0.51850   0.76712   0.00000  Uiso   1.00
H1567  H     0.57335   0.54641   0.76654   0.00000  Uiso   1.00
H1568  H     0.57657   0.50727   0.73541   0.00000  Uiso   1.00
H1569  H     0.58997   0.55398   0.69128   0.00000  Uiso   1.00
H1570  H     0.63372   0.53981   0.70425   0.00000  Uiso   1.00
H1571  H     0.87228   0.96402   0.35294   0.00000  Uiso   1.00
H1572  H     0.83287   0.95517   0.32399   0.00000  Uiso   1.00
H1573  H     0.73206   0.55617   0.59717   0.00000  Uiso   1.00
H1574  H     0.85787   0.91755   0.34508   0.00000  Uiso   1.00
H1575  H     0.91334   0.94802   0.30525   0.00000  Uiso   1.00
H1576  H     0.87904   0.96713   0.27659   0.00000  Uiso   1.00
H1577  H     0.91908   0.89798   0.35225   0.00000  Uiso   1.00
H1578  H     0.92182   0.84961   0.34219   0.00000  Uiso   1.00
H1579  H     0.96221   0.87497   0.35469   0.00000  Uiso   1.00
H1580  H     0.96448   0.86514   0.28647   0.00000  Uiso   1.00
H1581  H     0.95585   0.91124   0.29195   0.00000  Uiso   1.00
H1582  H     0.52102   0.60992   0.74911   0.00000  Uiso   1.00
H1583  H     0.50205   0.60303   0.70153   0.00000  Uiso   1.00
H1584  H     0.72928   0.94485   0.40269   0.00000  Uiso   1.00
H1585  H     0.53127   0.56897   0.72185   0.00000  Uiso   1.00
H1586  H     0.55032   0.64541   0.69196   0.00000  Uiso   1.00
H1587  H     0.56673   0.60466   0.67356   0.00000  Uiso   1.00
H1588  H     0.85233   0.61975   0.35906   0.00000  Uiso   1.00
H1589  H     0.81326   0.59791   0.33773   0.00000  Uiso   1.00
H1590  H     0.83958   0.57439   0.37400   0.00000  Uiso   1.00
H1591  H     0.85382   0.54977   0.30898   0.00000  Uiso   1.00
H1592  H     0.89240   0.56861   0.33022   0.00000  Uiso   1.00
H1593  H     0.58919   0.95559   0.69077   0.00000  Uiso   1.00
H1594  H     0.63178   0.97283   0.71017   0.00000  Uiso   1.00
H1595  H     0.69472   0.97921   0.02674   0.00000  Uiso   1.00
H1596  H     0.62320   0.97489   0.65896   0.00000  Uiso   1.00
H1597  H     0.66582   0.92389   0.67386   0.00000  Uiso   1.00
H1598  H     0.62541   0.90889   0.65343   0.00000  Uiso   1.00
H1599  H     0.58836   0.62217   0.35255   0.00000  Uiso   1.00
H1600  H     0.56916   0.66419   0.33444   0.00000  Uiso   1.00
H1601  H     0.53987   0.63028   0.35575   0.00000  Uiso   1.00
H1602  H     0.53497   0.62972   0.28368   0.00000  Uiso   1.00
H1603  H     0.55026   0.58798   0.30170   0.00000  Uiso   1.00
H1604  H     0.97898   0.89008   0.74911   0.00000  Uiso   1.00
H1605  H     0.99795   0.89697   0.70153   0.00000  Uiso   1.00
H1606  H     0.80565   0.98010   0.97330   0.00000  Uiso   1.00
H1607  H     0.96873   0.93103   0.72185   0.00000  Uiso   1.00
H1608  H     0.94968   0.85459   0.69196   0.00000  Uiso   1.00
H1609  H     0.93326   0.89534   0.67356   0.00000  Uiso   1.00
H1610  H     0.64766   0.87975   0.35892   0.00000  Uiso   1.00
H1611  H     0.68687   0.90132   0.33755   0.00000  Uiso   1.00
H1612  H     0.66086   0.92493   0.37401   0.00000  Uiso   1.00
H1613  H     0.64659   0.94995   0.30921   0.00000  Uiso   1.00
H1614  H     0.60794   0.93125   0.33041   0.00000  Uiso   1.00
H1615  H     0.91080   0.54440   0.69077   0.00000  Uiso   1.00
H1616  H     0.86821   0.52717   0.71017   0.00000  Uiso   1.00
H1617  H     0.51890   0.69407   0.02670   0.00000  Uiso   1.00
H1618  H     0.87679   0.52511   0.65896   0.00000  Uiso   1.00
H1619  H     0.83418   0.57611   0.67386   0.00000  Uiso   1.00
H1620  H     0.87459   0.59111   0.65343   0.00000  Uiso   1.00
H1621  H     0.80586   0.98082   0.90276   0.00000  Uiso   1.00
H1622  H     0.52158   0.80491   0.97319   0.00000  Uiso   1.00
H1623  H     0.80527   0.52083   0.02675   0.00000  Uiso   1.00
H1624  H     0.69434   0.51993   0.97328   0.00000  Uiso   1.00
H1625  H     0.98112   0.80593   0.02670   0.00000  Uiso   1.00
H1626  H     0.97844   0.69509   0.97319   0.00000  Uiso   1.00
H1627  H     0.94469   0.72921   0.52675   0.00000  Uiso   1.00
H1628  H     0.55560   0.72982   0.47327   0.00000  Uiso   1.00
H1629  H     0.76903   0.94403   0.52674   0.00000  Uiso   1.00
H1630  H     0.77192   0.55484   0.47318   0.00000  Uiso   1.00
H1631  H     0.55533   0.77061   0.52673   0.00000  Uiso   1.00
H1632  H     0.51811   0.69386   0.09721   0.00000  Uiso   1.00
H1633  H     0.94441   0.76998   0.47330   0.00000  Uiso   1.00
H1634  H     0.73141   0.55595   0.52666   0.00000  Uiso   1.00
H1635  H     0.72858   0.94509   0.47322   0.00000  Uiso   1.00
H1636  H     0.65486   0.93861   0.16183   0.00000  Uiso   1.00
H1637  H     0.67547   0.91065   0.12507   0.00000  Uiso   1.00
H1638  H     0.62959   0.90145   0.14133   0.00000  Uiso   1.00
H1639  H     0.70006   0.89574   0.19055   0.00000  Uiso   1.00
H1640  H     0.68000   0.85804   0.16865   0.00000  Uiso   1.00
H1641  H     0.79871   0.66980   0.80415   0.00000  Uiso   1.00
H1642  H     0.77740   0.63076   0.78181   0.00000  Uiso   1.00
H1643  H     0.52079   0.80516   0.90266   0.00000  Uiso   1.00
H1644  H     0.77226   0.63869   0.83315   0.00000  Uiso   1.00
H1645  H     0.81696   0.58919   0.82198   0.00000  Uiso   1.00
H1646  H     0.83722   0.62628   0.84441   0.00000  Uiso   1.00
H1647  H     0.63649   0.73136   0.26483   0.00000  Uiso   1.00
H1648  H     0.67688   0.70339   0.26369   0.00000  Uiso   1.00
H1649  H     0.67318   0.74224   0.23226   0.00000  Uiso   1.00
H1650  H     0.65887   0.69514   0.18891   0.00000  Uiso   1.00
H1651  H     0.61533   0.70956   0.20264   0.00000  Uiso   1.00
H1652  H     0.87776   0.78603   0.85298   0.00000  Uiso   1.00
H1653  H     0.91715   0.79473   0.82396   0.00000  Uiso   1.00
H1654  H     0.80550   0.52009   0.09729   0.00000  Uiso   1.00
H1655  H     0.89230   0.83244   0.84503   0.00000  Uiso   1.00
H1656  H     0.83669   0.80202   0.80530   0.00000  Uiso   1.00
H1657  H     0.87094   0.78289   0.77660   0.00000  Uiso   1.00
H1658  H     0.84503   0.56178   0.16178   0.00000  Uiso   1.00
H1659  H     0.82408   0.58975   0.12524   0.00000  Uiso   1.00
H1660  H     0.87000   0.59914   0.14125   0.00000  Uiso   1.00
H1661  H     0.79975   0.60440   0.19084   0.00000  Uiso   1.00
H1662  H     0.81963   0.64224   0.16904   0.00000  Uiso   1.00
H1663  H     0.70129   0.83020   0.80414   0.00000  Uiso   1.00
H1664  H     0.72260   0.86924   0.78181   0.00000  Uiso   1.00
H1665  H     0.69414   0.51920   0.90275   0.00000  Uiso   1.00
H1666  H     0.72774   0.86131   0.83315   0.00000  Uiso   1.00
H1667  H     0.68305   0.91081   0.82198   0.00000  Uiso   1.00
H1668  H     0.66279   0.87372   0.84441   0.00000  Uiso   1.00
H1669  H     0.86374   0.76855   0.26722   0.00000  Uiso   1.00
H1670  H     0.82330   0.79643   0.26658   0.00000  Uiso   1.00
H1671  H     0.82657   0.75725   0.23550   0.00000  Uiso   1.00
H1672  H     0.83995   0.80396   0.19134   0.00000  Uiso   1.00
H1673  H     0.88370   0.78978   0.20431   0.00000  Uiso   1.00
H1674  H     0.62224   0.71397   0.85298   0.00000  Uiso   1.00
H1675  H     0.58285   0.70526   0.82396   0.00000  Uiso   1.00
H1676  H     0.98190   0.80615   0.09721   0.00000  Uiso   1.00
H1677  H     0.60770   0.66755   0.84503   0.00000  Uiso   1.00
H1678  H     0.66331   0.69798   0.80531   0.00000  Uiso   1.00
H1679  H     0.62906   0.71711   0.77660   0.00000  Uiso   1.00
H1680  H     0.66890   0.64794   0.85231   0.00000  Uiso   1.00
H1681  H     0.67167   0.59956   0.84227   0.00000  Uiso   1.00
H1682  H     0.71203   0.62494   0.85486   0.00000  Uiso   1.00
H1683  H     0.71441   0.61505   0.78664   0.00000  Uiso   1.00
H1684  H     0.70582   0.66117   0.79209   0.00000  Uiso   1.00
H1685  H     0.77106   0.85988   0.24921   0.00000  Uiso   1.00
H1686  H     0.75200   0.85309   0.20166   0.00000  Uiso   1.00
H1687  H     0.97922   0.69484   0.90266   0.00000  Uiso   1.00
H1688  H     0.78121   0.81896   0.22187   0.00000  Uiso   1.00
H1689  H     0.80030   0.89539   0.19199   0.00000  Uiso   1.00
H1690  H     0.81669   0.85463   0.17361   0.00000  Uiso   1.00
H1691  H     0.60228   0.87000   0.85900   0.00000  Uiso   1.00
H1692  H     0.56315   0.84832   0.83761   0.00000  Uiso   1.00
H1693  H     0.58927   0.82473   0.87398   0.00000  Uiso   1.00
H1694  H     0.60361   0.79992   0.80909   0.00000  Uiso   1.00
H1695  H     0.64219   0.81871   0.83034   0.00000  Uiso   1.00
H1696  H     0.83919   0.70559   0.19083   0.00000  Uiso   1.00
H1697  H     0.88178   0.72282   0.21023   0.00000  Uiso   1.00
H1698  H     0.94446   0.73000   0.59729   0.00000  Uiso   1.00
H1699  H     0.87319   0.72489   0.15901   0.00000  Uiso   1.00
H1700  H     0.91580   0.67388   0.17389   0.00000  Uiso   1.00
H1701  H     0.87538   0.65889   0.15348   0.00000  Uiso   1.00
H1702  H     0.83110   0.85205   0.85231   0.00000  Uiso   1.00
H1703  H     0.82834   0.90043   0.84227   0.00000  Uiso   1.00
H1704  H     0.78797   0.87506   0.85485   0.00000  Uiso   1.00
H1705  H     0.78559   0.88495   0.78664   0.00000  Uiso   1.00
H1706  H     0.79418   0.83883   0.79209   0.00000  Uiso   1.00
H1707  H     0.72956   0.63851   0.24463   0.00000  Uiso   1.00
H1708  H     0.74638   0.64602   0.19626   0.00000  Uiso   1.00
O1709  O     0.75000   0.50000   0.25000   0.00000  Uiso   1.00
O1710  O     0.75000   0.96964   0.66317   0.00000  Uiso   1.00
O1711  O     0.96964   0.75000   0.33683   0.00000  Uiso   1.00
O1712  O     0.53036   0.75000   0.66317   0.00000  Uiso   1.00
O1713  O     0.50000   0.71964   0.83683   0.00000  Uiso   1.00
O1714  O     0.50000   0.78036   0.16317   0.00000  Uiso   1.00
O1715  O     0.78036   0.50000   0.83683   0.00000  Uiso   1.00
O1716  O     0.71964   0.50000   0.16317   0.00000  Uiso   1.00
O1717  O     0.50000   0.78036   0.83683   0.00000  Uiso   1.00
O1718  O     0.50000   0.71964   0.16317   0.00000  Uiso   1.00
O1719  O     0.71964   0.50000   0.83683   0.00000  Uiso   1.00
O1720  O     0.75000   0.50000   0.75000   0.00000  Uiso   1.00
O1721  O     0.78036   0.50000   0.16317   0.00000  Uiso   1.00
O1722  O     0.70725   0.57307   0.27282   0.00000  Uiso   1.00
O1723  O     0.79274   0.92693   0.72718   0.00000  Uiso   1.00
O1724  O     0.92693   0.70725   0.27282   0.00000  Uiso   1.00
O1725  O     0.57307   0.79274   0.72718   0.00000  Uiso   1.00
O1726  O     0.79274   0.92693   0.27282   0.00000  Uiso   1.00
O1727  O     0.70725   0.57307   0.72718   0.00000  Uiso   1.00
O1728  O     0.57307   0.79274   0.27282   0.00000  Uiso   1.00
O1729  O     0.92693   0.70725   0.72718   0.00000  Uiso   1.00
O1730  O     0.70725   0.92693   0.72718   0.00000  Uiso   1.00
O1731  O     0.50000   0.75000   0.25000   0.00000  Uiso   1.00
O1732  O     0.79274   0.57307   0.27282   0.00000  Uiso   1.00
O1733  O     0.92693   0.79274   0.72718   0.00000  Uiso   1.00
O1734  O     0.57307   0.70725   0.27282   0.00000  Uiso   1.00
O1735  O     0.79274   0.57307   0.72718   0.00000  Uiso   1.00
O1736  O     0.70725   0.92693   0.27282   0.00000  Uiso   1.00
O1737  O     0.57307   0.70725   0.72718   0.00000  Uiso   1.00
O1738  O     0.92693   0.79274   0.27282   0.00000  Uiso   1.00
O1739  O     0.95725   0.82307   0.77282   0.00000  Uiso   1.00
O1740  O     0.54274   0.67693   0.22718   0.00000  Uiso   1.00
O1741  O     0.67693   0.95725   0.77282   0.00000  Uiso   1.00
O1742  O     0.50000   0.75000   0.75000   0.00000  Uiso   1.00
O1743  O     0.82307   0.54274   0.22718   0.00000  Uiso   1.00
O1744  O     0.54274   0.67693   0.77282   0.00000  Uiso   1.00
O1745  O     0.95725   0.82307   0.22718   0.00000  Uiso   1.00
O1746  O     0.82307   0.54274   0.77282   0.00000  Uiso   1.00
O1747  O     0.67693   0.95725   0.22718   0.00000  Uiso   1.00
O1748  O     0.95725   0.67693   0.22718   0.00000  Uiso   1.00
O1749  O     0.54274   0.82307   0.77282   0.00000  Uiso   1.00
O1750  O     0.67693   0.54274   0.22718   0.00000  Uiso   1.00
O1751  O     0.82307   0.95725   0.77282   0.00000  Uiso   1.00
O1752  O     0.54274   0.82307   0.22718   0.00000  Uiso   1.00
O1753  O     0.75000   0.96964   0.33683   0.00000  Uiso   1.00
O1754  O     0.95725   0.67693   0.77282   0.00000  Uiso   1.00
O1755  O     0.82307   0.95725   0.22718   0.00000  Uiso   1.00
O1756  O     0.67693   0.54274   0.77282   0.00000  Uiso   1.00
O1757  O     0.75000   0.53036   0.66317   0.00000  Uiso   1.00
O1758  O     0.53036   0.75000   0.33683   0.00000  Uiso   1.00
O1759  O     0.96964   0.75000   0.66317   0.00000  Uiso   1.00
O1760  O     0.75000   0.53036   0.33683   0.00000  Uiso   1.00
Zn1761 Zn    0.70660   0.50000   0.21760   0.00000  Uiso   1.00
Zn1762 Zn    0.54340   0.75000   0.28240   0.00000  Uiso   1.00
Zn1763 Zn    0.75000   0.95660   0.71760   0.00000  Uiso   1.00
Zn1764 Zn    0.75000   0.54340   0.28240   0.00000  Uiso   1.00
Zn1765 Zn    0.54340   0.75000   0.71760   0.00000  Uiso   1.00
Zn1766 Zn    0.95660   0.75000   0.28240   0.00000  Uiso   1.00
Zn1767 Zn    0.75000   0.54340   0.71760   0.00000  Uiso   1.00
Zn1768 Zn    0.75000   0.95660   0.28240   0.00000  Uiso   1.00
Zn1769 Zn    0.79340   0.50000   0.78240   0.00000  Uiso   1.00
Zn1770 Zn    0.50000   0.70660   0.21760   0.00000  Uiso   1.00
Zn1771 Zn    0.50000   0.79340   0.78240   0.00000  Uiso   1.00
Zn1772 Zn    0.79340   0.50000   0.21760   0.00000  Uiso   1.00
Zn1773 Zn    0.70660   0.50000   0.78240   0.00000  Uiso   1.00
Zn1774 Zn    0.50000   0.79340   0.21760   0.00000  Uiso   1.00
Zn1775 Zn    0.50000   0.70660   0.78240   0.00000  Uiso   1.00
Zn1776 Zn    0.95660   0.75000   0.71760   0.00000  Uiso   1.00
loop_
_geom_bond_atom_site_label_1
_geom_bond_atom_site_label_2
_geom_bond_distance
_geom_bond_site_symmetry_2
_ccdc_geom_bond_type
C1     H263    1.083   .     S
C1     C79     1.391   .     A
C1     C1000   1.404   .     S
C2     C117    1.404   .     A
C2     C104    1.391   .     A
C2     H296    1.083   .     S
C3     C131    1.459   .     S
C3     C167    1.417   .     A
C3     C160    1.419   .     A
C4     C132    1.460   .     S
C4     C170    1.419   .     A
C4     C159    1.420   .     A
C5     C158    1.415   .     A
C5     C133    1.453   .     S
C5     C169    1.417   .     A
C6     C172    1.417   .     A
C6     C157    1.413   .     A
C6     C134    1.452   .     S
C7     C156    1.419   .     A
C7     C171    1.417   .     A
C7     C135    1.459   .     S
C8     C145    1.452   .     S
C8     C175    1.413   .     A
C8     C155    1.417   .     A
C9     C146    1.459   .     S
C9     C173    1.419   .     A
C9     C154    1.417   .     A
C10    C138    1.460   .     S
C10    C177    1.420   .     A
C10    C153    1.418   .     A
C11    C176    1.416   .     A
C11    C151    1.417   .     A
C11    C139    1.453   .     S
C12    C150    1.417   .     A
C12    C140    1.452   .     S
C12    C179    1.413   .     A
C13    H297    1.083   .     S
C13    C118    1.404   .     A
C13    C105    1.391   .     A
C14    C149    1.416   .     A
C14    C142    1.459   .     S
C14    C178    1.416   .     A
C15    C148    1.418   .     A
C15    C143    1.460   .     S
C15    C181    1.420   .     A
C16    C144    1.453   .     S
C16    C180    1.415   .     A
C16    C147    1.417   .     A
C17    C128    1.462   .     S
C17    C99     1.402   .     A
C17    C967    1.402   1_545 S
C18    C100    1.402   .     A
C18    C127    1.463   .     S
C18    C978    1.402   1_545 S
C19    C126    1.463   .     S
C19    C96     1.402   .     A
C19    C545    1.402   1_455 S
C20    C125    1.462   .     S
C20    C98     1.402   .     A
C20    C546    1.402   1_455 S
C21    C107    1.402   .     A
C21    C547    1.402   1_455 S
C21    C124    1.462   .     S
C22    C123    1.463   .     S
C22    C104    1.402   .     A
C22    C553    1.402   1_455 S
C23    C122    1.463   .     S
C23    C993    1.402   1_545 A
C23    C110    1.402   .     S
C24    C106    1.391   .     A
C24    H298    1.083   .     S
C24    C1008   1.404   1_545 S
C25    C1009   1.462   .     S
C25    C111    1.402   .     A
C25    C994    1.402   .     S
C26    C27     1.531   .     S
C26    C147    1.531   .     S
C26    H308    1.109   .     S
C26    H307    1.109   .     S
C27    H304    1.108   .     S
C27    H306    1.108   .     S
C27    H305    1.110   .     S
C28    H313    1.107   .     S
C28    C29     1.525   .     S
C28    H314    1.105   .     S
C28    C148    1.529   .     S
C29    H310    1.109   .     S
C29    H309    1.110   .     S
C29    H312    1.108   .     S
C30    C149    1.527   .     S
C30    H318    1.104   .     S
C30    C31     1.533   .     S
C30    H319    1.110   .     S
C31    H317    1.109   .     S
C31    H316    1.110   .     S
C31    H315    1.108   .     S
C32    C33     1.533   .     S
C32    C150    1.535   .     S
C32    H324    1.102   .     S
C32    H325    1.111   .     S
C33    H321    1.108   .     S
C33    H323    1.110   .     S
C33    H320    1.111   .     S
C34    H330    1.109   .     S
C34    C36     1.531   .     S
C34    H329    1.109   .     S
C34    C151    1.531   .     S
C35    C107    1.391   .     A
C35    C116    1.404   .     A
C35    H299    1.083   .     S
C36    H328    1.108   .     S
C36    H327    1.110   .     S
C36    H326    1.108   .     S
C37    C38     1.525   .     S
C37    H335    1.107   .     S
C37    C153    1.529   .     S
C37    H336    1.105   .     S
C38    H331    1.110   .     S
C38    H334    1.108   .     S
C38    H332    1.109   .     S
C39    C154    1.528   .     S
C39    C40     1.533   .     S
C39    H340    1.104   .     S
C39    H341    1.110   .     S
C40    H339    1.109   .     S
C40    H337    1.107   .     S
C40    H338    1.110   .     S
C41    H347    1.111   .     S
C41    C155    1.535   .     S
C41    C42     1.533   .     S
C41    H346    1.102   .     S
C42    H345    1.110   .     S
C42    H342    1.111   .     S
C42    H343    1.108   .     S
C43    C44     1.528   .     S
C43    H352    1.108   .     S
C43    H351    1.105   .     S
C43    C156    1.531   .     S
C44    H349    1.111   .     S
C44    H348    1.106   .     S
C44    H350    1.109   .     S
C45    H357    1.109   .     S
C45    C47     1.528   .     S
C45    C157    1.533   .     S
C45    H358    1.108   .     S
C46    H301    1.083   .     S
C46    C109    1.391   .     A
C46    C561    1.404   .     S
C47    H353    1.110   .     S
C47    H356    1.106   .     S
C47    H354    1.110   .     S
C48    C158    1.533   .     S
C48    H362    1.110   .     S
C48    C49     1.530   .     S
C48    H363    1.108   .     S
C49    H361    1.110   .     S
C49    H359    1.109   .     S
C49    H360    1.109   .     S
C50    H369    1.104   .     S
C50    H368    1.107   .     S
C50    C51     1.523   .     S
C50    C159    1.533   .     S
C51    H364    1.110   .     S
C51    H367    1.110   .     S
C51    H365    1.107   .     S
C52    C160    1.531   .     S
C52    C53     1.528   .     S
C52    H373    1.105   .     S
C52    H374    1.108   .     S
C53    H370    1.106   .     S
C53    H372    1.109   .     S
C53    H371    1.111   .     S
C54    H189    1.108   .     S
C54    C55     1.528   .     S
C54    C161    1.532   .     S
C54    H188    1.110   .     S
C55    H376    1.110   .     S
C55    H375    1.110   .     S
C55    H187    1.106   .     S
C56    C162    1.533   .     S
C56    C58     1.530   .     S
C56    H194    1.108   .     S
C56    H193    1.110   .     S
C57    H302    1.083   .     S
C57    C110    1.391   .     A
C57    C1006   1.404   1_545 S
C58    H192    1.110   .     S
C58    H190    1.109   .     S
C58    H191    1.109   .     S
C59    C164    1.533   .     S
C59    C60     1.523   .     S
C59    H200    1.104   .     S
C59    H199    1.107   .     S
C60    H198    1.110   .     S
C60    H195    1.110   .     S
C60    H196    1.107   .     S
C61    C62     1.531   .     S
C61    H205    1.109   .     S
C61    H204    1.109   .     S
C61    C165    1.531   .     S
C62    H201    1.108   .     S
C62    H202    1.110   .     S
C62    H203    1.108   .     S
C63    C166    1.529   .     S
C63    H210    1.107   .     S
C63    H211    1.105   .     S
C63    C64     1.525   .     S
C64    H207    1.109   .     S
C64    H206    1.110   .     S
C64    H209    1.108   .     S
C65    H216    1.110   .     S
C65    H215    1.104   .     S
C65    C167    1.528   .     S
C65    C66     1.533   .     S
C66    H212    1.107   .     S
C66    H213    1.110   .     S
C66    H214    1.109   .     S
C67    C168    1.530   .     S
C67    H221    1.110   .     S
C67    C69     1.528   .     S
C67    H222    1.107   .     S
C68    H303    1.083   .     S
C68    C120    1.404   .     A
C68    C111    1.391   .     A
C69    H218    1.109   .     S
C69    H220    1.111   .     S
C69    H217    1.110   .     S
C70    H226    1.109   .     S
C70    C169    1.531   .     S
C70    C71     1.531   .     S
C70    H227    1.109   .     S
C71    H225    1.109   .     S
C71    H224    1.110   .     S
C71    H223    1.108   .     S
C72    H232    1.107   .     S
C72    H233    1.105   .     S
C72    C73     1.525   .     S
C72    C170    1.530   .     S
C73    H229    1.109   .     S
C73    H231    1.109   .     S
C73    H228    1.110   .     S
C74    H238    1.110   .     S
C74    C171    1.528   .     S
C74    C75     1.533   .     S
C74    H237    1.104   .     S
C75    H236    1.109   .     S
C75    H234    1.107   .     S
C75    H235    1.110   .     S
C76    C172    1.535   .     S
C76    H243    1.102   .     S
C76    H244    1.111   .     S
C76    C77     1.533   .     S
C77    H240    1.108   .     S
C77    H239    1.111   .     S
C77    H242    1.110   .     S
C78    C80     1.528   .     S
C78    H248    1.105   .     S
C78    C173    1.531   .     S
C78    H249    1.108   .     S
C79    H185    1.083   .     S
C79    C905    1.402   .     S
C80    H247    1.109   .     S
C80    H246    1.111   .     S
C80    H245    1.106   .     S
C81    H255    1.108   .     S
C81    C175    1.533   .     S
C81    C82     1.528   .     S
C81    H254    1.109   .     S
C82    H253    1.106   .     S
C82    H250    1.110   .     S
C82    H251    1.110   .     S
C83    H260    1.108   .     S
C83    C84     1.530   .     S
C83    H259    1.110   .     S
C83    C176    1.532   .     S
C84    H256    1.109   .     S
C84    H257    1.109   .     S
C84    H258    1.110   .     S
C85    C86     1.523   .     S
C85    H266    1.104   .     S
C85    C177    1.533   .     S
C85    H265    1.107   .     S
C86    H264    1.110   .     S
C86    H262    1.107   .     S
C86    H261    1.110   .     S
C87    H270    1.107   .     S
C87    C88     1.529   .     S
C87    C178    1.526   .     S
C87    H271    1.107   .     S
C88    H268    1.109   .     S
C88    H269    1.110   .     S
C88    H267    1.110   .     S
C89    C91     1.528   .     S
C89    H277    1.108   .     S
C89    H276    1.109   .     S
C89    C179    1.533   .     S
C90    H289    1.083   .     S
C90    C97     1.391   .     A
C90    C906    1.402   .     S
C91    H272    1.110   .     S
C91    H275    1.106   .     S
C91    H273    1.110   .     S
C92    C180    1.533   .     S
C92    C93     1.530   .     S
C92    H282    1.108   .     S
C92    H281    1.110   .     S
C93    H279    1.109   .     S
C93    H280    1.110   .     S
C93    H278    1.109   .     S
C94    H287    1.107   .     S
C94    C181    1.533   .     S
C94    H288    1.104   .     S
C94    C95     1.523   .     S
C95    H286    1.110   .     S
C95    H284    1.107   .     S
C95    H283    1.110   .     S
C96    C108    1.391   .     A
C96    H300    1.083   .     S
C97    H274    1.083   .     S
C97    C1001   1.404   .     S
C98    H311    1.083   .     S
C98    C119    1.391   .     A
C99    H322    1.083   .     S
C99    C130    1.391   .     A
C100   H333    1.083   .     S
C100   C141    1.391   .     A
C101   H344    1.083   .     S
C101   C152    1.391   .     A
C101   C463    1.402   .     S
C102   C163    1.391   .     A
C102   H355    1.083   .     S
C102   C464    1.402   .     S
C103   C174    1.391   .     A
C103   H366    1.083   .     S
C103   C465    1.402   .     S
C104   H186    1.083   .     S
C105   H197    1.083   .     S
C105   C911    1.402   .     A
C106   H208    1.083   .     S
C106   C913    1.402   1_545 S
C107   H219    1.083   .     S
C108   C114    1.404   .     A
C108   H285    1.083   .     S
C109   H230    1.083   .     S
C109   C466    1.402   .     S
C110   H241    1.083   .     S
C111   H252    1.083   .     S
C112   C130    1.404   .     A
C112   C889    1.404   1_545 S
C112   C113    1.473   1_554 S
C113   C141    1.404   .     A
C113   C112    1.473   1_556 S
C113   C985    1.404   1_545 S
C114   C115    1.473   1_554 S
C114   C596    1.404   1_455 S
C115   C119    1.404   .     A
C115   C114    1.473   1_556 S
C115   C607    1.404   1_455 S
C116   C117    1.473   .     S
C116   C618    1.404   1_455 S
C117   C490    1.404   1_455 S
C118   C120    1.473   .     S
C118   C945    1.404   .     S
C119   H290    1.083   .     S
C120   C912    1.404   .     S
C121   O1309   1.281   1_545 A
C121   C913    1.462   1_545 S
C121   O428    1.281   .     S
C122   O1266   1.281   1_545 A
C122   O425    1.281   .     S
C123   O426    1.280   .     A
C123   O823    1.280   1_455 S
C124   O871    1.280   1_455 A
C124   O380    1.280   .     S
C125   O381    1.281   .     A
C125   O385    1.281   .     S
C126   O386    1.281   .     A
C126   O382    1.281   .     S
C127   O383    1.280   .     S
C127   O387    1.280   .     S
C128   O389    1.280   .     A
C128   O384    1.280   .     A
C129   O390    1.277   .     A
C129   C184    1.452   .     S
C129   O418    1.273   .     A
C130   H291    1.083   .     S
C131   O419    1.273   .     A
C131   O391    1.282   .     A
C132   O416    1.275   .     A
C132   O392    1.279   .     A
C133   O417    1.275   .     A
C133   O393    1.275   .     A
C134   O394    1.276   .     A
C134   O423    1.274   .     A
C135   O395    1.282   .     A
C135   O424    1.273   .     A
C136   C182    1.460   .     S
C136   O396    1.280   .     A
C136   O420    1.274   .     A
C137   O397    1.275   .     A
C137   O422    1.275   .     A
C137   C183    1.453   .     S
C138   O409    1.280   .     A
C138   O398    1.275   .     A
C139   O400    1.275   .     A
C139   O411    1.275   .     A
C140   O407    1.276   .     A
C140   O401    1.274   .     A
C141   H292    1.083   .     S
C142   O408    1.282   .     A
C142   O402    1.273   .     A
C143   O414    1.280   .     A
C143   O403    1.275   .     A
C144   O415    1.275   .     A
C144   O404    1.276   .     A
C145   O412    1.276   .     A
C145   O405    1.274   .     A
C146   O413    1.282   .     A
C146   O406    1.273   .     A
C147   C164    1.414   .     A
C148   C162    1.413   .     A
C149   C161    1.413   .     A
C150   C160    1.418   .     A
C151   C159    1.414   .     A
C152   H293    1.083   .     S
C152   C558    1.404   .     S
C153   C158    1.413   .     A
C154   C157    1.412   .     A
C155   C156    1.418   .     A
C161   C184    1.414   .     A
C162   C183    1.415   .     A
C163   H294    1.083   .     S
C163   C559    1.404   .     S
C164   C182    1.420   .     A
C165   C183    1.417   .     A
C165   C181    1.414   .     A
C166   C182    1.418   .     A
C166   C180    1.413   .     A
C167   C179    1.412   .     A
C168   C184    1.415   .     A
C168   C178    1.413   .     A
C169   C177    1.414   .     A
C170   C176    1.413   .     A
C171   C175    1.412   .     A
C172   C173    1.418   .     A
C174   H295    1.083   .     S
C174   C560    1.404   .     S
O377   Zn1324  1.945   1_545 S
O377   Zn429   1.942   .     S
O377   Zn432   1.945   .     S
O377   Zn440   1.943   .     S
O378   Zn431   1.940   .     S
O378   C1010   1.281   .     A
O379   Zn434   1.940   .     S
O379   C567    1.280   .     S
O380   Zn433   1.940   .     S
O381   Zn443   1.940   .     S
O382   Zn442   1.940   .     S
O383   Zn437   1.940   .     S
O384   Zn429   1.940   .     S
O385   Zn439   1.940   .     S
O386   Zn438   1.940   .     S
O387   Zn441   1.940   .     S
O388   Zn1319  1.945   1_545 S
O388   Zn437   1.942   .     S
O388   Zn441   1.943   .     S
O388   Zn435   1.945   .     S
O389   Zn440   1.940   .     S
O390   Zn432   1.932   .     S
O391   Zn431   1.932   .     S
O392   Zn434   1.935   .     S
O393   Zn433   1.935   .     S
O394   Zn436   1.932   .     S
O395   Zn435   1.932   .     S
O396   Zn430   1.935   .     S
O397   Zn444   1.935   .     S
O398   Zn431   1.934   .     S
O399   Zn878   1.943   1_455 S
O399   Zn438   1.945   .     S
O399   Zn442   1.945   .     S
O399   Zn430   1.942   .     S
O400   Zn432   1.934   .     S
O401   Zn444   1.933   .     S
O402   Zn430   1.933   .     S
O403   Zn435   1.934   .     S
O404   Zn436   1.934   .     S
O405   Zn433   1.933   .     S
O406   Zn434   1.933   .     S
O407   Zn883   1.932   .     S
O408   Zn438   1.932   .     S
O409   Zn1329  1.935   .     S
O410   Zn888   1.942   1_455 S
O410   Zn439   1.945   .     S
O410   Zn443   1.945   .     S
O410   Zn433   1.943   .     S
O411   Zn440   1.935   .     S
O412   Zn443   1.932   .     S
O413   Zn886   1.932   .     S
O414   Zn437   1.935   .     S
O415   Zn1317  1.935   .     S
O416   Zn882   1.934   .     S
O417   Zn439   1.934   .     S
O418   Zn429   1.933   .     S
O419   Zn1325  1.933   .     S
O420   Zn442   1.934   .     S
O421   C1009   1.281   .     A
O421   Zn436   1.940   .     S
O422   Zn887   1.934   .     S
O423   Zn1328  1.933   .     S
O424   Zn441   1.933   .     S
O425   Zn435   1.940   .     S
O426   Zn430   1.940   .     S
O427   C568    1.280   .     A
O427   Zn444   1.940   .     S
O428   Zn432   1.940   .     S
Zn429  O1303   1.935   1_545 S
Zn431  O1276   1.945   .     S
Zn434  O843    1.943   .     S
Zn436  O1265   1.945   .     S
Zn437  O1307   1.933   1_545 S
Zn438  O860    1.934   1_455 S
Zn439  O851    1.932   1_455 S
Zn440  O1311   1.933   1_545 S
Zn441  O1297   1.935   1_545 S
Zn442  O857    1.932   1_455 S
Zn443  O866    1.934   1_455 S
Zn444  O854    1.942   .     S
C445   H707    1.083   .     S
C445   C523    1.391   .     A
C445   C1444   1.404   .     S
C446   C561    1.404   .     A
C446   C548    1.391   .     A
C446   H740    1.083   .     S
C447   C575    1.459   .     S
C447   C611    1.417   .     A
C447   C604    1.419   .     A
C448   C576    1.460   .     S
C448   C614    1.419   .     A
C448   C603    1.420   .     A
C449   C602    1.415   .     A
C449   C577    1.453   .     S
C449   C613    1.417   .     A
C450   C616    1.417   .     A
C450   C601    1.413   .     A
C450   C578    1.452   .     S
C451   C600    1.419   .     A
C451   C615    1.417   .     A
C451   C579    1.459   .     S
C452   C589    1.452   .     S
C452   C619    1.413   .     A
C452   C599    1.417   .     A
C453   C590    1.459   .     S
C453   C617    1.419   .     A
C453   C598    1.417   .     A
C454   C582    1.460   .     S
C454   C621    1.420   .     A
C454   C597    1.418   .     A
C455   C620    1.416   .     A
C455   C595    1.417   .     A
C455   C583    1.453   .     S
C456   C594    1.417   .     A
C456   C584    1.452   .     S
C456   C623    1.413   .     A
C457   H741    1.083   .     S
C457   C562    1.404   .     A
C457   C549    1.391   .     A
C458   C593    1.416   .     A
C458   C586    1.459   .     S
C458   C622    1.416   .     A
C459   C592    1.418   .     A
C459   C587    1.460   .     S
C459   C625    1.420   .     A
C460   C588    1.453   .     S
C460   C624    1.415   .     A
C460   C591    1.417   .     A
C461   C572    1.462   .     S
C461   C543    1.402   .     A
C461   C1411   1.402   1_545 S
C462   C544    1.402   .     A
C462   C571    1.463   .     S
C462   C1422   1.402   1_545 S
C463   C570    1.463   .     S
C463   C540    1.402   .     A
C464   C569    1.462   .     S
C464   C542    1.402   .     A
C465   C551    1.402   .     A
C465   C568    1.462   .     S
C466   C567    1.463   .     S
C466   C548    1.402   .     A
C467   C566    1.463   .     S
C467   C1437   1.402   1_545 A
C467   C554    1.402   .     S
C468   C550    1.391   .     A
C468   H742    1.083   .     S
C468   C1452   1.404   1_545 S
C469   C1453   1.462   .     S
C469   C555    1.402   .     A
C469   C1438   1.402   .     S
C470   C471    1.531   .     S
C470   C591    1.531   .     S
C470   H752    1.109   .     S
C470   H751    1.109   .     S
C471   H748    1.108   .     S
C471   H750    1.108   .     S
C471   H749    1.110   .     S
C472   H757    1.107   .     S
C472   C473    1.525   .     S
C472   H758    1.105   .     S
C472   C592    1.529   .     S
C473   H754    1.109   .     S
C473   H753    1.110   .     S
C473   H756    1.108   .     S
C474   C593    1.527   .     S
C474   H762    1.104   .     S
C474   C475    1.533   .     S
C474   H763    1.110   .     S
C475   H761    1.109   .     S
C475   H760    1.110   .     S
C475   H759    1.108   .     S
C476   C477    1.533   .     S
C476   C594    1.535   .     S
C476   H768    1.102   .     S
C476   H769    1.111   .     S
C477   H765    1.108   .     S
C477   H767    1.110   .     S
C477   H764    1.111   .     S
C478   H774    1.109   .     S
C478   C480    1.531   .     S
C478   H773    1.109   .     S
C478   C595    1.531   .     S
C479   C551    1.391   .     A
C479   C560    1.404   .     A
C479   H743    1.083   .     S
C480   H772    1.108   .     S
C480   H771    1.110   .     S
C480   H770    1.108   .     S
C481   C482    1.525   .     S
C481   H779    1.107   .     S
C481   C597    1.529   .     S
C481   H780    1.105   .     S
C482   H775    1.110   .     S
C482   H778    1.108   .     S
C482   H776    1.109   .     S
C483   C598    1.528   .     S
C483   C484    1.533   .     S
C483   H784    1.104   .     S
C483   H785    1.110   .     S
C484   H783    1.109   .     S
C484   H781    1.107   .     S
C484   H782    1.110   .     S
C485   H791    1.111   .     S
C485   C599    1.535   .     S
C485   C486    1.533   .     S
C485   H790    1.102   .     S
C486   H789    1.110   .     S
C486   H786    1.111   .     S
C486   H787    1.108   .     S
C487   C488    1.528   .     S
C487   H796    1.108   .     S
C487   H795    1.105   .     S
C487   C600    1.531   .     S
C488   H793    1.111   .     S
C488   H792    1.106   .     S
C488   H794    1.109   .     S
C489   H801    1.109   .     S
C489   C491    1.528   .     S
C489   C601    1.533   .     S
C489   H802    1.108   .     S
C490   H745    1.083   .     S
C490   C553    1.391   .     A
C490   C117    1.404   1_655 S
C491   H797    1.110   .     S
C491   H800    1.106   .     S
C491   H798    1.110   .     S
C492   C602    1.533   .     S
C492   H806    1.110   .     S
C492   C493    1.530   .     S
C492   H807    1.108   .     S
C493   H805    1.110   .     S
C493   H803    1.109   .     S
C493   H804    1.109   .     S
C494   H813    1.104   .     S
C494   H812    1.107   .     S
C494   C495    1.523   .     S
C494   C603    1.533   .     S
C495   H808    1.110   .     S
C495   H811    1.110   .     S
C495   H809    1.107   .     S
C496   C604    1.531   .     S
C496   C497    1.528   .     S
C496   H817    1.105   .     S
C496   H818    1.108   .     S
C497   H814    1.106   .     S
C497   H816    1.109   .     S
C497   H815    1.111   .     S
C498   H633    1.108   .     S
C498   C499    1.528   .     S
C498   C605    1.532   .     S
C498   H632    1.110   .     S
C499   H820    1.110   .     S
C499   H819    1.110   .     S
C499   H631    1.106   .     S
C500   C606    1.533   .     S
C500   C502    1.530   .     S
C500   H638    1.108   .     S
C500   H637    1.110   .     S
C501   H746    1.083   .     S
C501   C554    1.391   .     A
C501   C1450   1.404   1_545 S
C502   H636    1.110   .     S
C502   H634    1.109   .     S
C502   H635    1.109   .     S
C503   C608    1.533   .     S
C503   C504    1.523   .     S
C503   H644    1.104   .     S
C503   H643    1.107   .     S
C504   H642    1.110   .     S
C504   H639    1.110   .     S
C504   H640    1.107   .     S
C505   C506    1.531   .     S
C505   H649    1.109   .     S
C505   H648    1.109   .     S
C505   C609    1.531   .     S
C506   H645    1.108   .     S
C506   H646    1.110   .     S
C506   H647    1.108   .     S
C507   C610    1.529   .     S
C507   H654    1.107   .     S
C507   H655    1.105   .     S
C507   C508    1.525   .     S
C508   H651    1.109   .     S
C508   H650    1.110   .     S
C508   H653    1.108   .     S
C509   H660    1.110   .     S
C509   H659    1.104   .     S
C509   C611    1.528   .     S
C509   C510    1.533   .     S
C510   H656    1.107   .     S
C510   H657    1.110   .     S
C510   H658    1.109   .     S
C511   C612    1.530   .     S
C511   H665    1.110   .     S
C511   C513    1.528   .     S
C511   H666    1.107   .     S
C512   H747    1.083   .     S
C512   C564    1.404   .     A
C512   C555    1.391   .     A
C513   H662    1.109   .     S
C513   H664    1.111   .     S
C513   H661    1.110   .     S
C514   H670    1.109   .     S
C514   C613    1.531   .     S
C514   C515    1.531   .     S
C514   H671    1.109   .     S
C515   H669    1.109   .     S
C515   H668    1.110   .     S
C515   H667    1.108   .     S
C516   H676    1.107   .     S
C516   H677    1.105   .     S
C516   C517    1.525   .     S
C516   C614    1.530   .     S
C517   H673    1.109   .     S
C517   H675    1.109   .     S
C517   H672    1.110   .     S
C518   H682    1.110   .     S
C518   C615    1.528   .     S
C518   C519    1.533   .     S
C518   H681    1.104   .     S
C519   H680    1.109   .     S
C519   H678    1.107   .     S
C519   H679    1.110   .     S
C520   C616    1.535   .     S
C520   H687    1.102   .     S
C520   H688    1.111   .     S
C520   C521    1.533   .     S
C521   H684    1.108   .     S
C521   H683    1.111   .     S
C521   H686    1.110   .     S
C522   C524    1.528   .     S
C522   H692    1.105   .     S
C522   C617    1.531   .     S
C522   H693    1.108   .     S
C523   H629    1.083   .     S
C523   C1349   1.402   .     S
C524   H691    1.109   .     S
C524   H690    1.111   .     S
C524   H689    1.106   .     S
C525   H699    1.108   .     S
C525   C619    1.533   .     S
C525   C526    1.528   .     S
C525   H698    1.109   .     S
C526   H697    1.106   .     S
C526   H694    1.110   .     S
C526   H695    1.110   .     S
C527   H704    1.108   .     S
C527   C528    1.530   .     S
C527   H703    1.110   .     S
C527   C620    1.532   .     S
C528   H700    1.109   .     S
C528   H701    1.109   .     S
C528   H702    1.110   .     S
C529   C530    1.523   .     S
C529   H710    1.104   .     S
C529   C621    1.533   .     S
C529   H709    1.107   .     S
C530   H708    1.110   .     S
C530   H706    1.107   .     S
C530   H705    1.110   .     S
C531   H714    1.107   .     S
C531   C532    1.529   .     S
C531   C622    1.526   .     S
C531   H715    1.107   .     S
C532   H712    1.109   .     S
C532   H713    1.110   .     S
C532   H711    1.110   .     S
C533   C535    1.528   .     S
C533   H721    1.108   .     S
C533   H720    1.109   .     S
C533   C623    1.533   .     S
C534   H733    1.083   .     S
C534   C541    1.391   .     A
C534   C1350   1.402   .     S
C535   H716    1.110   .     S
C535   H719    1.106   .     S
C535   H717    1.110   .     S
C536   C624    1.533   .     S
C536   C537    1.530   .     S
C536   H726    1.108   .     S
C536   H725    1.110   .     S
C537   H723    1.109   .     S
C537   H724    1.110   .     S
C537   H722    1.109   .     S
C538   H731    1.107   .     S
C538   C625    1.533   .     S
C538   H732    1.104   .     S
C538   C539    1.523   .     S
C539   H730    1.110   .     S
C539   H728    1.107   .     S
C539   H727    1.110   .     S
C540   C552    1.391   .     A
C540   H744    1.083   .     S
C541   H718    1.083   .     S
C541   C1445   1.404   .     S
C542   H755    1.083   .     S
C542   C563    1.391   .     A
C543   H766    1.083   .     S
C543   C574    1.391   .     A
C544   H777    1.083   .     S
C544   C585    1.391   .     A
C545   H788    1.083   .     S
C545   C596    1.391   .     A
C545   C19     1.402   1_655 S
C546   C607    1.391   .     A
C546   H799    1.083   .     S
C546   C20     1.402   1_655 S
C547   C618    1.391   .     A
C547   H810    1.083   .     S
C547   C21     1.402   1_655 S
C548   H630    1.083   .     S
C549   H641    1.083   .     S
C549   C1355   1.402   .     A
C550   H652    1.083   .     S
C550   C1357   1.402   1_545 S
C551   H663    1.083   .     S
C552   C558    1.404   .     A
C552   H729    1.083   .     S
C553   H674    1.083   .     S
C553   C22     1.402   1_655 S
C554   H685    1.083   .     S
C555   H696    1.083   .     S
C556   C574    1.404   .     A
C556   C1333   1.404   1_545 S
C556   C557    1.473   1_554 S
C557   C585    1.404   .     A
C557   C556    1.473   1_556 S
C557   C1429   1.404   1_545 S
C558   C559    1.473   1_554 S
C559   C563    1.404   .     A
C559   C558    1.473   1_556 S
C560   C561    1.473   .     S
C562   C564    1.473   .     S
C562   C1389   1.404   .     S
C563   H734    1.083   .     S
C564   C1356   1.404   .     S
C565   O1753   1.281   1_545 A
C565   C1357   1.462   1_545 S
C565   O872    1.281   .     S
C566   O1710   1.281   1_545 A
C566   O869    1.281   .     S
C567   O870    1.280   .     A
C568   O824    1.280   .     S
C569   O825    1.281   .     A
C569   O829    1.281   .     S
C570   O830    1.281   .     A
C570   O826    1.281   .     S
C571   O827    1.280   .     S
C571   O831    1.280   .     S
C572   O833    1.280   .     A
C572   O828    1.280   .     A
C573   O834    1.277   .     A
C573   C628    1.452   .     S
C573   O862    1.273   .     A
C574   H735    1.083   .     S
C575   O863    1.273   .     A
C575   O835    1.282   .     A
C576   O860    1.275   .     A
C576   O836    1.279   .     A
C577   O861    1.275   .     A
C577   O837    1.275   .     A
C578   O838    1.276   .     A
C578   O867    1.274   .     A
C579   O839    1.282   .     A
C579   O868    1.273   .     A
C580   C626    1.460   .     S
C580   O840    1.280   .     A
C580   O864    1.274   .     A
C581   O841    1.275   .     A
C581   O866    1.275   .     A
C581   C627    1.453   .     S
C582   O853    1.280   .     A
C582   O842    1.275   .     A
C583   O844    1.275   .     A
C583   O855    1.275   .     A
C584   O851    1.276   .     A
C584   O845    1.274   .     A
C585   H736    1.083   .     S
C586   O852    1.282   .     A
C586   O846    1.273   .     A
C587   O858    1.280   .     A
C587   O847    1.275   .     A
C588   O859    1.275   .     A
C588   O848    1.276   .     A
C589   O856    1.276   .     A
C589   O849    1.274   .     A
C590   O857    1.282   .     A
C590   O850    1.273   .     A
C591   C608    1.414   .     A
C592   C606    1.413   .     A
C593   C605    1.413   .     A
C594   C604    1.418   .     A
C595   C603    1.414   .     A
C596   H737    1.083   .     S
C596   C114    1.404   1_655 S
C597   C602    1.413   .     A
C598   C601    1.412   .     A
C599   C600    1.418   .     A
C605   C628    1.414   .     A
C606   C627    1.415   .     A
C607   H738    1.083   .     S
C607   C115    1.404   1_655 S
C608   C626    1.420   .     A
C609   C627    1.417   .     A
C609   C625    1.414   .     A
C610   C626    1.418   .     A
C610   C624    1.413   .     A
C611   C623    1.412   .     A
C612   C628    1.415   .     A
C612   C622    1.413   .     A
C613   C621    1.414   .     A
C614   C620    1.413   .     A
C615   C619    1.412   .     A
C616   C617    1.418   .     A
C618   H739    1.083   .     S
C618   C116    1.404   1_655 S
O821   Zn1768  1.945   1_545 S
O821   Zn873   1.942   .     S
O821   Zn876   1.945   .     S
O821   Zn884   1.943   .     S
O822   Zn875   1.940   .     S
O822   C1454   1.281   .     A
O823   Zn878   1.940   .     S
O823   C123    1.280   1_655 S
O824   Zn877   1.940   .     S
O825   Zn887   1.940   .     S
O826   Zn886   1.940   .     S
O827   Zn881   1.940   .     S
O828   Zn873   1.940   .     S
O829   Zn883   1.940   .     S
O830   Zn882   1.940   .     S
O831   Zn885   1.940   .     S
O832   Zn1763  1.945   1_545 S
O832   Zn881   1.942   .     S
O832   Zn885   1.943   .     S
O832   Zn879   1.945   .     S
O833   Zn884   1.940   .     S
O834   Zn876   1.932   .     S
O835   Zn875   1.932   .     S
O836   Zn878   1.935   .     S
O837   Zn877   1.935   .     S
O838   Zn880   1.932   .     S
O839   Zn879   1.932   .     S
O840   Zn874   1.935   .     S
O841   Zn888   1.935   .     S
O842   Zn875   1.934   .     S
O843   Zn882   1.945   .     S
O843   Zn886   1.945   .     S
O843   Zn874   1.942   .     S
O844   Zn876   1.934   .     S
O845   Zn888   1.933   .     S
O846   Zn874   1.933   .     S
O847   Zn879   1.934   .     S
O848   Zn880   1.934   .     S
O849   Zn877   1.933   .     S
O850   Zn878   1.933   .     S
O851   Zn439   1.932   1_655 S
O852   Zn882   1.932   .     S
O853   Zn1773  1.935   .     S
O854   Zn883   1.945   .     S
O854   Zn887   1.945   .     S
O854   Zn877   1.943   .     S
O855   Zn884   1.935   .     S
O856   Zn887   1.932   .     S
O857   Zn442   1.932   1_655 S
O858   Zn881   1.935   .     S
O859   Zn1761  1.935   .     S
O860   Zn438   1.934   1_655 S
O861   Zn883   1.934   .     S
O862   Zn873   1.933   .     S
O863   Zn1769  1.933   .     S
O864   Zn886   1.934   .     S
O865   C1453   1.281   .     A
O865   Zn880   1.940   .     S
O866   Zn443   1.934   1_655 S
O867   Zn1772  1.933   .     S
O868   Zn885   1.933   .     S
O869   Zn879   1.940   .     S
O870   Zn874   1.940   .     S
O871   C124    1.280   1_655 A
O871   Zn888   1.940   .     S
O872   Zn876   1.940   .     S
Zn873  O1747   1.935   1_545 S
Zn875  O1720   1.945   .     S
Zn878  O399    1.943   1_655 S
Zn880  O1709   1.945   .     S
Zn881  O1751   1.933   1_545 S
Zn884  O1755   1.933   1_545 S
Zn885  O1741   1.935   1_545 S
Zn888  O410    1.942   1_655 S
C889   H1151   1.083   .     S
C889   C967    1.391   .     A
C889   C112    1.404   1_565 S
C890   C1005   1.404   .     A
C890   C992    1.391   .     A
C890   H1184   1.083   .     S
C891   C1019   1.459   .     S
C891   C1055   1.417   .     A
C891   C1048   1.419   .     A
C892   C1020   1.460   .     S
C892   C1058   1.419   .     A
C892   C1047   1.420   .     A
C893   C1046   1.415   .     A
C893   C1021   1.453   .     S
C893   C1057   1.417   .     A
C894   C1060   1.417   .     A
C894   C1045   1.413   .     A
C894   C1022   1.452   .     S
C895   C1044   1.419   .     A
C895   C1059   1.417   .     A
C895   C1023   1.459   .     S
C896   C1033   1.452   .     S
C896   C1063   1.413   .     A
C896   C1043   1.417   .     A
C897   C1034   1.459   .     S
C897   C1061   1.419   .     A
C897   C1042   1.417   .     A
C898   C1026   1.460   .     S
C898   C1065   1.420   .     A
C898   C1041   1.418   .     A
C899   C1064   1.416   .     A
C899   C1039   1.417   .     A
C899   C1027   1.453   .     S
C900   C1038   1.417   .     A
C900   C1028   1.452   .     S
C900   C1067   1.413   .     A
C901   H1185   1.083   .     S
C901   C1006   1.404   .     A
C901   C993    1.391   .     A
C902   C1037   1.416   .     A
C902   C1030   1.459   .     S
C902   C1066   1.416   .     A
C903   C1036   1.418   .     A
C903   C1031   1.460   .     S
C903   C1069   1.420   .     A
C904   C1032   1.453   .     S
C904   C1068   1.415   .     A
C904   C1035   1.417   .     A
C905   C1016   1.462   .     S
C905   C987    1.402   .     A
C906   C988    1.402   .     A
C906   C1015   1.463   .     S
C907   C1014   1.463   .     S
C907   C984    1.402   .     A
C907   C1433   1.402   1_455 S
C908   C1013   1.462   .     S
C908   C986    1.402   .     A
C908   C1434   1.402   1_455 S
C909   C995    1.402   .     A
C909   C1435   1.402   1_455 S
C909   C1012   1.462   .     S
C910   C1011   1.463   .     S
C910   C992    1.402   .     A
C910   C1441   1.402   1_455 S
C911   C1010   1.463   .     S
C911   C998    1.402   .     S
C912   C994    1.391   .     A
C912   H1186   1.083   .     S
C913   C121    1.462   1_565 S
C913   C999    1.402   .     A
C913   C106    1.402   1_565 S
C914   C915    1.531   .     S
C914   C1035   1.531   .     S
C914   H1196   1.109   .     S
C914   H1195   1.109   .     S
C915   H1192   1.108   .     S
C915   H1194   1.108   .     S
C915   H1193   1.110   .     S
C916   H1201   1.107   .     S
C916   C917    1.525   .     S
C916   H1202   1.105   .     S
C916   C1036   1.529   .     S
C917   H1198   1.109   .     S
C917   H1197   1.110   .     S
C917   H1200   1.108   .     S
C918   C1037   1.527   .     S
C918   H1206   1.104   .     S
C918   C919    1.533   .     S
C918   H1207   1.110   .     S
C919   H1205   1.109   .     S
C919   H1204   1.110   .     S
C919   H1203   1.108   .     S
C920   C921    1.533   .     S
C920   C1038   1.535   .     S
C920   H1212   1.102   .     S
C920   H1213   1.111   .     S
C921   H1209   1.108   .     S
C921   H1211   1.110   .     S
C921   H1208   1.111   .     S
C922   H1218   1.109   .     S
C922   C924    1.531   .     S
C922   H1217   1.109   .     S
C922   C1039   1.531   .     S
C923   C995    1.391   .     A
C923   C1004   1.404   .     A
C923   H1187   1.083   .     S
C924   H1216   1.108   .     S
C924   H1215   1.110   .     S
C924   H1214   1.108   .     S
C925   C926    1.525   .     S
C925   H1223   1.107   .     S
C925   C1041   1.529   .     S
C925   H1224   1.105   .     S
C926   H1219   1.110   .     S
C926   H1222   1.108   .     S
C926   H1220   1.109   .     S
C927   C1042   1.528   .     S
C927   C928    1.533   .     S
C927   H1228   1.104   .     S
C927   H1229   1.110   .     S
C928   H1227   1.109   .     S
C928   H1225   1.107   .     S
C928   H1226   1.110   .     S
C929   H1235   1.111   .     S
C929   C1043   1.535   .     S
C929   C930    1.533   .     S
C929   H1234   1.102   .     S
C930   H1233   1.110   .     S
C930   H1230   1.111   .     S
C930   H1231   1.108   .     S
C931   C932    1.528   .     S
C931   H1240   1.108   .     S
C931   H1239   1.105   .     S
C931   C1044   1.531   .     S
C932   H1237   1.111   .     S
C932   H1236   1.106   .     S
C932   H1238   1.109   .     S
C933   H1245   1.109   .     S
C933   C935    1.528   .     S
C933   C1045   1.533   .     S
C933   H1246   1.108   .     S
C934   H1189   1.083   .     S
C934   C997    1.391   .     A
C934   C1449   1.404   .     S
C935   H1241   1.110   .     S
C935   H1244   1.106   .     S
C935   H1242   1.110   .     S
C936   C1046   1.533   .     S
C936   H1250   1.110   .     S
C936   C937    1.530   .     S
C936   H1251   1.108   .     S
C937   H1249   1.110   .     S
C937   H1247   1.109   .     S
C937   H1248   1.109   .     S
C938   H1257   1.104   .     S
C938   H1256   1.107   .     S
C938   C939    1.523   .     S
C938   C1047   1.533   .     S
C939   H1252   1.110   .     S
C939   H1255   1.110   .     S
C939   H1253   1.107   .     S
C940   C1048   1.531   .     S
C940   C941    1.528   .     S
C940   H1261   1.105   .     S
C940   H1262   1.108   .     S
C941   H1258   1.106   .     S
C941   H1260   1.109   .     S
C941   H1259   1.111   .     S
C942   H1077   1.108   .     S
C942   C943    1.528   .     S
C942   C1049   1.532   .     S
C942   H1076   1.110   .     S
C943   H1264   1.110   .     S
C943   H1263   1.110   .     S
C943   H1075   1.106   .     S
C944   C1050   1.533   .     S
C944   C946    1.530   .     S
C944   H1082   1.108   .     S
C944   H1081   1.110   .     S
C945   H1190   1.083   .     S
C945   C998    1.391   .     A
C946   H1080   1.110   .     S
C946   H1078   1.109   .     S
C946   H1079   1.109   .     S
C947   C1052   1.533   .     S
C947   C948    1.523   .     S
C947   H1088   1.104   .     S
C947   H1087   1.107   .     S
C948   H1086   1.110   .     S
C948   H1083   1.110   .     S
C948   H1084   1.107   .     S
C949   C950    1.531   .     S
C949   H1093   1.109   .     S
C949   H1092   1.109   .     S
C949   C1053   1.531   .     S
C950   H1089   1.108   .     S
C950   H1090   1.110   .     S
C950   H1091   1.108   .     S
C951   C1054   1.529   .     S
C951   H1098   1.107   .     S
C951   H1099   1.105   .     S
C951   C952    1.525   .     S
C952   H1095   1.109   .     S
C952   H1094   1.110   .     S
C952   H1097   1.108   .     S
C953   H1104   1.110   .     S
C953   H1103   1.104   .     S
C953   C1055   1.528   .     S
C953   C954    1.533   .     S
C954   H1100   1.107   .     S
C954   H1101   1.110   .     S
C954   H1102   1.109   .     S
C955   C1056   1.530   .     S
C955   H1109   1.110   .     S
C955   C957    1.528   .     S
C955   H1110   1.107   .     S
C956   H1191   1.083   .     S
C956   C1008   1.404   .     A
C956   C999    1.391   .     A
C957   H1106   1.109   .     S
C957   H1108   1.111   .     S
C957   H1105   1.110   .     S
C958   H1114   1.109   .     S
C958   C1057   1.531   .     S
C958   C959    1.531   .     S
C958   H1115   1.109   .     S
C959   H1113   1.109   .     S
C959   H1112   1.110   .     S
C959   H1111   1.108   .     S
C960   H1120   1.107   .     S
C960   H1121   1.105   .     S
C960   C961    1.525   .     S
C960   C1058   1.530   .     S
C961   H1117   1.109   .     S
C961   H1119   1.109   .     S
C961   H1116   1.110   .     S
C962   H1126   1.110   .     S
C962   C1059   1.528   .     S
C962   C963    1.533   .     S
C962   H1125   1.104   .     S
C963   H1124   1.109   .     S
C963   H1122   1.107   .     S
C963   H1123   1.110   .     S
C964   C1060   1.535   .     S
C964   H1131   1.102   .     S
C964   H1132   1.111   .     S
C964   C965    1.533   .     S
C965   H1128   1.108   .     S
C965   H1127   1.111   .     S
C965   H1130   1.110   .     S
C966   C968    1.528   .     S
C966   H1136   1.105   .     S
C966   C1061   1.531   .     S
C966   H1137   1.108   .     S
C967   H1073   1.083   .     S
C967   C17     1.402   1_565 S
C968   H1135   1.109   .     S
C968   H1134   1.111   .     S
C968   H1133   1.106   .     S
C969   H1143   1.108   .     S
C969   C1063   1.533   .     S
C969   C970    1.528   .     S
C969   H1142   1.109   .     S
C970   H1141   1.106   .     S
C970   H1138   1.110   .     S
C970   H1139   1.110   .     S
C971   H1148   1.108   .     S
C971   C972    1.530   .     S
C971   H1147   1.110   .     S
C971   C1064   1.532   .     S
C972   H1144   1.109   .     S
C972   H1145   1.109   .     S
C972   H1146   1.110   .     S
C973   C974    1.523   .     S
C973   H1154   1.104   .     S
C973   C1065   1.533   .     S
C973   H1153   1.107   .     S
C974   H1152   1.110   .     S
C974   H1150   1.107   .     S
C974   H1149   1.110   .     S
C975   H1158   1.107   .     S
C975   C976    1.529   .     S
C975   C1066   1.526   .     S
C975   H1159   1.107   .     S
C976   H1156   1.109   .     S
C976   H1157   1.110   .     S
C976   H1155   1.110   .     S
C977   C979    1.528   .     S
C977   H1165   1.108   .     S
C977   H1164   1.109   .     S
C977   C1067   1.533   .     S
C978   H1177   1.083   .     S
C978   C985    1.391   .     A
C978   C18     1.402   1_565 S
C979   H1160   1.110   .     S
C979   H1163   1.106   .     S
C979   H1161   1.110   .     S
C980   C1068   1.533   .     S
C980   C981    1.530   .     S
C980   H1170   1.108   .     S
C980   H1169   1.110   .     S
C981   H1167   1.109   .     S
C981   H1168   1.110   .     S
C981   H1166   1.109   .     S
C982   H1175   1.107   .     S
C982   C1069   1.533   .     S
C982   H1176   1.104   .     S
C982   C983    1.523   .     S
C983   H1174   1.110   .     S
C983   H1172   1.107   .     S
C983   H1171   1.110   .     S
C984   C996    1.391   .     A
C984   H1188   1.083   .     S
C985   H1162   1.083   .     S
C985   C113    1.404   1_565 S
C986   H1199   1.083   .     S
C986   C1007   1.391   .     A
C987   H1210   1.083   .     S
C987   C1018   1.391   .     A
C988   H1221   1.083   .     S
C988   C1029   1.391   .     A
C989   H1232   1.083   .     S
C989   C1040   1.391   .     A
C989   C1351   1.402   .     S
C990   C1051   1.391   .     A
C990   H1243   1.083   .     S
C990   C1352   1.402   .     S
C991   C1062   1.391   .     A
C991   H1254   1.083   .     S
C991   C1353   1.402   .     S
C992   H1074   1.083   .     S
C993   H1085   1.083   .     S
C993   C23     1.402   1_565 A
C994   H1096   1.083   .     S
C995   H1107   1.083   .     S
C996   C1002   1.404   .     A
C996   H1173   1.083   .     S
C997   H1118   1.083   .     S
C997   C1354   1.402   .     S
C998   H1129   1.083   .     S
C999   H1140   1.083   .     S
C1000  C1018   1.404   .     A
C1000  C1001   1.473   1_554 S
C1001  C1029   1.404   .     A
C1001  C1000   1.473   1_556 S
C1002  C1003   1.473   1_554 S
C1002  C1484   1.404   1_455 S
C1003  C1007   1.404   .     A
C1003  C1002   1.473   1_556 S
C1003  C1495   1.404   1_455 S
C1004  C1005   1.473   .     S
C1004  C1506   1.404   1_455 S
C1005  C1378   1.404   1_455 S
C1006  C1008   1.473   .     S
C1006  C57     1.404   1_565 S
C1007  H1178   1.083   .     S
C1008  C24     1.404   1_565 S
C1009  O1316   1.281   .     S
C1010  O1313   1.281   .     S
C1011  O1314   1.280   .     A
C1011  O1711   1.280   1_455 S
C1012  O1759   1.280   1_455 A
C1012  O1268   1.280   .     S
C1013  O1269   1.281   .     A
C1013  O1273   1.281   .     S
C1014  O1274   1.281   .     A
C1014  O1270   1.281   .     S
C1015  O1271   1.280   .     S
C1015  O1275   1.280   .     S
C1016  O1277   1.280   .     A
C1016  O1272   1.280   .     A
C1017  O1278   1.277   .     A
C1017  C1072   1.452   .     S
C1017  O1306   1.273   .     A
C1018  H1179   1.083   .     S
C1019  O1307   1.273   .     A
C1019  O1279   1.282   .     A
C1020  O1304   1.275   .     A
C1020  O1280   1.279   .     A
C1021  O1305   1.275   .     A
C1021  O1281   1.275   .     A
C1022  O1282   1.276   .     A
C1022  O1311   1.274   .     A
C1023  O1283   1.282   .     A
C1023  O1312   1.273   .     A
C1024  C1070   1.460   .     S
C1024  O1284   1.280   .     A
C1024  O1308   1.274   .     A
C1025  O1285   1.275   .     A
C1025  O1310   1.275   .     A
C1025  C1071   1.453   .     S
C1026  O1297   1.280   .     A
C1026  O1286   1.275   .     A
C1027  O1288   1.275   .     A
C1027  O1299   1.275   .     A
C1028  O1295   1.276   .     A
C1028  O1289   1.274   .     A
C1029  H1180   1.083   .     S
C1030  O1296   1.282   .     A
C1030  O1290   1.273   .     A
C1031  O1302   1.280   .     A
C1031  O1291   1.275   .     A
C1032  O1303   1.275   .     A
C1032  O1292   1.276   .     A
C1033  O1300   1.276   .     A
C1033  O1293   1.274   .     A
C1034  O1301   1.282   .     A
C1034  O1294   1.273   .     A
C1035  C1052   1.414   .     A
C1036  C1050   1.413   .     A
C1037  C1049   1.413   .     A
C1038  C1048   1.418   .     A
C1039  C1047   1.414   .     A
C1040  H1181   1.083   .     S
C1040  C1446   1.404   .     S
C1041  C1046   1.413   .     A
C1042  C1045   1.412   .     A
C1043  C1044   1.418   .     A
C1049  C1072   1.414   .     A
C1050  C1071   1.415   .     A
C1051  H1182   1.083   .     S
C1051  C1447   1.404   .     S
C1052  C1070   1.420   .     A
C1053  C1071   1.417   .     A
C1053  C1069   1.414   .     A
C1054  C1070   1.418   .     A
C1054  C1068   1.413   .     A
C1055  C1067   1.412   .     A
C1056  C1072   1.415   .     A
C1056  C1066   1.413   .     A
C1057  C1065   1.414   .     A
C1058  C1064   1.413   .     A
C1059  C1063   1.412   .     A
C1060  C1061   1.418   .     A
C1062  H1183   1.083   .     S
C1062  C1448   1.404   .     S
O1265  Zn1317  1.942   .     S
O1265  Zn1320  1.945   .     S
O1265  Zn1328  1.943   .     S
O1266  Zn1319  1.940   .     S
O1266  C122    1.281   1_565 A
O1267  Zn1322  1.940   .     S
O1267  C1455   1.280   .     S
O1268  Zn1321  1.940   .     S
O1269  Zn1331  1.940   .     S
O1270  Zn1330  1.940   .     S
O1271  Zn1325  1.940   .     S
O1272  Zn1317  1.940   .     S
O1273  Zn1327  1.940   .     S
O1274  Zn1326  1.940   .     S
O1275  Zn1329  1.940   .     S
O1276  Zn1325  1.942   .     S
O1276  Zn1329  1.943   .     S
O1276  Zn1323  1.945   .     S
O1277  Zn1328  1.940   .     S
O1278  Zn1320  1.932   .     S
O1279  Zn1319  1.932   .     S
O1280  Zn1322  1.935   .     S
O1281  Zn1321  1.935   .     S
O1282  Zn1324  1.932   .     S
O1283  Zn1323  1.932   .     S
O1284  Zn1318  1.935   .     S
O1285  Zn1332  1.935   .     S
O1286  Zn1319  1.934   .     S
O1287  Zn1766  1.943   1_455 S
O1287  Zn1326  1.945   .     S
O1287  Zn1330  1.945   .     S
O1287  Zn1318  1.942   .     S
O1288  Zn1320  1.934   .     S
O1289  Zn1332  1.933   .     S
O1290  Zn1318  1.933   .     S
O1291  Zn1323  1.934   .     S
O1292  Zn1324  1.934   .     S
O1293  Zn1321  1.933   .     S
O1294  Zn1322  1.933   .     S
O1295  Zn1771  1.932   .     S
O1296  Zn1326  1.932   .     S
O1297  Zn441   1.935   1_565 S
O1298  Zn1776  1.942   1_455 S
O1298  Zn1327  1.945   .     S
O1298  Zn1331  1.945   .     S
O1298  Zn1321  1.943   .     S
O1299  Zn1328  1.935   .     S
O1300  Zn1331  1.932   .     S
O1301  Zn1774  1.932   .     S
O1302  Zn1325  1.935   .     S
O1303  Zn429   1.935   1_565 S
O1304  Zn1770  1.934   .     S
O1305  Zn1327  1.934   .     S
O1306  Zn1317  1.933   .     S
O1307  Zn437   1.933   1_565 S
O1308  Zn1330  1.934   .     S
O1309  C121    1.281   1_565 A
O1309  Zn1324  1.940   .     S
O1310  Zn1775  1.934   .     S
O1311  Zn440   1.933   1_565 S
O1312  Zn1329  1.933   .     S
O1313  Zn1323  1.940   .     S
O1314  Zn1318  1.940   .     S
O1315  C1456   1.280   .     A
O1315  Zn1332  1.940   .     S
O1316  Zn1320  1.940   .     S
Zn1319 O388    1.945   1_565 S
Zn1322 O1731   1.943   .     S
Zn1324 O377    1.945   1_565 S
Zn1326 O1748   1.934   1_455 S
Zn1327 O1739   1.932   1_455 S
Zn1330 O1745   1.932   1_455 S
Zn1331 O1754   1.934   1_455 S
Zn1332 O1742   1.942   .     S
C1333  H1595   1.083   .     S
C1333  C1411   1.391   .     A
C1333  C556    1.404   1_565 S
C1334  C1449   1.404   .     A
C1334  C1436   1.391   .     A
C1334  H1628   1.083   .     S
C1335  C1463   1.459   .     S
C1335  C1499   1.417   .     A
C1335  C1492   1.419   .     A
C1336  C1464   1.460   .     S
C1336  C1502   1.419   .     A
C1336  C1491   1.420   .     A
C1337  C1490   1.415   .     A
C1337  C1465   1.453   .     S
C1337  C1501   1.417   .     A
C1338  C1504   1.417   .     A
C1338  C1489   1.413   .     A
C1338  C1466   1.452   .     S
C1339  C1488   1.419   .     A
C1339  C1503   1.417   .     A
C1339  C1467   1.459   .     S
C1340  C1477   1.452   .     S
C1340  C1507   1.413   .     A
C1340  C1487   1.417   .     A
C1341  C1478   1.459   .     S
C1341  C1505   1.419   .     A
C1341  C1486   1.417   .     A
C1342  C1470   1.460   .     S
C1342  C1509   1.420   .     A
C1342  C1485   1.418   .     A
C1343  C1508   1.416   .     A
C1343  C1483   1.417   .     A
C1343  C1471   1.453   .     S
C1344  C1482   1.417   .     A
C1344  C1472   1.452   .     S
C1344  C1511   1.413   .     A
C1345  H1629   1.083   .     S
C1345  C1450   1.404   .     A
C1345  C1437   1.391   .     A
C1346  C1481   1.416   .     A
C1346  C1474   1.459   .     S
C1346  C1510   1.416   .     A
C1347  C1480   1.418   .     A
C1347  C1475   1.460   .     S
C1347  C1513   1.420   .     A
C1348  C1476   1.453   .     S
C1348  C1512   1.415   .     A
C1348  C1479   1.417   .     A
C1349  C1460   1.462   .     S
C1349  C1431   1.402   .     A
C1350  C1432   1.402   .     A
C1350  C1459   1.463   .     S
C1351  C1458   1.463   .     S
C1351  C1428   1.402   .     A
C1352  C1457   1.462   .     S
C1352  C1430   1.402   .     A
C1353  C1439   1.402   .     A
C1353  C1456   1.462   .     S
C1354  C1455   1.463   .     S
C1354  C1436   1.402   .     A
C1355  C1454   1.463   .     S
C1355  C1442   1.402   .     S
C1356  C1438   1.391   .     A
C1356  H1630   1.083   .     S
C1357  C565    1.462   1_565 S
C1357  C1443   1.402   .     A
C1357  C550    1.402   1_565 S
C1358  C1359   1.531   .     S
C1358  C1479   1.531   .     S
C1358  H1640   1.109   .     S
C1358  H1639   1.109   .     S
C1359  H1636   1.108   .     S
C1359  H1638   1.108   .     S
C1359  H1637   1.110   .     S
C1360  H1645   1.107   .     S
C1360  C1361   1.525   .     S
C1360  H1646   1.105   .     S
C1360  C1480   1.529   .     S
C1361  H1642   1.109   .     S
C1361  H1641   1.110   .     S
C1361  H1644   1.108   .     S
C1362  C1481   1.527   .     S
C1362  H1650   1.104   .     S
C1362  C1363   1.533   .     S
C1362  H1651   1.110   .     S
C1363  H1649   1.109   .     S
C1363  H1648   1.110   .     S
C1363  H1647   1.108   .     S
C1364  C1365   1.533   .     S
C1364  C1482   1.535   .     S
C1364  H1656   1.102   .     S
C1364  H1657   1.111   .     S
C1365  H1653   1.108   .     S
C1365  H1655   1.110   .     S
C1365  H1652   1.111   .     S
C1366  H1662   1.109   .     S
C1366  C1368   1.531   .     S
C1366  H1661   1.109   .     S
C1366  C1483   1.531   .     S
C1367  C1439   1.391   .     A
C1367  C1448   1.404   .     A
C1367  H1631   1.083   .     S
C1368  H1660   1.108   .     S
C1368  H1659   1.110   .     S
C1368  H1658   1.108   .     S
C1369  C1370   1.525   .     S
C1369  H1667   1.107   .     S
C1369  C1485   1.529   .     S
C1369  H1668   1.105   .     S
C1370  H1663   1.110   .     S
C1370  H1666   1.108   .     S
C1370  H1664   1.109   .     S
C1371  C1486   1.528   .     S
C1371  C1372   1.533   .     S
C1371  H1672   1.104   .     S
C1371  H1673   1.110   .     S
C1372  H1671   1.109   .     S
C1372  H1669   1.107   .     S
C1372  H1670   1.110   .     S
C1373  H1679   1.111   .     S
C1373  C1487   1.535   .     S
C1373  C1374   1.533   .     S
C1373  H1678   1.102   .     S
C1374  H1677   1.110   .     S
C1374  H1674   1.111   .     S
C1374  H1675   1.108   .     S
C1375  C1376   1.528   .     S
C1375  H1684   1.108   .     S
C1375  H1683   1.105   .     S
C1375  C1488   1.531   .     S
C1376  H1681   1.111   .     S
C1376  H1680   1.106   .     S
C1376  H1682   1.109   .     S
C1377  H1689   1.109   .     S
C1377  C1379   1.528   .     S
C1377  C1489   1.533   .     S
C1377  H1690   1.108   .     S
C1378  H1633   1.083   .     S
C1378  C1441   1.391   .     A
C1378  C1005   1.404   1_655 S
C1379  H1685   1.110   .     S
C1379  H1688   1.106   .     S
C1379  H1686   1.110   .     S
C1380  C1490   1.533   .     S
C1380  H1694   1.110   .     S
C1380  C1381   1.530   .     S
C1380  H1695   1.108   .     S
C1381  H1693   1.110   .     S
C1381  H1691   1.109   .     S
C1381  H1692   1.109   .     S
C1382  H1701   1.104   .     S
C1382  H1700   1.107   .     S
C1382  C1383   1.523   .     S
C1382  C1491   1.533   .     S
C1383  H1696   1.110   .     S
C1383  H1699   1.110   .     S
C1383  H1697   1.107   .     S
C1384  C1492   1.531   .     S
C1384  C1385   1.528   .     S
C1384  H1705   1.105   .     S
C1384  H1706   1.108   .     S
C1385  H1702   1.106   .     S
C1385  H1704   1.109   .     S
C1385  H1703   1.111   .     S
C1386  H1521   1.108   .     S
C1386  C1387   1.528   .     S
C1386  C1493   1.532   .     S
C1386  H1520   1.110   .     S
C1387  H1708   1.110   .     S
C1387  H1707   1.110   .     S
C1387  H1519   1.106   .     S
C1388  C1494   1.533   .     S
C1388  C1390   1.530   .     S
C1388  H1526   1.108   .     S
C1388  H1525   1.110   .     S
C1389  H1634   1.083   .     S
C1389  C1442   1.391   .     A
C1390  H1524   1.110   .     S
C1390  H1522   1.109   .     S
C1390  H1523   1.109   .     S
C1391  C1496   1.533   .     S
C1391  C1392   1.523   .     S
C1391  H1532   1.104   .     S
C1391  H1531   1.107   .     S
C1392  H1530   1.110   .     S
C1392  H1527   1.110   .     S
C1392  H1528   1.107   .     S
C1393  C1394   1.531   .     S
C1393  H1537   1.109   .     S
C1393  H1536   1.109   .     S
C1393  C1497   1.531   .     S
C1394  H1533   1.108   .     S
C1394  H1534   1.110   .     S
C1394  H1535   1.108   .     S
C1395  C1498   1.529   .     S
C1395  H1542   1.107   .     S
C1395  H1543   1.105   .     S
C1395  C1396   1.525   .     S
C1396  H1539   1.109   .     S
C1396  H1538   1.110   .     S
C1396  H1541   1.108   .     S
C1397  H1548   1.110   .     S
C1397  H1547   1.104   .     S
C1397  C1499   1.528   .     S
C1397  C1398   1.533   .     S
C1398  H1544   1.107   .     S
C1398  H1545   1.110   .     S
C1398  H1546   1.109   .     S
C1399  C1500   1.530   .     S
C1399  H1553   1.110   .     S
C1399  C1401   1.528   .     S
C1399  H1554   1.107   .     S
C1400  H1635   1.083   .     S
C1400  C1452   1.404   .     A
C1400  C1443   1.391   .     A
C1401  H1550   1.109   .     S
C1401  H1552   1.111   .     S
C1401  H1549   1.110   .     S
C1402  H1558   1.109   .     S
C1402  C1501   1.531   .     S
C1402  C1403   1.531   .     S
C1402  H1559   1.109   .     S
C1403  H1557   1.109   .     S
C1403  H1556   1.110   .     S
C1403  H1555   1.108   .     S
C1404  H1564   1.107   .     S
C1404  H1565   1.105   .     S
C1404  C1405   1.525   .     S
C1404  C1502   1.530   .     S
C1405  H1561   1.109   .     S
C1405  H1563   1.109   .     S
C1405  H1560   1.110   .     S
C1406  H1570   1.110   .     S
C1406  C1503   1.528   .     S
C1406  C1407   1.533   .     S
C1406  H1569   1.104   .     S
C1407  H1568   1.109   .     S
C1407  H1566   1.107   .     S
C1407  H1567   1.110   .     S
C1408  C1504   1.535   .     S
C1408  H1575   1.102   .     S
C1408  H1576   1.111   .     S
C1408  C1409   1.533   .     S
C1409  H1572   1.108   .     S
C1409  H1571   1.111   .     S
C1409  H1574   1.110   .     S
C1410  C1412   1.528   .     S
C1410  H1580   1.105   .     S
C1410  C1505   1.531   .     S
C1410  H1581   1.108   .     S
C1411  H1517   1.083   .     S
C1411  C461    1.402   1_565 S
C1412  H1579   1.109   .     S
C1412  H1578   1.111   .     S
C1412  H1577   1.106   .     S
C1413  H1587   1.108   .     S
C1413  C1507   1.533   .     S
C1413  C1414   1.528   .     S
C1413  H1586   1.109   .     S
C1414  H1585   1.106   .     S
C1414  H1582   1.110   .     S
C1414  H1583   1.110   .     S
C1415  H1592   1.108   .     S
C1415  C1416   1.530   .     S
C1415  H1591   1.110   .     S
C1415  C1508   1.532   .     S
C1416  H1588   1.109   .     S
C1416  H1589   1.109   .     S
C1416  H1590   1.110   .     S
C1417  C1418   1.523   .     S
C1417  H1598   1.104   .     S
C1417  C1509   1.533   .     S
C1417  H1597   1.107   .     S
C1418  H1596   1.110   .     S
C1418  H1594   1.107   .     S
C1418  H1593   1.110   .     S
C1419  H1602   1.107   .     S
C1419  C1420   1.529   .     S
C1419  C1510   1.526   .     S
C1419  H1603   1.107   .     S
C1420  H1600   1.109   .     S
C1420  H1601   1.110   .     S
C1420  H1599   1.110   .     S
C1421  C1423   1.528   .     S
C1421  H1609   1.108   .     S
C1421  H1608   1.109   .     S
C1421  C1511   1.533   .     S
C1422  H1621   1.083   .     S
C1422  C1429   1.391   .     A
C1422  C462    1.402   1_565 S
C1423  H1604   1.110   .     S
C1423  H1607   1.106   .     S
C1423  H1605   1.110   .     S
C1424  C1512   1.533   .     S
C1424  C1425   1.530   .     S
C1424  H1614   1.108   .     S
C1424  H1613   1.110   .     S
C1425  H1611   1.109   .     S
C1425  H1612   1.110   .     S
C1425  H1610   1.109   .     S
C1426  H1619   1.107   .     S
C1426  C1513   1.533   .     S
C1426  H1620   1.104   .     S
C1426  C1427   1.523   .     S
C1427  H1618   1.110   .     S
C1427  H1616   1.107   .     S
C1427  H1615   1.110   .     S
C1428  C1440   1.391   .     A
C1428  H1632   1.083   .     S
C1429  H1606   1.083   .     S
C1429  C557    1.404   1_565 S
C1430  H1643   1.083   .     S
C1430  C1451   1.391   .     A
C1431  H1654   1.083   .     S
C1431  C1462   1.391   .     A
C1432  H1665   1.083   .     S
C1432  C1473   1.391   .     A
C1433  H1676   1.083   .     S
C1433  C1484   1.391   .     A
C1433  C907    1.402   1_655 S
C1434  C1495   1.391   .     A
C1434  H1687   1.083   .     S
C1434  C908    1.402   1_655 S
C1435  C1506   1.391   .     A
C1435  H1698   1.083   .     S
C1435  C909    1.402   1_655 S
C1436  H1518   1.083   .     S
C1437  H1529   1.083   .     S
C1437  C467    1.402   1_565 A
C1438  H1540   1.083   .     S
C1439  H1551   1.083   .     S
C1440  C1446   1.404   .     A
C1440  H1617   1.083   .     S
C1441  H1562   1.083   .     S
C1441  C910    1.402   1_655 S
C1442  H1573   1.083   .     S
C1443  H1584   1.083   .     S
C1444  C1462   1.404   .     A
C1444  C1445   1.473   1_554 S
C1445  C1473   1.404   .     A
C1445  C1444   1.473   1_556 S
C1446  C1447   1.473   1_554 S
C1447  C1451   1.404   .     A
C1447  C1446   1.473   1_556 S
C1448  C1449   1.473   .     S
C1450  C1452   1.473   .     S
C1450  C501    1.404   1_565 S
C1451  H1622   1.083   .     S
C1452  C468    1.404   1_565 S
C1453  O1760   1.281   .     S
C1454  O1757   1.281   .     S
C1455  O1758   1.280   .     A
C1456  O1712   1.280   .     S
C1457  O1713   1.281   .     A
C1457  O1717   1.281   .     S
C1458  O1718   1.281   .     A
C1458  O1714   1.281   .     S
C1459  O1715   1.280   .     S
C1459  O1719   1.280   .     S
C1460  O1721   1.280   .     A
C1460  O1716   1.280   .     A
C1461  O1722   1.277   .     A
C1461  C1516   1.452   .     S
C1461  O1750   1.273   .     A
C1462  H1623   1.083   .     S
C1463  O1751   1.273   .     A
C1463  O1723   1.282   .     A
C1464  O1748   1.275   .     A
C1464  O1724   1.279   .     A
C1465  O1749   1.275   .     A
C1465  O1725   1.275   .     A
C1466  O1726   1.276   .     A
C1466  O1755   1.274   .     A
C1467  O1727   1.282   .     A
C1467  O1756   1.273   .     A
C1468  C1514   1.460   .     S
C1468  O1728   1.280   .     A
C1468  O1752   1.274   .     A
C1469  O1729   1.275   .     A
C1469  O1754   1.275   .     A
C1469  C1515   1.453   .     S
C1470  O1741   1.280   .     A
C1470  O1730   1.275   .     A
C1471  O1732   1.275   .     A
C1471  O1743   1.275   .     A
C1472  O1739   1.276   .     A
C1472  O1733   1.274   .     A
C1473  H1624   1.083   .     S
C1474  O1740   1.282   .     A
C1474  O1734   1.273   .     A
C1475  O1746   1.280   .     A
C1475  O1735   1.275   .     A
C1476  O1747   1.275   .     A
C1476  O1736   1.276   .     A
C1477  O1744   1.276   .     A
C1477  O1737   1.274   .     A
C1478  O1745   1.282   .     A
C1478  O1738   1.273   .     A
C1479  C1496   1.414   .     A
C1480  C1494   1.413   .     A
C1481  C1493   1.413   .     A
C1482  C1492   1.418   .     A
C1483  C1491   1.414   .     A
C1484  H1625   1.083   .     S
C1484  C1002   1.404   1_655 S
C1485  C1490   1.413   .     A
C1486  C1489   1.412   .     A
C1487  C1488   1.418   .     A
C1493  C1516   1.414   .     A
C1494  C1515   1.415   .     A
C1495  H1626   1.083   .     S
C1495  C1003   1.404   1_655 S
C1496  C1514   1.420   .     A
C1497  C1515   1.417   .     A
C1497  C1513   1.414   .     A
C1498  C1514   1.418   .     A
C1498  C1512   1.413   .     A
C1499  C1511   1.412   .     A
C1500  C1516   1.415   .     A
C1500  C1510   1.413   .     A
C1501  C1509   1.414   .     A
C1502  C1508   1.413   .     A
C1503  C1507   1.412   .     A
C1504  C1505   1.418   .     A
C1506  H1627   1.083   .     S
C1506  C1004   1.404   1_655 S
O1709  Zn1761  1.942   .     S
O1709  Zn1764  1.945   .     S
O1709  Zn1772  1.943   .     S
O1710  Zn1763  1.940   .     S
O1710  C566    1.281   1_565 A
O1711  Zn1766  1.940   .     S
O1711  C1011   1.280   1_655 S
O1712  Zn1765  1.940   .     S
O1713  Zn1775  1.940   .     S
O1714  Zn1774  1.940   .     S
O1715  Zn1769  1.940   .     S
O1716  Zn1761  1.940   .     S
O1717  Zn1771  1.940   .     S
O1718  Zn1770  1.940   .     S
O1719  Zn1773  1.940   .     S
O1720  Zn1769  1.942   .     S
O1720  Zn1773  1.943   .     S
O1720  Zn1767  1.945   .     S
O1721  Zn1772  1.940   .     S
O1722  Zn1764  1.932   .     S
O1723  Zn1763  1.932   .     S
O1724  Zn1766  1.935   .     S
O1725  Zn1765  1.935   .     S
O1726  Zn1768  1.932   .     S
O1727  Zn1767  1.932   .     S
O1728  Zn1762  1.935   .     S
O1729  Zn1776  1.935   .     S
O1730  Zn1763  1.934   .     S
O1731  Zn1770  1.945   .     S
O1731  Zn1774  1.945   .     S
O1731  Zn1762  1.942   .     S
O1732  Zn1764  1.934   .     S
O1733  Zn1776  1.933   .     S
O1734  Zn1762  1.933   .     S
O1735  Zn1767  1.934   .     S
O1736  Zn1768  1.934   .     S
O1737  Zn1765  1.933   .     S
O1738  Zn1766  1.933   .     S
O1739  Zn1327  1.932   1_655 S
O1740  Zn1770  1.932   .     S
O1741  Zn885   1.935   1_565 S
O1742  Zn1771  1.945   .     S
O1742  Zn1775  1.945   .     S
O1742  Zn1765  1.943   .     S
O1743  Zn1772  1.935   .     S
O1744  Zn1775  1.932   .     S
O1745  Zn1330  1.932   1_655 S
O1746  Zn1769  1.935   .     S
O1747  Zn873   1.935   1_565 S
O1748  Zn1326  1.934   1_655 S
O1749  Zn1771  1.934   .     S
O1750  Zn1761  1.933   .     S
O1751  Zn881   1.933   1_565 S
O1752  Zn1774  1.934   .     S
O1753  C565    1.281   1_565 A
O1753  Zn1768  1.940   .     S
O1754  Zn1331  1.934   1_655 S
O1755  Zn884   1.933   1_565 S
O1756  Zn1773  1.933   .     S
O1757  Zn1767  1.940   .     S
O1758  Zn1762  1.940   .     S
O1759  C1012   1.280   1_655 A
O1759  Zn1776  1.940   .     S
O1760  Zn1764  1.940   .     S
Zn1763 O832    1.945   1_565 S
Zn1766 O1287   1.943   1_655 S
Zn1768 O821    1.945   1_565 S
Zn1776 O1298   1.942   1_655 S
