data_str_m1_o1_o17_pcu_sym.128
_audit_creation_date              2020-01-03
_audit_creation_method            'Materials Studio'
_symmetry_space_group_name_H-M    'P1'
_symmetry_Int_Tables_number       1
_symmetry_cell_setting            triclinic
loop_
_symmetry_equiv_pos_as_xyz
  x,y,z
_cell_length_a                    36.6113
_cell_length_b                    36.6113
_cell_length_c                    34.5233
_cell_angle_alpha                 90.0000
_cell_angle_beta                  90.0000
_cell_angle_gamma                 90.1329
loop_
_atom_site_label
_atom_site_type_symbol
_atom_site_fract_x
_atom_site_fract_y
_atom_site_fract_z
_atom_site_U_iso_or_equiv
_atom_site_adp_type
_atom_site_occupancy
C1     C     0.00833   0.28272   0.41785   0.00000  Uiso   1.00
C2     C     0.24167   0.46728   0.08215   0.00000  Uiso   1.00
C3     C     0.21730   0.49230   0.54115   0.00000  Uiso   1.00
C4     C     0.00770   0.28270   0.45885   0.00000  Uiso   1.00
C5     C     0.49230   0.21730   0.54115   0.00000  Uiso   1.00
C6     C     0.21730   0.49230   0.45885   0.00000  Uiso   1.00
C7     C     0.28270   0.00770   0.54115   0.00000  Uiso   1.00
C8     C     0.24230   0.46730   0.95885   0.00000  Uiso   1.00
C9     C     0.25770   0.03270   0.04115   0.00000  Uiso   1.00
C10    C     0.03270   0.25770   0.95885   0.00000  Uiso   1.00
C11    C     0.46730   0.24230   0.04115   0.00000  Uiso   1.00
C12    C     0.25770   0.03270   0.95885   0.00000  Uiso   1.00
C13    C     0.46728   0.24167   0.91785   0.00000  Uiso   1.00
C14    C     0.24230   0.46730   0.04115   0.00000  Uiso   1.00
C15    C     0.46730   0.24230   0.95885   0.00000  Uiso   1.00
C16    C     0.03270   0.25770   0.04115   0.00000  Uiso   1.00
C17    C     0.09800   0.34800   0.25000   0.00000  Uiso   1.00
C18    C     0.40200   0.15200   0.75000   0.00000  Uiso   1.00
C19    C     0.15197   0.09803   0.25000   0.00000  Uiso   1.00
C20    C     0.34803   0.40197   0.75000   0.00000  Uiso   1.00
C21    C     0.40200   0.15200   0.25000   0.00000  Uiso   1.00
C22    C     0.09800   0.34800   0.75000   0.00000  Uiso   1.00
C23    C     0.34803   0.40197   0.25000   0.00000  Uiso   1.00
C24    C     0.03272   0.25833   0.08215   0.00000  Uiso   1.00
C25    C     0.15197   0.09803   0.75000   0.00000  Uiso   1.00
C26    C     0.09803   0.15197   0.75000   0.00000  Uiso   1.00
C27    C     0.40197   0.34803   0.25000   0.00000  Uiso   1.00
C28    C     0.15200   0.40200   0.75000   0.00000  Uiso   1.00
C29    C     0.34800   0.09800   0.25000   0.00000  Uiso   1.00
C30    C     0.40197   0.34803   0.75000   0.00000  Uiso   1.00
C31    C     0.09803   0.15197   0.25000   0.00000  Uiso   1.00
C32    C     0.34800   0.09800   0.75000   0.00000  Uiso   1.00
C33    C     0.15200   0.40200   0.25000   0.00000  Uiso   1.00
C34    C    -0.00000   0.25000   0.47935   0.00000  Uiso   1.00
C35    C     0.24167   0.46728   0.91785   0.00000  Uiso   1.00
C36    C    -0.00000   0.25000   0.52065   0.00000  Uiso   1.00
C37    C     0.25000   0.00000   0.47935   0.00000  Uiso   1.00
C38    C     0.25000  -0.00000   0.52065   0.00000  Uiso   1.00
C39    C     0.25000  -0.00000   0.97935   0.00000  Uiso   1.00
C40    C     0.25000   0.00000   0.02065   0.00000  Uiso   1.00
C41    C     0.00000   0.25000   0.97935   0.00000  Uiso   1.00
C42    C     0.00000   0.25000   0.02065   0.00000  Uiso   1.00
C43    C     0.01693   0.31770   0.39519   0.00000  Uiso   1.00
C44    C     0.48298   0.34199   0.39186   0.00000  Uiso   1.00
C45    C     0.49146   0.37709   0.36974   0.00000  Uiso   1.00
C46    C     0.25833   0.03272   0.08215   0.00000  Uiso   1.00
C47    C     0.48307   0.18230   0.60481   0.00000  Uiso   1.00
C48    C     0.01702   0.15801   0.60814   0.00000  Uiso   1.00
C49    C     0.00854   0.12291   0.63026   0.00000  Uiso   1.00
C50    C     0.18230   0.48307   0.39519   0.00000  Uiso   1.00
C51    C     0.15801   0.01702   0.39186   0.00000  Uiso   1.00
C52    C     0.12291   0.00854   0.36974   0.00000  Uiso   1.00
C53    C     0.31770   0.01693   0.60481   0.00000  Uiso   1.00
C54    C     0.34199   0.48298   0.60814   0.00000  Uiso   1.00
C55    C     0.37709   0.49146   0.63026   0.00000  Uiso   1.00
C56    C     0.48307   0.18230   0.39519   0.00000  Uiso   1.00
C57    C     0.03272   0.25833   0.91785   0.00000  Uiso   1.00
C58    C     0.01702   0.15801   0.39186   0.00000  Uiso   1.00
C59    C     0.00854   0.12291   0.36974   0.00000  Uiso   1.00
C60    C     0.01693   0.31770   0.60481   0.00000  Uiso   1.00
C61    C     0.48298   0.34199   0.60814   0.00000  Uiso   1.00
C62    C     0.49146   0.37709   0.63026   0.00000  Uiso   1.00
C63    C     0.31770   0.01693   0.39519   0.00000  Uiso   1.00
C64    C     0.34199   0.48298   0.39186   0.00000  Uiso   1.00
C65    C     0.37709   0.49146   0.36974   0.00000  Uiso   1.00
C66    C     0.18230   0.48307   0.60481   0.00000  Uiso   1.00
C67    C     0.15801   0.01702   0.60814   0.00000  Uiso   1.00
C68    C     0.46728   0.24167   0.08215   0.00000  Uiso   1.00
C69    C     0.12291   0.00854   0.63026   0.00000  Uiso   1.00
C70    C     0.26693   0.06770   0.89519   0.00000  Uiso   1.00
C71    C     0.23298   0.09199   0.89186   0.00000  Uiso   1.00
C72    C     0.24146   0.12709   0.86974   0.00000  Uiso   1.00
C73    C     0.23307   0.43230   0.10481   0.00000  Uiso   1.00
C74    C     0.26702   0.40801   0.10814   0.00000  Uiso   1.00
C75    C     0.25854   0.37291   0.13026   0.00000  Uiso   1.00
C76    C     0.43230   0.23307   0.89519   0.00000  Uiso   1.00
C77    C     0.40801   0.26702   0.89186   0.00000  Uiso   1.00
C78    C     0.37291   0.25854   0.86974   0.00000  Uiso   1.00
C79    C     0.00000   0.25000   0.39790   0.00000  Uiso   1.00
C80    C     0.06770   0.26693   0.10481   0.00000  Uiso   1.00
C81    C     0.09199   0.23298   0.10814   0.00000  Uiso   1.00
C82    C     0.12709   0.24146   0.13026   0.00000  Uiso   1.00
C83    C     0.23307   0.43230   0.89519   0.00000  Uiso   1.00
C84    C     0.26702   0.40801   0.89186   0.00000  Uiso   1.00
C85    C     0.25854   0.37291   0.86974   0.00000  Uiso   1.00
C86    C     0.26693   0.06770   0.10481   0.00000  Uiso   1.00
C87    C     0.23298   0.09199   0.10814   0.00000  Uiso   1.00
C88    C     0.24146   0.12709   0.13026   0.00000  Uiso   1.00
C89    C     0.06770   0.26693   0.89519   0.00000  Uiso   1.00
C90    C    -0.00000   0.25000   0.60210   0.00000  Uiso   1.00
C91    C     0.09199   0.23298   0.89186   0.00000  Uiso   1.00
C92    C     0.12709   0.24146   0.86974   0.00000  Uiso   1.00
C93    C     0.43230   0.23307   0.10481   0.00000  Uiso   1.00
C94    C     0.40801   0.26702   0.10814   0.00000  Uiso   1.00
C95    C     0.37291   0.25854   0.13026   0.00000  Uiso   1.00
C96    C     0.25000   0.00000   0.39790   0.00000  Uiso   1.00
C97    C     0.49167   0.21728   0.58215   0.00000  Uiso   1.00
C98    C     0.25000  -0.00000   0.60210   0.00000  Uiso   1.00
C99    C     0.25000   0.00000   0.89790   0.00000  Uiso   1.00
C100   C     0.25000   0.00000   0.10210   0.00000  Uiso   1.00
C101   C     0.00000   0.25000   0.89790   0.00000  Uiso   1.00
C102   C    -0.00000   0.25000   0.10210   0.00000  Uiso   1.00
C103   C     0.48543   0.18524   0.48001   0.00000  Uiso   1.00
C104   C     0.01457   0.31476   0.51999   0.00000  Uiso   1.00
C105   C     0.31476   0.01457   0.48001   0.00000  Uiso   1.00
C106   C     0.18524   0.48543   0.51999   0.00000  Uiso   1.00
C107   C     0.01457   0.31476   0.48001   0.00000  Uiso   1.00
C108   C     0.21728   0.49167   0.41785   0.00000  Uiso   1.00
C109   C     0.48543   0.18524   0.51999   0.00000  Uiso   1.00
C110   C     0.18524   0.48543   0.48001   0.00000  Uiso   1.00
C111   C     0.31476   0.01457   0.51999   0.00000  Uiso   1.00
C112   C     0.23543   0.43524   0.98001   0.00000  Uiso   1.00
C113   C     0.26457   0.06476   0.01999   0.00000  Uiso   1.00
C114   C     0.06476   0.26457   0.98001   0.00000  Uiso   1.00
C115   C     0.43524   0.23543   0.01999   0.00000  Uiso   1.00
C116   C     0.26457   0.06476   0.98001   0.00000  Uiso   1.00
C117   C     0.23543   0.43524   0.01999   0.00000  Uiso   1.00
C118   C     0.43524   0.23543   0.98001   0.00000  Uiso   1.00
C119   C     0.28272   0.00833   0.58215   0.00000  Uiso   1.00
C120   C     0.06476   0.26457   0.01999   0.00000  Uiso   1.00
C121   C     0.25000   0.00000   0.35569   0.00000  Uiso   1.00
C122   C     0.25000  -0.00000   0.64431   0.00000  Uiso   1.00
C123   C     0.00000   0.25000   0.35569   0.00000  Uiso   1.00
C124   C    -0.00000   0.25000   0.64431   0.00000  Uiso   1.00
C125   C    -0.00000   0.25000   0.85569   0.00000  Uiso   1.00
C126   C     0.00000   0.25000   0.14431   0.00000  Uiso   1.00
C127   C     0.25000   0.00000   0.85569   0.00000  Uiso   1.00
C128   C     0.25000  -0.00000   0.14431   0.00000  Uiso   1.00
C129   C     0.18003   0.06997   0.25000   0.00000  Uiso   1.00
C130   C     0.49167   0.21728   0.41785   0.00000  Uiso   1.00
C131   C     0.31997   0.43003   0.75000   0.00000  Uiso   1.00
C132   C     0.43005   0.18005   0.25000   0.00000  Uiso   1.00
C133   C     0.06995   0.31995   0.75000   0.00000  Uiso   1.00
C134   C     0.31997   0.43003   0.25000   0.00000  Uiso   1.00
C135   C     0.18003   0.06997   0.75000   0.00000  Uiso   1.00
C136   C     0.06995   0.31995   0.25000   0.00000  Uiso   1.00
C137   C     0.43005   0.18005   0.75000   0.00000  Uiso   1.00
C138   C     0.18005   0.43005   0.75000   0.00000  Uiso   1.00
C139   C     0.31995   0.06995   0.25000   0.00000  Uiso   1.00
C140   C     0.43003   0.31997   0.75000   0.00000  Uiso   1.00
C141   C     0.00833   0.28272   0.58215   0.00000  Uiso   1.00
C142   C     0.06997   0.18003   0.25000   0.00000  Uiso   1.00
C143   C     0.31995   0.06995   0.75000   0.00000  Uiso   1.00
C144   C     0.18005   0.43005   0.25000   0.00000  Uiso   1.00
C145   C     0.06997   0.18003   0.75000   0.00000  Uiso   1.00
C146   C     0.43003   0.31997   0.25000   0.00000  Uiso   1.00
C147   C     0.14447   0.38244   0.21552   0.00000  Uiso   1.00
C148   C     0.35553   0.11756   0.78448   0.00000  Uiso   1.00
C149   C     0.11600   0.14284   0.21502   0.00000  Uiso   1.00
C150   C     0.38400   0.35716   0.78497   0.00000  Uiso   1.00
C151   C     0.35553   0.11756   0.21552   0.00000  Uiso   1.00
C152   C     0.28272   0.00833   0.41785   0.00000  Uiso   1.00
C153   C     0.14447   0.38244   0.78448   0.00000  Uiso   1.00
C154   C     0.38400   0.35716   0.21502   0.00000  Uiso   1.00
C155   C     0.11600   0.14284   0.78497   0.00000  Uiso   1.00
C156   C     0.14284   0.11600   0.78497   0.00000  Uiso   1.00
C157   C     0.35716   0.38400   0.21502   0.00000  Uiso   1.00
C158   C     0.11756   0.35553   0.78448   0.00000  Uiso   1.00
C159   C     0.38244   0.14447   0.21552   0.00000  Uiso   1.00
C160   C     0.35716   0.38400   0.78497   0.00000  Uiso   1.00
C161   C     0.14284   0.11600   0.21502   0.00000  Uiso   1.00
C162   C     0.38244   0.14447   0.78448   0.00000  Uiso   1.00
C163   C     0.21728   0.49167   0.58215   0.00000  Uiso   1.00
C164   C     0.11756   0.35553   0.21552   0.00000  Uiso   1.00
C165   C     0.39447   0.13244   0.71552   0.00000  Uiso   1.00
C166   C     0.10553   0.36756   0.28448   0.00000  Uiso   1.00
C167   C     0.36600   0.39284   0.71502   0.00000  Uiso   1.00
C168   C     0.13400   0.10716   0.28497   0.00000  Uiso   1.00
C169   C     0.10553   0.36756   0.71552   0.00000  Uiso   1.00
C170   C     0.39447   0.13244   0.28448   0.00000  Uiso   1.00
C171   C     0.13400   0.10716   0.71502   0.00000  Uiso   1.00
C172   C     0.36600   0.39284   0.28497   0.00000  Uiso   1.00
C173   C     0.39284   0.36600   0.28497   0.00000  Uiso   1.00
C174   C     0.25833   0.03272   0.91785   0.00000  Uiso   1.00
C175   C     0.10716   0.13400   0.71502   0.00000  Uiso   1.00
C176   C     0.36756   0.10553   0.28448   0.00000  Uiso   1.00
C177   C     0.13244   0.39447   0.71552   0.00000  Uiso   1.00
C178   C     0.10716   0.13400   0.28497   0.00000  Uiso   1.00
C179   C     0.39284   0.36600   0.71502   0.00000  Uiso   1.00
C180   C     0.13244   0.39447   0.28448   0.00000  Uiso   1.00
C181   C     0.36756   0.10553   0.71552   0.00000  Uiso   1.00
C182   C     0.49230   0.21730   0.45885   0.00000  Uiso   1.00
C183   C     0.00770   0.28270   0.54115   0.00000  Uiso   1.00
C184   C     0.28270   0.00770   0.45885   0.00000  Uiso   1.00
H185   H     0.48013   0.15927   0.46634   0.00000  Uiso   1.00
H186   H     0.26987   0.09073   0.03366   0.00000  Uiso   1.00
H187   H     0.10566   0.03341   0.63167   0.00000  Uiso   1.00
H188   H     0.17323   0.03890   0.62359   0.00000  Uiso   1.00
H189   H     0.15074   0.02750   0.57897   0.00000  Uiso   1.00
H190   H     0.16733   0.45989   0.59145   0.00000  Uiso   1.00
H191   H     0.18806   0.47297   0.63439   0.00000  Uiso   1.00
H192   H     0.26337   0.14273   0.88465   0.00000  Uiso   1.00
H193   H     0.25030   0.12067   0.83973   0.00000  Uiso   1.00
H194   H     0.21659   0.14434   0.86833   0.00000  Uiso   1.00
H195   H     0.21110   0.07677   0.87641   0.00000  Uiso   1.00
H196   H     0.22250   0.09926   0.92103   0.00000  Uiso   1.00
H197   H     0.09073   0.26987   0.96634   0.00000  Uiso   1.00
H198   H     0.29011   0.08267   0.90855   0.00000  Uiso   1.00
H199   H     0.27703   0.06194   0.86561   0.00000  Uiso   1.00
H200   H     0.24970   0.37933   0.16027   0.00000  Uiso   1.00
H201   H     0.23663   0.35727   0.11534   0.00000  Uiso   1.00
H202   H     0.28341   0.35566   0.13167   0.00000  Uiso   1.00
H203   H     0.27749   0.40074   0.07897   0.00000  Uiso   1.00
H204   H     0.28890   0.42323   0.12359   0.00000  Uiso   1.00
H205   H     0.22297   0.43806   0.13439   0.00000  Uiso   1.00
H206   H     0.20989   0.41733   0.09145   0.00000  Uiso   1.00
H207   H     0.37933   0.24970   0.83973   0.00000  Uiso   1.00
H208   H     0.40927   0.23013   0.03366   0.00000  Uiso   1.00
H209   H     0.35727   0.23663   0.88465   0.00000  Uiso   1.00
H210   H     0.35566   0.28341   0.86833   0.00000  Uiso   1.00
H211   H     0.40074   0.27749   0.92103   0.00000  Uiso   1.00
H212   H     0.42323   0.28890   0.87641   0.00000  Uiso   1.00
H213   H     0.43806   0.22297   0.86561   0.00000  Uiso   1.00
H214   H     0.41733   0.20989   0.90855   0.00000  Uiso   1.00
H215   H     0.14273   0.26337   0.11534   0.00000  Uiso   1.00
H216   H     0.12067   0.25030   0.16027   0.00000  Uiso   1.00
H217   H     0.14434   0.21659   0.13167   0.00000  Uiso   1.00
H218   H     0.07677   0.21110   0.12359   0.00000  Uiso   1.00
H219   H     0.26987   0.09073   0.96634   0.00000  Uiso   1.00
H220   H     0.09926   0.22250   0.07897   0.00000  Uiso   1.00
H221   H     0.08267   0.29011   0.09145   0.00000  Uiso   1.00
H222   H     0.06194   0.27703   0.13439   0.00000  Uiso   1.00
H223   H     0.23663   0.35727   0.88465   0.00000  Uiso   1.00
H224   H     0.24970   0.37933   0.83973   0.00000  Uiso   1.00
H225   H     0.28341   0.35566   0.86833   0.00000  Uiso   1.00
H226   H     0.28890   0.42323   0.87641   0.00000  Uiso   1.00
H227   H     0.27749   0.40074   0.92103   0.00000  Uiso   1.00
H228   H     0.20989   0.41733   0.90855   0.00000  Uiso   1.00
H229   H     0.22297   0.43806   0.86561   0.00000  Uiso   1.00
H230   H     0.23013   0.40927   0.03366   0.00000  Uiso   1.00
H231   H     0.25030   0.12067   0.16027   0.00000  Uiso   1.00
H232   H     0.26337   0.14273   0.11534   0.00000  Uiso   1.00
H233   H     0.21659   0.14434   0.13167   0.00000  Uiso   1.00
H234   H     0.22250   0.09926   0.07897   0.00000  Uiso   1.00
H235   H     0.21110   0.07677   0.12359   0.00000  Uiso   1.00
H236   H     0.27703   0.06194   0.13439   0.00000  Uiso   1.00
H237   H     0.29011   0.08267   0.09145   0.00000  Uiso   1.00
H238   H     0.12067   0.25030   0.83973   0.00000  Uiso   1.00
H239   H     0.14273   0.26337   0.88465   0.00000  Uiso   1.00
H240   H     0.14434   0.21659   0.86833   0.00000  Uiso   1.00
H241   H     0.40927   0.23013   0.96634   0.00000  Uiso   1.00
H242   H     0.09926   0.22250   0.92103   0.00000  Uiso   1.00
H243   H     0.07677   0.21110   0.87641   0.00000  Uiso   1.00
H244   H     0.06194   0.27703   0.86561   0.00000  Uiso   1.00
H245   H     0.08267   0.29011   0.90855   0.00000  Uiso   1.00
H246   H     0.35727   0.23663   0.11534   0.00000  Uiso   1.00
H247   H     0.37933   0.24970   0.16027   0.00000  Uiso   1.00
H248   H     0.35566   0.28341   0.13167   0.00000  Uiso   1.00
H249   H     0.42323   0.28890   0.12359   0.00000  Uiso   1.00
H250   H     0.40074   0.27749   0.07897   0.00000  Uiso   1.00
H251   H     0.41733   0.20989   0.09145   0.00000  Uiso   1.00
H252   H     0.09073   0.26987   0.03366   0.00000  Uiso   1.00
H253   H     0.43806   0.22297   0.13439   0.00000  Uiso   1.00
H254   H     0.18653   0.40098   0.18627   0.00000  Uiso   1.00
H255   H     0.31347   0.09902   0.81373   0.00000  Uiso   1.00
H256   H     0.09769   0.18425   0.18509   0.00000  Uiso   1.00
H257   H     0.01987   0.34073   0.53366   0.00000  Uiso   1.00
H258   H     0.40231   0.31575   0.81491   0.00000  Uiso   1.00
H259   H     0.31347   0.09902   0.18627   0.00000  Uiso   1.00
H260   H     0.18653   0.40098   0.81373   0.00000  Uiso   1.00
H261   H     0.40231   0.31575   0.18509   0.00000  Uiso   1.00
H262   H     0.09769   0.18425   0.81491   0.00000  Uiso   1.00
H263   H     0.18425   0.09769   0.81491   0.00000  Uiso   1.00
H264   H     0.31575   0.40231   0.18509   0.00000  Uiso   1.00
H265   H     0.09902   0.31347   0.81373   0.00000  Uiso   1.00
H266   H     0.40098   0.18653   0.18627   0.00000  Uiso   1.00
H267   H     0.31575   0.40231   0.81491   0.00000  Uiso   1.00
H268   H     0.34073   0.01987   0.46634   0.00000  Uiso   1.00
H269   H     0.18425   0.09769   0.18509   0.00000  Uiso   1.00
H270   H     0.40098   0.18653   0.81373   0.00000  Uiso   1.00
H271   H     0.09902   0.31347   0.18627   0.00000  Uiso   1.00
H272   H     0.43653   0.15098   0.68627   0.00000  Uiso   1.00
H273   H     0.06347   0.34902   0.31373   0.00000  Uiso   1.00
H274   H     0.34769   0.43425   0.68509   0.00000  Uiso   1.00
H275   H     0.15231   0.06575   0.31491   0.00000  Uiso   1.00
H276   H     0.06347   0.34902   0.68627   0.00000  Uiso   1.00
H277   H     0.43653   0.15098   0.31373   0.00000  Uiso   1.00
H278   H     0.15231   0.06575   0.68509   0.00000  Uiso   1.00
H279   H     0.15927   0.48013   0.53366   0.00000  Uiso   1.00
H280   H     0.34769   0.43425   0.31491   0.00000  Uiso   1.00
H281   H     0.43425   0.34769   0.31491   0.00000  Uiso   1.00
H282   H     0.06575   0.15231   0.68509   0.00000  Uiso   1.00
H283   H     0.34902   0.06347   0.31373   0.00000  Uiso   1.00
H284   H     0.15098   0.43653   0.68627   0.00000  Uiso   1.00
H285   H     0.06575   0.15231   0.31491   0.00000  Uiso   1.00
H286   H     0.43425   0.34769   0.68509   0.00000  Uiso   1.00
H287   H     0.15098   0.43653   0.31373   0.00000  Uiso   1.00
H288   H     0.34902   0.06347   0.68627   0.00000  Uiso   1.00
H289   H     0.01337   0.39273   0.38465   0.00000  Uiso   1.00
H290   H     0.01987   0.34073   0.46634   0.00000  Uiso   1.00
H291   H     0.00030   0.37067   0.33973   0.00000  Uiso   1.00
H292   H     0.46659   0.39434   0.36833   0.00000  Uiso   1.00
H293   H     0.46110   0.32677   0.37641   0.00000  Uiso   1.00
H294   H     0.47250   0.34925   0.42103   0.00000  Uiso   1.00
H295   H     0.04011   0.33267   0.40855   0.00000  Uiso   1.00
H296   H     0.02703   0.31194   0.36561   0.00000  Uiso   1.00
H297   H     0.49970   0.12933   0.66027   0.00000  Uiso   1.00
H298   H     0.48663   0.10727   0.61534   0.00000  Uiso   1.00
H299   H     0.03341   0.10566   0.63167   0.00000  Uiso   1.00
H300   H     0.02749   0.15074   0.57897   0.00000  Uiso   1.00
H301   H     0.48013   0.15927   0.53366   0.00000  Uiso   1.00
H302   H     0.03890   0.17323   0.62359   0.00000  Uiso   1.00
H303   H     0.47297   0.18806   0.63439   0.00000  Uiso   1.00
H304   H     0.45989   0.16733   0.59145   0.00000  Uiso   1.00
H305   H     0.12933   0.49970   0.33973   0.00000  Uiso   1.00
H306   H     0.10727   0.48663   0.38465   0.00000  Uiso   1.00
H307   H     0.10566   0.03341   0.36833   0.00000  Uiso   1.00
H308   H     0.15074   0.02750   0.42103   0.00000  Uiso   1.00
H309   H     0.17323   0.03890   0.37641   0.00000  Uiso   1.00
H310   H     0.18806   0.47297   0.36561   0.00000  Uiso   1.00
H311   H     0.16733   0.45989   0.40855   0.00000  Uiso   1.00
H312   H     0.15927   0.48013   0.46634   0.00000  Uiso   1.00
H313   H     0.39273   0.01337   0.61534   0.00000  Uiso   1.00
H314   H     0.37067   0.00030   0.66027   0.00000  Uiso   1.00
H315   H     0.39434   0.46659   0.63167   0.00000  Uiso   1.00
H316   H     0.32677   0.46110   0.62359   0.00000  Uiso   1.00
H317   H     0.34925   0.47250   0.57897   0.00000  Uiso   1.00
H318   H     0.33267   0.04011   0.59145   0.00000  Uiso   1.00
H319   H     0.31194   0.02703   0.63439   0.00000  Uiso   1.00
H320   H     0.48663   0.10727   0.38465   0.00000  Uiso   1.00
H321   H     0.49970   0.12933   0.33973   0.00000  Uiso   1.00
H322   H     0.03341   0.10566   0.36833   0.00000  Uiso   1.00
H323   H     0.34073   0.01987   0.53366   0.00000  Uiso   1.00
H324   H     0.03890   0.17323   0.37641   0.00000  Uiso   1.00
H325   H     0.02749   0.15074   0.42103   0.00000  Uiso   1.00
H326   H     0.45989   0.16733   0.40855   0.00000  Uiso   1.00
H327   H     0.47297   0.18806   0.36561   0.00000  Uiso   1.00
H328   H     0.00030   0.37067   0.66027   0.00000  Uiso   1.00
H329   H     0.01337   0.39273   0.61534   0.00000  Uiso   1.00
H330   H     0.46659   0.39434   0.63167   0.00000  Uiso   1.00
H331   H     0.47250   0.34926   0.57897   0.00000  Uiso   1.00
H332   H     0.46110   0.32677   0.62359   0.00000  Uiso   1.00
H333   H     0.02703   0.31194   0.63439   0.00000  Uiso   1.00
H334   H     0.23013   0.40927   0.96634   0.00000  Uiso   1.00
H335   H     0.04011   0.33267   0.59145   0.00000  Uiso   1.00
H336   H     0.37067   0.00030   0.33973   0.00000  Uiso   1.00
H337   H     0.39273   0.01337   0.38465   0.00000  Uiso   1.00
H338   H     0.39434   0.46659   0.36833   0.00000  Uiso   1.00
H339   H     0.34926   0.47250   0.42103   0.00000  Uiso   1.00
H340   H     0.32677   0.46110   0.37641   0.00000  Uiso   1.00
H341   H     0.31194   0.02703   0.36561   0.00000  Uiso   1.00
H342   H     0.33267   0.04011   0.40855   0.00000  Uiso   1.00
H343   H     0.10727   0.48663   0.61534   0.00000  Uiso   1.00
H344   H     0.12933   0.49970   0.66027   0.00000  Uiso   1.00
O345   O     0.25000   0.00000   0.25000   0.00000  Uiso   1.00
O346   O     0.25000   0.46963   0.66245   0.00000  Uiso   1.00
O347   O     0.46963   0.25000   0.33755   0.00000  Uiso   1.00
O348   O     0.03036   0.25000   0.66245   0.00000  Uiso   1.00
O349   O     0.00000   0.21963   0.83755   0.00000  Uiso   1.00
O350   O     0.00000   0.28036   0.16245   0.00000  Uiso   1.00
O351   O     0.28036   0.00000   0.83755   0.00000  Uiso   1.00
O352   O     0.21963   0.00000   0.16245   0.00000  Uiso   1.00
O353   O     0.00000   0.28036   0.83755   0.00000  Uiso   1.00
O354   O    -0.00000   0.21964   0.16245   0.00000  Uiso   1.00
O355   O     0.21963   0.00000   0.83755   0.00000  Uiso   1.00
O356   O     0.25000   0.00000   0.75000   0.00000  Uiso   1.00
O357   O     0.28036   0.00000   0.16245   0.00000  Uiso   1.00
O358   O     0.20724   0.07308   0.27302   0.00000  Uiso   1.00
O359   O     0.29275   0.42692   0.72698   0.00000  Uiso   1.00
O360   O     0.42692   0.20725   0.27302   0.00000  Uiso   1.00
O361   O     0.07307   0.29275   0.72698   0.00000  Uiso   1.00
O362   O     0.29275   0.42692   0.27302   0.00000  Uiso   1.00
O363   O     0.20724   0.07308   0.72698   0.00000  Uiso   1.00
O364   O     0.07307   0.29275   0.27302   0.00000  Uiso   1.00
O365   O     0.42692   0.20725   0.72698   0.00000  Uiso   1.00
O366   O     0.20724   0.42692   0.72698   0.00000  Uiso   1.00
O367   O    -0.00000   0.25000   0.25000   0.00000  Uiso   1.00
O368   O     0.29275   0.07308   0.27302   0.00000  Uiso   1.00
O369   O     0.42692   0.29275   0.72698   0.00000  Uiso   1.00
O370   O     0.07307   0.20724   0.27302   0.00000  Uiso   1.00
O371   O     0.29275   0.07308   0.72698   0.00000  Uiso   1.00
O372   O     0.20724   0.42692   0.27302   0.00000  Uiso   1.00
O373   O     0.07307   0.20724   0.72698   0.00000  Uiso   1.00
O374   O     0.42692   0.29275   0.27302   0.00000  Uiso   1.00
O375   O     0.45724   0.32307   0.77302   0.00000  Uiso   1.00
O376   O     0.04275   0.17692   0.22698   0.00000  Uiso   1.00
O377   O     0.17692   0.45724   0.77302   0.00000  Uiso   1.00
O378   O     0.00000   0.25000   0.75000   0.00000  Uiso   1.00
O379   O     0.32307   0.04276   0.22698   0.00000  Uiso   1.00
O380   O     0.04275   0.17692   0.77302   0.00000  Uiso   1.00
O381   O     0.45724   0.32307   0.22698   0.00000  Uiso   1.00
O382   O     0.32307   0.04276   0.77302   0.00000  Uiso   1.00
O383   O     0.17692   0.45724   0.22698   0.00000  Uiso   1.00
O384   O     0.45724   0.17693   0.22698   0.00000  Uiso   1.00
O385   O     0.04275   0.32307   0.77302   0.00000  Uiso   1.00
O386   O     0.17692   0.04276   0.22698   0.00000  Uiso   1.00
O387   O     0.32307   0.45724   0.77302   0.00000  Uiso   1.00
O388   O     0.04275   0.32307   0.22698   0.00000  Uiso   1.00
O389   O     0.25000   0.46963   0.33755   0.00000  Uiso   1.00
O390   O     0.45724   0.17693   0.77302   0.00000  Uiso   1.00
O391   O     0.32307   0.45724   0.22698   0.00000  Uiso   1.00
O392   O     0.17692   0.04276   0.77302   0.00000  Uiso   1.00
O393   O     0.16344   0.38778   0.18127   0.00000  Uiso   1.00
O394   O     0.33656   0.11222   0.81873   0.00000  Uiso   1.00
O395   O     0.10920   0.16031   0.18024   0.00000  Uiso   1.00
O396   O     0.39079   0.33969   0.81976   0.00000  Uiso   1.00
O397   O     0.33656   0.11222   0.18127   0.00000  Uiso   1.00
O398   O     0.16344   0.38778   0.81873   0.00000  Uiso   1.00
O399   O     0.39079   0.33969   0.18024   0.00000  Uiso   1.00
O400   O     0.25000   0.03037   0.66245   0.00000  Uiso   1.00
O401   O     0.10920   0.16031   0.81976   0.00000  Uiso   1.00
O402   O     0.16031   0.10920   0.81976   0.00000  Uiso   1.00
O403   O     0.33969   0.39079   0.18024   0.00000  Uiso   1.00
O404   O     0.11222   0.33656   0.81873   0.00000  Uiso   1.00
O405   O     0.38778   0.16344   0.18127   0.00000  Uiso   1.00
O406   O     0.33969   0.39079   0.81976   0.00000  Uiso   1.00
O407   O     0.16031   0.10920   0.18024   0.00000  Uiso   1.00
O408   O     0.38778   0.16344   0.81873   0.00000  Uiso   1.00
O409   O     0.11222   0.33656   0.18127   0.00000  Uiso   1.00
O410   O     0.41344   0.13778   0.68127   0.00000  Uiso   1.00
O411   O     0.03036   0.25000   0.33755   0.00000  Uiso   1.00
O412   O     0.08656   0.36222   0.31873   0.00000  Uiso   1.00
O413   O     0.35920   0.41031   0.68024   0.00000  Uiso   1.00
O414   O     0.14079   0.08969   0.31976   0.00000  Uiso   1.00
O415   O     0.08656   0.36222   0.68127   0.00000  Uiso   1.00
O416   O     0.41344   0.13778   0.31873   0.00000  Uiso   1.00
O417   O     0.14079   0.08969   0.68024   0.00000  Uiso   1.00
O418   O     0.35920   0.41031   0.31976   0.00000  Uiso   1.00
O419   O     0.41031   0.35920   0.31976   0.00000  Uiso   1.00
O420   O     0.08969   0.14079   0.68024   0.00000  Uiso   1.00
O421   O     0.36222   0.08656   0.31873   0.00000  Uiso   1.00
O422   O     0.46963   0.25000   0.66245   0.00000  Uiso   1.00
O423   O     0.13778   0.41344   0.68127   0.00000  Uiso   1.00
O424   O     0.08969   0.14079   0.31976   0.00000  Uiso   1.00
O425   O     0.41031   0.35920   0.68024   0.00000  Uiso   1.00
O426   O     0.13778   0.41344   0.31873   0.00000  Uiso   1.00
O427   O     0.36222   0.08656   0.68127   0.00000  Uiso   1.00
O428   O     0.25000   0.03037   0.33755   0.00000  Uiso   1.00
Zn429  Zn    0.20659   0.00000   0.21735   0.00000  Uiso   1.00
Zn430  Zn    0.04340   0.25000   0.28265   0.00000  Uiso   1.00
Zn431  Zn    0.25000   0.45659   0.71735   0.00000  Uiso   1.00
Zn432  Zn    0.25000   0.04341   0.28265   0.00000  Uiso   1.00
Zn433  Zn    0.04340   0.25000   0.71735   0.00000  Uiso   1.00
Zn434  Zn    0.45659   0.25000   0.28265   0.00000  Uiso   1.00
Zn435  Zn    0.25000   0.04341   0.71735   0.00000  Uiso   1.00
Zn436  Zn    0.25000   0.45659   0.28265   0.00000  Uiso   1.00
Zn437  Zn    0.29340   0.00000   0.78265   0.00000  Uiso   1.00
Zn438  Zn    0.00000   0.20659   0.21735   0.00000  Uiso   1.00
Zn439  Zn    0.00000   0.29340   0.78265   0.00000  Uiso   1.00
Zn440  Zn    0.29340   0.00000   0.21735   0.00000  Uiso   1.00
Zn441  Zn    0.20659   0.00000   0.78265   0.00000  Uiso   1.00
Zn442  Zn   -0.00000   0.29341   0.21735   0.00000  Uiso   1.00
Zn443  Zn    0.00000   0.20659   0.78265   0.00000  Uiso   1.00
Zn444  Zn    0.45659   0.25000   0.71735   0.00000  Uiso   1.00
C445   C     0.50833   0.28272   0.41785   0.00000  Uiso   1.00
C446   C     0.74167   0.46728   0.08215   0.00000  Uiso   1.00
C447   C     0.71730   0.49230   0.54115   0.00000  Uiso   1.00
C448   C     0.50770   0.28270   0.45885   0.00000  Uiso   1.00
C449   C     0.99230   0.21730   0.54115   0.00000  Uiso   1.00
C450   C     0.71730   0.49230   0.45885   0.00000  Uiso   1.00
C451   C     0.78270   0.00770   0.54115   0.00000  Uiso   1.00
C452   C     0.74230   0.46730   0.95885   0.00000  Uiso   1.00
C453   C     0.75770   0.03270   0.04115   0.00000  Uiso   1.00
C454   C     0.53270   0.25770   0.95885   0.00000  Uiso   1.00
C455   C     0.96730   0.24230   0.04115   0.00000  Uiso   1.00
C456   C     0.75770   0.03270   0.95885   0.00000  Uiso   1.00
C457   C     0.96728   0.24167   0.91785   0.00000  Uiso   1.00
C458   C     0.74230   0.46730   0.04115   0.00000  Uiso   1.00
C459   C     0.96730   0.24230   0.95885   0.00000  Uiso   1.00
C460   C     0.53270   0.25770   0.04115   0.00000  Uiso   1.00
C461   C     0.59800   0.34800   0.25000   0.00000  Uiso   1.00
C462   C     0.90200   0.15200   0.75000   0.00000  Uiso   1.00
C463   C     0.65197   0.09803   0.25000   0.00000  Uiso   1.00
C464   C     0.84803   0.40197   0.75000   0.00000  Uiso   1.00
C465   C     0.90200   0.15200   0.25000   0.00000  Uiso   1.00
C466   C     0.59800   0.34800   0.75000   0.00000  Uiso   1.00
C467   C     0.84803   0.40197   0.25000   0.00000  Uiso   1.00
C468   C     0.53272   0.25833   0.08215   0.00000  Uiso   1.00
C469   C     0.65197   0.09803   0.75000   0.00000  Uiso   1.00
C470   C     0.59803   0.15197   0.75000   0.00000  Uiso   1.00
C471   C     0.90197   0.34803   0.25000   0.00000  Uiso   1.00
C472   C     0.65200   0.40200   0.75000   0.00000  Uiso   1.00
C473   C     0.84800   0.09800   0.25000   0.00000  Uiso   1.00
C474   C     0.90197   0.34803   0.75000   0.00000  Uiso   1.00
C475   C     0.59803   0.15197   0.25000   0.00000  Uiso   1.00
C476   C     0.84800   0.09800   0.75000   0.00000  Uiso   1.00
C477   C     0.65200   0.40200   0.25000   0.00000  Uiso   1.00
C478   C     0.50000   0.25000   0.47935   0.00000  Uiso   1.00
C479   C     0.74167   0.46728   0.91785   0.00000  Uiso   1.00
C480   C     0.50000   0.25000   0.52065   0.00000  Uiso   1.00
C481   C     0.75000   0.00000   0.47935   0.00000  Uiso   1.00
C482   C     0.75000  -0.00000   0.52065   0.00000  Uiso   1.00
C483   C     0.75000  -0.00000   0.97935   0.00000  Uiso   1.00
C484   C     0.75000   0.00000   0.02065   0.00000  Uiso   1.00
C485   C     0.50000   0.25000   0.97935   0.00000  Uiso   1.00
C486   C     0.50000   0.25000   0.02065   0.00000  Uiso   1.00
C487   C     0.51693   0.31770   0.39519   0.00000  Uiso   1.00
C488   C     0.98298   0.34199   0.39186   0.00000  Uiso   1.00
C489   C     0.99146   0.37709   0.36974   0.00000  Uiso   1.00
C490   C     0.75833   0.03272   0.08215   0.00000  Uiso   1.00
C491   C     0.98307   0.18230   0.60481   0.00000  Uiso   1.00
C492   C     0.51702   0.15801   0.60814   0.00000  Uiso   1.00
C493   C     0.50854   0.12291   0.63026   0.00000  Uiso   1.00
C494   C     0.68230   0.48307   0.39519   0.00000  Uiso   1.00
C495   C     0.65801   0.01702   0.39186   0.00000  Uiso   1.00
C496   C     0.62291   0.00854   0.36974   0.00000  Uiso   1.00
C497   C     0.81770   0.01693   0.60481   0.00000  Uiso   1.00
C498   C     0.84199   0.48298   0.60814   0.00000  Uiso   1.00
C499   C     0.87709   0.49146   0.63026   0.00000  Uiso   1.00
C500   C     0.98307   0.18230   0.39519   0.00000  Uiso   1.00
C501   C     0.53272   0.25833   0.91785   0.00000  Uiso   1.00
C502   C     0.51702   0.15801   0.39186   0.00000  Uiso   1.00
C503   C     0.50854   0.12291   0.36974   0.00000  Uiso   1.00
C504   C     0.51693   0.31770   0.60481   0.00000  Uiso   1.00
C505   C     0.98298   0.34199   0.60814   0.00000  Uiso   1.00
C506   C     0.99146   0.37709   0.63026   0.00000  Uiso   1.00
C507   C     0.81770   0.01693   0.39519   0.00000  Uiso   1.00
C508   C     0.84199   0.48298   0.39186   0.00000  Uiso   1.00
C509   C     0.87709   0.49146   0.36974   0.00000  Uiso   1.00
C510   C     0.68230   0.48307   0.60481   0.00000  Uiso   1.00
C511   C     0.65801   0.01702   0.60814   0.00000  Uiso   1.00
C512   C     0.96728   0.24167   0.08215   0.00000  Uiso   1.00
C513   C     0.62291   0.00854   0.63026   0.00000  Uiso   1.00
C514   C     0.76693   0.06770   0.89519   0.00000  Uiso   1.00
C515   C     0.73298   0.09199   0.89186   0.00000  Uiso   1.00
C516   C     0.74146   0.12709   0.86974   0.00000  Uiso   1.00
C517   C     0.73307   0.43230   0.10481   0.00000  Uiso   1.00
C518   C     0.76702   0.40801   0.10814   0.00000  Uiso   1.00
C519   C     0.75854   0.37291   0.13026   0.00000  Uiso   1.00
C520   C     0.93230   0.23307   0.89519   0.00000  Uiso   1.00
C521   C     0.90801   0.26702   0.89186   0.00000  Uiso   1.00
C522   C     0.87291   0.25854   0.86974   0.00000  Uiso   1.00
C523   C     0.50000   0.25000   0.39790   0.00000  Uiso   1.00
C524   C     0.56770   0.26693   0.10481   0.00000  Uiso   1.00
C525   C     0.59199   0.23298   0.10814   0.00000  Uiso   1.00
C526   C     0.62709   0.24146   0.13026   0.00000  Uiso   1.00
C527   C     0.73307   0.43230   0.89519   0.00000  Uiso   1.00
C528   C     0.76702   0.40801   0.89186   0.00000  Uiso   1.00
C529   C     0.75854   0.37291   0.86974   0.00000  Uiso   1.00
C530   C     0.76693   0.06770   0.10481   0.00000  Uiso   1.00
C531   C     0.73298   0.09199   0.10814   0.00000  Uiso   1.00
C532   C     0.74146   0.12709   0.13026   0.00000  Uiso   1.00
C533   C     0.56770   0.26693   0.89519   0.00000  Uiso   1.00
C534   C     0.50000   0.25000   0.60210   0.00000  Uiso   1.00
C535   C     0.59199   0.23298   0.89186   0.00000  Uiso   1.00
C536   C     0.62709   0.24146   0.86974   0.00000  Uiso   1.00
C537   C     0.93230   0.23307   0.10481   0.00000  Uiso   1.00
C538   C     0.90801   0.26702   0.10814   0.00000  Uiso   1.00
C539   C     0.87291   0.25854   0.13026   0.00000  Uiso   1.00
C540   C     0.75000   0.00000   0.39790   0.00000  Uiso   1.00
C541   C     0.99167   0.21728   0.58215   0.00000  Uiso   1.00
C542   C     0.75000  -0.00000   0.60210   0.00000  Uiso   1.00
C543   C     0.75000   0.00000   0.89790   0.00000  Uiso   1.00
C544   C     0.75000   0.00000   0.10210   0.00000  Uiso   1.00
C545   C     0.50000   0.25000   0.89790   0.00000  Uiso   1.00
C546   C     0.50000   0.25000   0.10210   0.00000  Uiso   1.00
C547   C     0.98543   0.18524   0.48001   0.00000  Uiso   1.00
C548   C     0.51457   0.31476   0.51999   0.00000  Uiso   1.00
C549   C     0.81476   0.01457   0.48001   0.00000  Uiso   1.00
C550   C     0.68524   0.48543   0.51999   0.00000  Uiso   1.00
C551   C     0.51457   0.31476   0.48001   0.00000  Uiso   1.00
C552   C     0.71728   0.49167   0.41785   0.00000  Uiso   1.00
C553   C     0.98543   0.18524   0.51999   0.00000  Uiso   1.00
C554   C     0.68524   0.48543   0.48001   0.00000  Uiso   1.00
C555   C     0.81476   0.01457   0.51999   0.00000  Uiso   1.00
C556   C     0.73543   0.43524   0.98001   0.00000  Uiso   1.00
C557   C     0.76457   0.06476   0.01999   0.00000  Uiso   1.00
C558   C     0.56476   0.26457   0.98001   0.00000  Uiso   1.00
C559   C     0.93524   0.23543   0.01999   0.00000  Uiso   1.00
C560   C     0.76457   0.06476   0.98001   0.00000  Uiso   1.00
C561   C     0.73543   0.43524   0.01999   0.00000  Uiso   1.00
C562   C     0.93524   0.23543   0.98001   0.00000  Uiso   1.00
C563   C     0.78272   0.00833   0.58215   0.00000  Uiso   1.00
C564   C     0.56476   0.26457   0.01999   0.00000  Uiso   1.00
C565   C     0.75000   0.00000   0.35569   0.00000  Uiso   1.00
C566   C     0.75000  -0.00000   0.64431   0.00000  Uiso   1.00
C567   C     0.50000   0.25000   0.35569   0.00000  Uiso   1.00
C568   C     0.50000   0.25000   0.64431   0.00000  Uiso   1.00
C569   C     0.50000   0.25000   0.85569   0.00000  Uiso   1.00
C570   C     0.50000   0.25000   0.14431   0.00000  Uiso   1.00
C571   C     0.75000   0.00000   0.85569   0.00000  Uiso   1.00
C572   C     0.75000  -0.00000   0.14431   0.00000  Uiso   1.00
C573   C     0.68003   0.06997   0.25000   0.00000  Uiso   1.00
C574   C     0.99167   0.21728   0.41785   0.00000  Uiso   1.00
C575   C     0.81997   0.43003   0.75000   0.00000  Uiso   1.00
C576   C     0.93005   0.18005   0.25000   0.00000  Uiso   1.00
C577   C     0.56995   0.31995   0.75000   0.00000  Uiso   1.00
C578   C     0.81997   0.43003   0.25000   0.00000  Uiso   1.00
C579   C     0.68003   0.06997   0.75000   0.00000  Uiso   1.00
C580   C     0.56995   0.31995   0.25000   0.00000  Uiso   1.00
C581   C     0.93005   0.18005   0.75000   0.00000  Uiso   1.00
C582   C     0.68005   0.43005   0.75000   0.00000  Uiso   1.00
C583   C     0.81995   0.06995   0.25000   0.00000  Uiso   1.00
C584   C     0.93003   0.31997   0.75000   0.00000  Uiso   1.00
C585   C     0.50833   0.28272   0.58215   0.00000  Uiso   1.00
C586   C     0.56997   0.18003   0.25000   0.00000  Uiso   1.00
C587   C     0.81995   0.06995   0.75000   0.00000  Uiso   1.00
C588   C     0.68005   0.43005   0.25000   0.00000  Uiso   1.00
C589   C     0.56997   0.18003   0.75000   0.00000  Uiso   1.00
C590   C     0.93003   0.31997   0.25000   0.00000  Uiso   1.00
C591   C     0.64447   0.38244   0.21552   0.00000  Uiso   1.00
C592   C     0.85553   0.11756   0.78448   0.00000  Uiso   1.00
C593   C     0.61600   0.14284   0.21502   0.00000  Uiso   1.00
C594   C     0.88400   0.35716   0.78497   0.00000  Uiso   1.00
C595   C     0.85553   0.11756   0.21552   0.00000  Uiso   1.00
C596   C     0.78272   0.00833   0.41785   0.00000  Uiso   1.00
C597   C     0.64447   0.38244   0.78448   0.00000  Uiso   1.00
C598   C     0.88400   0.35716   0.21502   0.00000  Uiso   1.00
C599   C     0.61600   0.14284   0.78497   0.00000  Uiso   1.00
C600   C     0.64284   0.11600   0.78497   0.00000  Uiso   1.00
C601   C     0.85716   0.38400   0.21502   0.00000  Uiso   1.00
C602   C     0.61756   0.35553   0.78448   0.00000  Uiso   1.00
C603   C     0.88244   0.14447   0.21552   0.00000  Uiso   1.00
C604   C     0.85716   0.38400   0.78497   0.00000  Uiso   1.00
C605   C     0.64284   0.11600   0.21502   0.00000  Uiso   1.00
C606   C     0.88244   0.14447   0.78448   0.00000  Uiso   1.00
C607   C     0.71728   0.49167   0.58215   0.00000  Uiso   1.00
C608   C     0.61756   0.35553   0.21552   0.00000  Uiso   1.00
C609   C     0.89447   0.13244   0.71552   0.00000  Uiso   1.00
C610   C     0.60553   0.36756   0.28448   0.00000  Uiso   1.00
C611   C     0.86600   0.39284   0.71502   0.00000  Uiso   1.00
C612   C     0.63400   0.10716   0.28497   0.00000  Uiso   1.00
C613   C     0.60553   0.36756   0.71552   0.00000  Uiso   1.00
C614   C     0.89447   0.13244   0.28448   0.00000  Uiso   1.00
C615   C     0.63400   0.10716   0.71502   0.00000  Uiso   1.00
C616   C     0.86600   0.39284   0.28497   0.00000  Uiso   1.00
C617   C     0.89284   0.36600   0.28497   0.00000  Uiso   1.00
C618   C     0.75833   0.03272   0.91785   0.00000  Uiso   1.00
C619   C     0.60716   0.13400   0.71502   0.00000  Uiso   1.00
C620   C     0.86756   0.10553   0.28448   0.00000  Uiso   1.00
C621   C     0.63244   0.39447   0.71552   0.00000  Uiso   1.00
C622   C     0.60716   0.13400   0.28497   0.00000  Uiso   1.00
C623   C     0.89284   0.36600   0.71502   0.00000  Uiso   1.00
C624   C     0.63244   0.39447   0.28448   0.00000  Uiso   1.00
C625   C     0.86756   0.10553   0.71552   0.00000  Uiso   1.00
C626   C     0.99230   0.21730   0.45885   0.00000  Uiso   1.00
C627   C     0.50770   0.28270   0.54115   0.00000  Uiso   1.00
C628   C     0.78270   0.00770   0.45885   0.00000  Uiso   1.00
H629   H     0.98013   0.15927   0.46634   0.00000  Uiso   1.00
H630   H     0.76987   0.09073   0.03366   0.00000  Uiso   1.00
H631   H     0.60566   0.03341   0.63167   0.00000  Uiso   1.00
H632   H     0.67323   0.03890   0.62359   0.00000  Uiso   1.00
H633   H     0.65074   0.02750   0.57897   0.00000  Uiso   1.00
H634   H     0.66733   0.45989   0.59145   0.00000  Uiso   1.00
H635   H     0.68806   0.47297   0.63439   0.00000  Uiso   1.00
H636   H     0.76337   0.14273   0.88465   0.00000  Uiso   1.00
H637   H     0.75030   0.12067   0.83973   0.00000  Uiso   1.00
H638   H     0.71659   0.14434   0.86833   0.00000  Uiso   1.00
H639   H     0.71110   0.07677   0.87641   0.00000  Uiso   1.00
H640   H     0.72250   0.09926   0.92103   0.00000  Uiso   1.00
H641   H     0.59073   0.26987   0.96634   0.00000  Uiso   1.00
H642   H     0.79011   0.08267   0.90855   0.00000  Uiso   1.00
H643   H     0.77703   0.06194   0.86561   0.00000  Uiso   1.00
H644   H     0.74970   0.37933   0.16027   0.00000  Uiso   1.00
H645   H     0.73663   0.35727   0.11534   0.00000  Uiso   1.00
H646   H     0.78341   0.35566   0.13167   0.00000  Uiso   1.00
H647   H     0.77749   0.40074   0.07897   0.00000  Uiso   1.00
H648   H     0.78890   0.42323   0.12359   0.00000  Uiso   1.00
H649   H     0.72297   0.43806   0.13439   0.00000  Uiso   1.00
H650   H     0.70989   0.41733   0.09145   0.00000  Uiso   1.00
H651   H     0.87933   0.24970   0.83973   0.00000  Uiso   1.00
H652   H     0.90927   0.23013   0.03366   0.00000  Uiso   1.00
H653   H     0.85727   0.23663   0.88465   0.00000  Uiso   1.00
H654   H     0.85566   0.28341   0.86833   0.00000  Uiso   1.00
H655   H     0.90074   0.27749   0.92103   0.00000  Uiso   1.00
H656   H     0.92323   0.28890   0.87641   0.00000  Uiso   1.00
H657   H     0.93806   0.22297   0.86561   0.00000  Uiso   1.00
H658   H     0.91733   0.20989   0.90855   0.00000  Uiso   1.00
H659   H     0.64273   0.26337   0.11534   0.00000  Uiso   1.00
H660   H     0.62067   0.25030   0.16027   0.00000  Uiso   1.00
H661   H     0.64434   0.21659   0.13167   0.00000  Uiso   1.00
H662   H     0.57677   0.21110   0.12359   0.00000  Uiso   1.00
H663   H     0.76987   0.09073   0.96634   0.00000  Uiso   1.00
H664   H     0.59926   0.22250   0.07897   0.00000  Uiso   1.00
H665   H     0.58267   0.29011   0.09145   0.00000  Uiso   1.00
H666   H     0.56194   0.27703   0.13439   0.00000  Uiso   1.00
H667   H     0.73663   0.35727   0.88465   0.00000  Uiso   1.00
H668   H     0.74970   0.37933   0.83973   0.00000  Uiso   1.00
H669   H     0.78341   0.35566   0.86833   0.00000  Uiso   1.00
H670   H     0.78890   0.42323   0.87641   0.00000  Uiso   1.00
H671   H     0.77749   0.40074   0.92103   0.00000  Uiso   1.00
H672   H     0.70989   0.41733   0.90855   0.00000  Uiso   1.00
H673   H     0.72297   0.43806   0.86561   0.00000  Uiso   1.00
H674   H     0.73013   0.40927   0.03366   0.00000  Uiso   1.00
H675   H     0.75030   0.12067   0.16027   0.00000  Uiso   1.00
H676   H     0.76337   0.14273   0.11534   0.00000  Uiso   1.00
H677   H     0.71659   0.14434   0.13167   0.00000  Uiso   1.00
H678   H     0.72250   0.09926   0.07897   0.00000  Uiso   1.00
H679   H     0.71110   0.07677   0.12359   0.00000  Uiso   1.00
H680   H     0.77703   0.06194   0.13439   0.00000  Uiso   1.00
H681   H     0.79011   0.08267   0.09145   0.00000  Uiso   1.00
H682   H     0.62067   0.25030   0.83973   0.00000  Uiso   1.00
H683   H     0.64273   0.26337   0.88465   0.00000  Uiso   1.00
H684   H     0.64434   0.21659   0.86833   0.00000  Uiso   1.00
H685   H     0.90927   0.23013   0.96634   0.00000  Uiso   1.00
H686   H     0.59926   0.22250   0.92103   0.00000  Uiso   1.00
H687   H     0.57677   0.21110   0.87641   0.00000  Uiso   1.00
H688   H     0.56194   0.27703   0.86561   0.00000  Uiso   1.00
H689   H     0.58267   0.29011   0.90855   0.00000  Uiso   1.00
H690   H     0.85727   0.23663   0.11534   0.00000  Uiso   1.00
H691   H     0.87933   0.24970   0.16027   0.00000  Uiso   1.00
H692   H     0.85566   0.28341   0.13167   0.00000  Uiso   1.00
H693   H     0.92323   0.28890   0.12359   0.00000  Uiso   1.00
H694   H     0.90074   0.27749   0.07897   0.00000  Uiso   1.00
H695   H     0.91733   0.20989   0.09145   0.00000  Uiso   1.00
H696   H     0.59073   0.26987   0.03366   0.00000  Uiso   1.00
H697   H     0.93806   0.22297   0.13439   0.00000  Uiso   1.00
H698   H     0.68653   0.40098   0.18627   0.00000  Uiso   1.00
H699   H     0.81347   0.09902   0.81373   0.00000  Uiso   1.00
H700   H     0.59769   0.18425   0.18509   0.00000  Uiso   1.00
H701   H     0.51987   0.34073   0.53366   0.00000  Uiso   1.00
H702   H     0.90231   0.31575   0.81491   0.00000  Uiso   1.00
H703   H     0.81347   0.09902   0.18627   0.00000  Uiso   1.00
H704   H     0.68653   0.40098   0.81373   0.00000  Uiso   1.00
H705   H     0.90231   0.31575   0.18509   0.00000  Uiso   1.00
H706   H     0.59769   0.18425   0.81491   0.00000  Uiso   1.00
H707   H     0.68425   0.09769   0.81491   0.00000  Uiso   1.00
H708   H     0.81575   0.40231   0.18509   0.00000  Uiso   1.00
H709   H     0.59902   0.31347   0.81373   0.00000  Uiso   1.00
H710   H     0.90098   0.18653   0.18627   0.00000  Uiso   1.00
H711   H     0.81575   0.40231   0.81491   0.00000  Uiso   1.00
H712   H     0.84073   0.01987   0.46634   0.00000  Uiso   1.00
H713   H     0.68425   0.09769   0.18509   0.00000  Uiso   1.00
H714   H     0.90098   0.18653   0.81373   0.00000  Uiso   1.00
H715   H     0.59902   0.31347   0.18627   0.00000  Uiso   1.00
H716   H     0.93653   0.15098   0.68627   0.00000  Uiso   1.00
H717   H     0.56347   0.34902   0.31373   0.00000  Uiso   1.00
H718   H     0.84769   0.43425   0.68509   0.00000  Uiso   1.00
H719   H     0.65231   0.06575   0.31491   0.00000  Uiso   1.00
H720   H     0.56347   0.34902   0.68627   0.00000  Uiso   1.00
H721   H     0.93653   0.15098   0.31373   0.00000  Uiso   1.00
H722   H     0.65231   0.06575   0.68509   0.00000  Uiso   1.00
H723   H     0.65927   0.48013   0.53366   0.00000  Uiso   1.00
H724   H     0.84769   0.43425   0.31491   0.00000  Uiso   1.00
H725   H     0.93425   0.34769   0.31491   0.00000  Uiso   1.00
H726   H     0.56575   0.15231   0.68509   0.00000  Uiso   1.00
H727   H     0.84902   0.06347   0.31373   0.00000  Uiso   1.00
H728   H     0.65098   0.43653   0.68627   0.00000  Uiso   1.00
H729   H     0.56575   0.15231   0.31491   0.00000  Uiso   1.00
H730   H     0.93425   0.34769   0.68509   0.00000  Uiso   1.00
H731   H     0.65098   0.43653   0.31373   0.00000  Uiso   1.00
H732   H     0.84902   0.06347   0.68627   0.00000  Uiso   1.00
H733   H     0.51337   0.39273   0.38465   0.00000  Uiso   1.00
H734   H     0.51987   0.34073   0.46634   0.00000  Uiso   1.00
H735   H     0.50030   0.37067   0.33973   0.00000  Uiso   1.00
H736   H     0.96659   0.39434   0.36833   0.00000  Uiso   1.00
H737   H     0.96110   0.32677   0.37641   0.00000  Uiso   1.00
H738   H     0.97250   0.34925   0.42103   0.00000  Uiso   1.00
H739   H     0.54011   0.33267   0.40855   0.00000  Uiso   1.00
H740   H     0.52703   0.31194   0.36561   0.00000  Uiso   1.00
H741   H     0.99970   0.12933   0.66027   0.00000  Uiso   1.00
H742   H     0.98663   0.10727   0.61534   0.00000  Uiso   1.00
H743   H     0.53341   0.10566   0.63167   0.00000  Uiso   1.00
H744   H     0.52749   0.15074   0.57897   0.00000  Uiso   1.00
H745   H     0.98013   0.15927   0.53366   0.00000  Uiso   1.00
H746   H     0.53890   0.17323   0.62359   0.00000  Uiso   1.00
H747   H     0.97297   0.18806   0.63439   0.00000  Uiso   1.00
H748   H     0.95989   0.16733   0.59145   0.00000  Uiso   1.00
H749   H     0.62933   0.49970   0.33973   0.00000  Uiso   1.00
H750   H     0.60727   0.48663   0.38465   0.00000  Uiso   1.00
H751   H     0.60566   0.03341   0.36833   0.00000  Uiso   1.00
H752   H     0.65074   0.02750   0.42103   0.00000  Uiso   1.00
H753   H     0.67323   0.03890   0.37641   0.00000  Uiso   1.00
H754   H     0.68806   0.47297   0.36561   0.00000  Uiso   1.00
H755   H     0.66733   0.45989   0.40855   0.00000  Uiso   1.00
H756   H     0.65927   0.48013   0.46634   0.00000  Uiso   1.00
H757   H     0.89273   0.01337   0.61534   0.00000  Uiso   1.00
H758   H     0.87067   0.00030   0.66027   0.00000  Uiso   1.00
H759   H     0.89434   0.46659   0.63167   0.00000  Uiso   1.00
H760   H     0.82677   0.46110   0.62359   0.00000  Uiso   1.00
H761   H     0.84925   0.47250   0.57897   0.00000  Uiso   1.00
H762   H     0.83267   0.04011   0.59145   0.00000  Uiso   1.00
H763   H     0.81194   0.02703   0.63439   0.00000  Uiso   1.00
H764   H     0.98663   0.10727   0.38465   0.00000  Uiso   1.00
H765   H     0.99970   0.12933   0.33973   0.00000  Uiso   1.00
H766   H     0.53341   0.10566   0.36833   0.00000  Uiso   1.00
H767   H     0.84073   0.01987   0.53366   0.00000  Uiso   1.00
H768   H     0.53890   0.17323   0.37641   0.00000  Uiso   1.00
H769   H     0.52749   0.15074   0.42103   0.00000  Uiso   1.00
H770   H     0.95989   0.16733   0.40855   0.00000  Uiso   1.00
H771   H     0.97297   0.18806   0.36561   0.00000  Uiso   1.00
H772   H     0.50030   0.37067   0.66027   0.00000  Uiso   1.00
H773   H     0.51337   0.39273   0.61534   0.00000  Uiso   1.00
H774   H     0.96659   0.39434   0.63167   0.00000  Uiso   1.00
H775   H     0.97250   0.34926   0.57897   0.00000  Uiso   1.00
H776   H     0.96110   0.32677   0.62359   0.00000  Uiso   1.00
H777   H     0.52703   0.31194   0.63439   0.00000  Uiso   1.00
H778   H     0.73013   0.40927   0.96634   0.00000  Uiso   1.00
H779   H     0.54011   0.33267   0.59145   0.00000  Uiso   1.00
H780   H     0.87067   0.00030   0.33973   0.00000  Uiso   1.00
H781   H     0.89273   0.01337   0.38465   0.00000  Uiso   1.00
H782   H     0.89434   0.46659   0.36833   0.00000  Uiso   1.00
H783   H     0.84926   0.47250   0.42103   0.00000  Uiso   1.00
H784   H     0.82677   0.46110   0.37641   0.00000  Uiso   1.00
H785   H     0.81194   0.02703   0.36561   0.00000  Uiso   1.00
H786   H     0.83267   0.04011   0.40855   0.00000  Uiso   1.00
H787   H     0.60727   0.48663   0.61534   0.00000  Uiso   1.00
H788   H     0.62933   0.49970   0.66027   0.00000  Uiso   1.00
O789   O     0.75000   0.00000   0.25000   0.00000  Uiso   1.00
O790   O     0.75000   0.46963   0.66245   0.00000  Uiso   1.00
O791   O     0.96963   0.25000   0.33755   0.00000  Uiso   1.00
O792   O     0.53036   0.25000   0.66245   0.00000  Uiso   1.00
O793   O     0.50000   0.21963   0.83755   0.00000  Uiso   1.00
O794   O     0.50000   0.28036   0.16245   0.00000  Uiso   1.00
O795   O     0.78036   0.00000   0.83755   0.00000  Uiso   1.00
O796   O     0.71963   0.00000   0.16245   0.00000  Uiso   1.00
O797   O     0.50000   0.28036   0.83755   0.00000  Uiso   1.00
O798   O     0.50000   0.21964   0.16245   0.00000  Uiso   1.00
O799   O     0.71963   0.00000   0.83755   0.00000  Uiso   1.00
O800   O     0.75000   0.00000   0.75000   0.00000  Uiso   1.00
O801   O     0.78036   0.00000   0.16245   0.00000  Uiso   1.00
O802   O     0.70724   0.07308   0.27302   0.00000  Uiso   1.00
O803   O     0.79275   0.42692   0.72698   0.00000  Uiso   1.00
O804   O     0.92692   0.20725   0.27302   0.00000  Uiso   1.00
O805   O     0.57307   0.29275   0.72698   0.00000  Uiso   1.00
O806   O     0.79275   0.42692   0.27302   0.00000  Uiso   1.00
O807   O     0.70724   0.07308   0.72698   0.00000  Uiso   1.00
O808   O     0.57307   0.29275   0.27302   0.00000  Uiso   1.00
O809   O     0.92692   0.20725   0.72698   0.00000  Uiso   1.00
O810   O     0.70724   0.42692   0.72698   0.00000  Uiso   1.00
O811   O     0.50000   0.25000   0.25000   0.00000  Uiso   1.00
O812   O     0.79275   0.07308   0.27302   0.00000  Uiso   1.00
O813   O     0.92692   0.29275   0.72698   0.00000  Uiso   1.00
O814   O     0.57307   0.20724   0.27302   0.00000  Uiso   1.00
O815   O     0.79275   0.07308   0.72698   0.00000  Uiso   1.00
O816   O     0.70724   0.42692   0.27302   0.00000  Uiso   1.00
O817   O     0.57307   0.20724   0.72698   0.00000  Uiso   1.00
O818   O     0.92692   0.29275   0.27302   0.00000  Uiso   1.00
O819   O     0.95724   0.32307   0.77302   0.00000  Uiso   1.00
O820   O     0.54275   0.17692   0.22698   0.00000  Uiso   1.00
O821   O     0.67692   0.45724   0.77302   0.00000  Uiso   1.00
O822   O     0.50000   0.25000   0.75000   0.00000  Uiso   1.00
O823   O     0.82307   0.04276   0.22698   0.00000  Uiso   1.00
O824   O     0.54275   0.17692   0.77302   0.00000  Uiso   1.00
O825   O     0.95724   0.32307   0.22698   0.00000  Uiso   1.00
O826   O     0.82307   0.04276   0.77302   0.00000  Uiso   1.00
O827   O     0.67692   0.45724   0.22698   0.00000  Uiso   1.00
O828   O     0.95724   0.17693   0.22698   0.00000  Uiso   1.00
O829   O     0.54275   0.32307   0.77302   0.00000  Uiso   1.00
O830   O     0.67692   0.04276   0.22698   0.00000  Uiso   1.00
O831   O     0.82307   0.45724   0.77302   0.00000  Uiso   1.00
O832   O     0.54275   0.32307   0.22698   0.00000  Uiso   1.00
O833   O     0.75000   0.46963   0.33755   0.00000  Uiso   1.00
O834   O     0.95724   0.17693   0.77302   0.00000  Uiso   1.00
O835   O     0.82307   0.45724   0.22698   0.00000  Uiso   1.00
O836   O     0.67692   0.04276   0.77302   0.00000  Uiso   1.00
O837   O     0.66344   0.38778   0.18127   0.00000  Uiso   1.00
O838   O     0.83656   0.11222   0.81873   0.00000  Uiso   1.00
O839   O     0.60920   0.16031   0.18024   0.00000  Uiso   1.00
O840   O     0.89079   0.33969   0.81976   0.00000  Uiso   1.00
O841   O     0.83656   0.11222   0.18127   0.00000  Uiso   1.00
O842   O     0.66344   0.38778   0.81873   0.00000  Uiso   1.00
O843   O     0.89079   0.33969   0.18024   0.00000  Uiso   1.00
O844   O     0.75000   0.03037   0.66245   0.00000  Uiso   1.00
O845   O     0.60920   0.16031   0.81976   0.00000  Uiso   1.00
O846   O     0.66031   0.10920   0.81976   0.00000  Uiso   1.00
O847   O     0.83969   0.39079   0.18024   0.00000  Uiso   1.00
O848   O     0.61222   0.33656   0.81873   0.00000  Uiso   1.00
O849   O     0.88778   0.16344   0.18127   0.00000  Uiso   1.00
O850   O     0.83969   0.39079   0.81976   0.00000  Uiso   1.00
O851   O     0.66031   0.10920   0.18024   0.00000  Uiso   1.00
O852   O     0.88778   0.16344   0.81873   0.00000  Uiso   1.00
O853   O     0.61222   0.33656   0.18127   0.00000  Uiso   1.00
O854   O     0.91344   0.13778   0.68127   0.00000  Uiso   1.00
O855   O     0.53036   0.25000   0.33755   0.00000  Uiso   1.00
O856   O     0.58656   0.36222   0.31873   0.00000  Uiso   1.00
O857   O     0.85920   0.41031   0.68024   0.00000  Uiso   1.00
O858   O     0.64079   0.08969   0.31976   0.00000  Uiso   1.00
O859   O     0.58656   0.36222   0.68127   0.00000  Uiso   1.00
O860   O     0.91344   0.13778   0.31873   0.00000  Uiso   1.00
O861   O     0.64079   0.08969   0.68024   0.00000  Uiso   1.00
O862   O     0.85920   0.41031   0.31976   0.00000  Uiso   1.00
O863   O     0.91031   0.35920   0.31976   0.00000  Uiso   1.00
O864   O     0.58969   0.14079   0.68024   0.00000  Uiso   1.00
O865   O     0.86222   0.08656   0.31873   0.00000  Uiso   1.00
O866   O     0.96963   0.25000   0.66245   0.00000  Uiso   1.00
O867   O     0.63778   0.41344   0.68127   0.00000  Uiso   1.00
O868   O     0.58969   0.14079   0.31976   0.00000  Uiso   1.00
O869   O     0.91031   0.35920   0.68024   0.00000  Uiso   1.00
O870   O     0.63778   0.41344   0.31873   0.00000  Uiso   1.00
O871   O     0.86222   0.08656   0.68127   0.00000  Uiso   1.00
O872   O     0.75000   0.03037   0.33755   0.00000  Uiso   1.00
Zn873  Zn    0.70659   0.00000   0.21735   0.00000  Uiso   1.00
Zn874  Zn    0.54340   0.25000   0.28265   0.00000  Uiso   1.00
Zn875  Zn    0.75000   0.45659   0.71735   0.00000  Uiso   1.00
Zn876  Zn    0.75000   0.04341   0.28265   0.00000  Uiso   1.00
Zn877  Zn    0.54340   0.25000   0.71735   0.00000  Uiso   1.00
Zn878  Zn    0.95659   0.25000   0.28265   0.00000  Uiso   1.00
Zn879  Zn    0.75000   0.04341   0.71735   0.00000  Uiso   1.00
Zn880  Zn    0.75000   0.45659   0.28265   0.00000  Uiso   1.00
Zn881  Zn    0.79340   0.00000   0.78265   0.00000  Uiso   1.00
Zn882  Zn    0.50000   0.20659   0.21735   0.00000  Uiso   1.00
Zn883  Zn    0.50000   0.29340   0.78265   0.00000  Uiso   1.00
Zn884  Zn    0.79340   0.00000   0.21735   0.00000  Uiso   1.00
Zn885  Zn    0.70659   0.00000   0.78265   0.00000  Uiso   1.00
Zn886  Zn    0.50000   0.29341   0.21735   0.00000  Uiso   1.00
Zn887  Zn    0.50000   0.20659   0.78265   0.00000  Uiso   1.00
Zn888  Zn    0.95659   0.25000   0.71735   0.00000  Uiso   1.00
C889   C     0.00833   0.78272   0.41785   0.00000  Uiso   1.00
C890   C     0.24167   0.96728   0.08215   0.00000  Uiso   1.00
C891   C     0.21730   0.99230   0.54115   0.00000  Uiso   1.00
C892   C     0.00770   0.78270   0.45885   0.00000  Uiso   1.00
C893   C     0.49230   0.71730   0.54115   0.00000  Uiso   1.00
C894   C     0.21730   0.99230   0.45885   0.00000  Uiso   1.00
C895   C     0.28270   0.50770   0.54115   0.00000  Uiso   1.00
C896   C     0.24230   0.96730   0.95885   0.00000  Uiso   1.00
C897   C     0.25770   0.53270   0.04115   0.00000  Uiso   1.00
C898   C     0.03270   0.75770   0.95885   0.00000  Uiso   1.00
C899   C     0.46730   0.74230   0.04115   0.00000  Uiso   1.00
C900   C     0.25770   0.53270   0.95885   0.00000  Uiso   1.00
C901   C     0.46728   0.74167   0.91785   0.00000  Uiso   1.00
C902   C     0.24230   0.96730   0.04115   0.00000  Uiso   1.00
C903   C     0.46730   0.74230   0.95885   0.00000  Uiso   1.00
C904   C     0.03270   0.75770   0.04115   0.00000  Uiso   1.00
C905   C     0.09800   0.84800   0.25000   0.00000  Uiso   1.00
C906   C     0.40200   0.65200   0.75000   0.00000  Uiso   1.00
C907   C     0.15197   0.59803   0.25000   0.00000  Uiso   1.00
C908   C     0.34803   0.90197   0.75000   0.00000  Uiso   1.00
C909   C     0.40200   0.65200   0.25000   0.00000  Uiso   1.00
C910   C     0.09800   0.84800   0.75000   0.00000  Uiso   1.00
C911   C     0.34803   0.90197   0.25000   0.00000  Uiso   1.00
C912   C     0.03272   0.75833   0.08215   0.00000  Uiso   1.00
C913   C     0.15197   0.59803   0.75000   0.00000  Uiso   1.00
C914   C     0.09803   0.65197   0.75000   0.00000  Uiso   1.00
C915   C     0.40197   0.84803   0.25000   0.00000  Uiso   1.00
C916   C     0.15200   0.90200   0.75000   0.00000  Uiso   1.00
C917   C     0.34800   0.59800   0.25000   0.00000  Uiso   1.00
C918   C     0.40197   0.84803   0.75000   0.00000  Uiso   1.00
C919   C     0.09803   0.65197   0.25000   0.00000  Uiso   1.00
C920   C     0.34800   0.59800   0.75000   0.00000  Uiso   1.00
C921   C     0.15200   0.90200   0.25000   0.00000  Uiso   1.00
C922   C    -0.00000   0.75000   0.47935   0.00000  Uiso   1.00
C923   C     0.24167   0.96728   0.91785   0.00000  Uiso   1.00
C924   C    -0.00000   0.75000   0.52065   0.00000  Uiso   1.00
C925   C     0.25000   0.50000   0.47935   0.00000  Uiso   1.00
C926   C     0.25000   0.50000   0.52065   0.00000  Uiso   1.00
C927   C     0.25000   0.50000   0.97935   0.00000  Uiso   1.00
C928   C     0.25000   0.50000   0.02065   0.00000  Uiso   1.00
C929   C     0.00000   0.75000   0.97935   0.00000  Uiso   1.00
C930   C     0.00000   0.75000   0.02065   0.00000  Uiso   1.00
C931   C     0.01693   0.81770   0.39519   0.00000  Uiso   1.00
C932   C     0.48298   0.84199   0.39186   0.00000  Uiso   1.00
C933   C     0.49146   0.87709   0.36974   0.00000  Uiso   1.00
C934   C     0.25833   0.53272   0.08215   0.00000  Uiso   1.00
C935   C     0.48307   0.68230   0.60481   0.00000  Uiso   1.00
C936   C     0.01702   0.65801   0.60814   0.00000  Uiso   1.00
C937   C     0.00854   0.62291   0.63026   0.00000  Uiso   1.00
C938   C     0.18230   0.98307   0.39519   0.00000  Uiso   1.00
C939   C     0.15801   0.51702   0.39186   0.00000  Uiso   1.00
C940   C     0.12291   0.50854   0.36974   0.00000  Uiso   1.00
C941   C     0.31770   0.51693   0.60481   0.00000  Uiso   1.00
C942   C     0.34199   0.98298   0.60814   0.00000  Uiso   1.00
C943   C     0.37709   0.99146   0.63026   0.00000  Uiso   1.00
C944   C     0.48307   0.68230   0.39519   0.00000  Uiso   1.00
C945   C     0.03272   0.75833   0.91785   0.00000  Uiso   1.00
C946   C     0.01702   0.65801   0.39186   0.00000  Uiso   1.00
C947   C     0.00854   0.62291   0.36974   0.00000  Uiso   1.00
C948   C     0.01693   0.81770   0.60481   0.00000  Uiso   1.00
C949   C     0.48298   0.84199   0.60814   0.00000  Uiso   1.00
C950   C     0.49146   0.87709   0.63026   0.00000  Uiso   1.00
C951   C     0.31770   0.51693   0.39519   0.00000  Uiso   1.00
C952   C     0.34199   0.98298   0.39186   0.00000  Uiso   1.00
C953   C     0.37709   0.99146   0.36974   0.00000  Uiso   1.00
C954   C     0.18230   0.98307   0.60481   0.00000  Uiso   1.00
C955   C     0.15801   0.51702   0.60814   0.00000  Uiso   1.00
C956   C     0.46728   0.74167   0.08215   0.00000  Uiso   1.00
C957   C     0.12291   0.50854   0.63026   0.00000  Uiso   1.00
C958   C     0.26693   0.56770   0.89519   0.00000  Uiso   1.00
C959   C     0.23298   0.59199   0.89186   0.00000  Uiso   1.00
C960   C     0.24146   0.62709   0.86974   0.00000  Uiso   1.00
C961   C     0.23307   0.93230   0.10481   0.00000  Uiso   1.00
C962   C     0.26702   0.90801   0.10814   0.00000  Uiso   1.00
C963   C     0.25854   0.87291   0.13026   0.00000  Uiso   1.00
C964   C     0.43230   0.73307   0.89519   0.00000  Uiso   1.00
C965   C     0.40801   0.76702   0.89186   0.00000  Uiso   1.00
C966   C     0.37291   0.75854   0.86974   0.00000  Uiso   1.00
C967   C     0.00000   0.75000   0.39790   0.00000  Uiso   1.00
C968   C     0.06770   0.76693   0.10481   0.00000  Uiso   1.00
C969   C     0.09199   0.73298   0.10814   0.00000  Uiso   1.00
C970   C     0.12709   0.74146   0.13026   0.00000  Uiso   1.00
C971   C     0.23307   0.93230   0.89519   0.00000  Uiso   1.00
C972   C     0.26702   0.90801   0.89186   0.00000  Uiso   1.00
C973   C     0.25854   0.87291   0.86974   0.00000  Uiso   1.00
C974   C     0.26693   0.56770   0.10481   0.00000  Uiso   1.00
C975   C     0.23298   0.59199   0.10814   0.00000  Uiso   1.00
C976   C     0.24146   0.62709   0.13026   0.00000  Uiso   1.00
C977   C     0.06770   0.76693   0.89519   0.00000  Uiso   1.00
C978   C    -0.00000   0.75000   0.60210   0.00000  Uiso   1.00
C979   C     0.09199   0.73298   0.89186   0.00000  Uiso   1.00
C980   C     0.12709   0.74146   0.86974   0.00000  Uiso   1.00
C981   C     0.43230   0.73307   0.10481   0.00000  Uiso   1.00
C982   C     0.40801   0.76702   0.10814   0.00000  Uiso   1.00
C983   C     0.37291   0.75854   0.13026   0.00000  Uiso   1.00
C984   C     0.25000   0.50000   0.39790   0.00000  Uiso   1.00
C985   C     0.49167   0.71728   0.58215   0.00000  Uiso   1.00
C986   C     0.25000   0.50000   0.60210   0.00000  Uiso   1.00
C987   C     0.25000   0.50000   0.89790   0.00000  Uiso   1.00
C988   C     0.25000   0.50000   0.10210   0.00000  Uiso   1.00
C989   C     0.00000   0.75000   0.89790   0.00000  Uiso   1.00
C990   C    -0.00000   0.75000   0.10210   0.00000  Uiso   1.00
C991   C     0.48543   0.68524   0.48001   0.00000  Uiso   1.00
C992   C     0.01457   0.81476   0.51999   0.00000  Uiso   1.00
C993   C     0.31476   0.51457   0.48001   0.00000  Uiso   1.00
C994   C     0.18524   0.98543   0.51999   0.00000  Uiso   1.00
C995   C     0.01457   0.81476   0.48001   0.00000  Uiso   1.00
C996   C     0.21728   0.99167   0.41785   0.00000  Uiso   1.00
C997   C     0.48543   0.68524   0.51999   0.00000  Uiso   1.00
C998   C     0.18524   0.98543   0.48001   0.00000  Uiso   1.00
C999   C     0.31476   0.51457   0.51999   0.00000  Uiso   1.00
C1000  C     0.23543   0.93524   0.98001   0.00000  Uiso   1.00
C1001  C     0.26457   0.56476   0.01999   0.00000  Uiso   1.00
C1002  C     0.06476   0.76457   0.98001   0.00000  Uiso   1.00
C1003  C     0.43524   0.73543   0.01999   0.00000  Uiso   1.00
C1004  C     0.26457   0.56476   0.98001   0.00000  Uiso   1.00
C1005  C     0.23543   0.93524   0.01999   0.00000  Uiso   1.00
C1006  C     0.43524   0.73543   0.98001   0.00000  Uiso   1.00
C1007  C     0.28272   0.50833   0.58215   0.00000  Uiso   1.00
C1008  C     0.06476   0.76457   0.01999   0.00000  Uiso   1.00
C1009  C     0.25000   0.50000   0.35569   0.00000  Uiso   1.00
C1010  C     0.25000   0.50000   0.64431   0.00000  Uiso   1.00
C1011  C     0.00000   0.75000   0.35569   0.00000  Uiso   1.00
C1012  C    -0.00000   0.75000   0.64431   0.00000  Uiso   1.00
C1013  C    -0.00000   0.75000   0.85569   0.00000  Uiso   1.00
C1014  C     0.00000   0.75000   0.14431   0.00000  Uiso   1.00
C1015  C     0.25000   0.50000   0.85569   0.00000  Uiso   1.00
C1016  C     0.25000   0.50000   0.14431   0.00000  Uiso   1.00
C1017  C     0.18003   0.56997   0.25000   0.00000  Uiso   1.00
C1018  C     0.49167   0.71728   0.41785   0.00000  Uiso   1.00
C1019  C     0.31997   0.93003   0.75000   0.00000  Uiso   1.00
C1020  C     0.43005   0.68005   0.25000   0.00000  Uiso   1.00
C1021  C     0.06995   0.81995   0.75000   0.00000  Uiso   1.00
C1022  C     0.31997   0.93003   0.25000   0.00000  Uiso   1.00
C1023  C     0.18003   0.56997   0.75000   0.00000  Uiso   1.00
C1024  C     0.06995   0.81995   0.25000   0.00000  Uiso   1.00
C1025  C     0.43005   0.68005   0.75000   0.00000  Uiso   1.00
C1026  C     0.18005   0.93005   0.75000   0.00000  Uiso   1.00
C1027  C     0.31995   0.56995   0.25000   0.00000  Uiso   1.00
C1028  C     0.43003   0.81997   0.75000   0.00000  Uiso   1.00
C1029  C     0.00833   0.78272   0.58215   0.00000  Uiso   1.00
C1030  C     0.06997   0.68003   0.25000   0.00000  Uiso   1.00
C1031  C     0.31995   0.56995   0.75000   0.00000  Uiso   1.00
C1032  C     0.18005   0.93005   0.25000   0.00000  Uiso   1.00
C1033  C     0.06997   0.68003   0.75000   0.00000  Uiso   1.00
C1034  C     0.43003   0.81997   0.25000   0.00000  Uiso   1.00
C1035  C     0.14447   0.88244   0.21552   0.00000  Uiso   1.00
C1036  C     0.35553   0.61756   0.78448   0.00000  Uiso   1.00
C1037  C     0.11600   0.64284   0.21502   0.00000  Uiso   1.00
C1038  C     0.38400   0.85716   0.78497   0.00000  Uiso   1.00
C1039  C     0.35553   0.61756   0.21552   0.00000  Uiso   1.00
C1040  C     0.28272   0.50833   0.41785   0.00000  Uiso   1.00
C1041  C     0.14447   0.88244   0.78448   0.00000  Uiso   1.00
C1042  C     0.38400   0.85716   0.21502   0.00000  Uiso   1.00
C1043  C     0.11600   0.64284   0.78497   0.00000  Uiso   1.00
C1044  C     0.14284   0.61600   0.78497   0.00000  Uiso   1.00
C1045  C     0.35716   0.88400   0.21502   0.00000  Uiso   1.00
C1046  C     0.11756   0.85553   0.78448   0.00000  Uiso   1.00
C1047  C     0.38244   0.64447   0.21552   0.00000  Uiso   1.00
C1048  C     0.35716   0.88400   0.78497   0.00000  Uiso   1.00
C1049  C     0.14284   0.61600   0.21502   0.00000  Uiso   1.00
C1050  C     0.38244   0.64447   0.78448   0.00000  Uiso   1.00
C1051  C     0.21728   0.99167   0.58215   0.00000  Uiso   1.00
C1052  C     0.11756   0.85553   0.21552   0.00000  Uiso   1.00
C1053  C     0.39447   0.63244   0.71552   0.00000  Uiso   1.00
C1054  C     0.10553   0.86756   0.28448   0.00000  Uiso   1.00
C1055  C     0.36600   0.89284   0.71502   0.00000  Uiso   1.00
C1056  C     0.13400   0.60716   0.28497   0.00000  Uiso   1.00
C1057  C     0.10553   0.86756   0.71552   0.00000  Uiso   1.00
C1058  C     0.39447   0.63244   0.28448   0.00000  Uiso   1.00
C1059  C     0.13400   0.60716   0.71502   0.00000  Uiso   1.00
C1060  C     0.36600   0.89284   0.28497   0.00000  Uiso   1.00
C1061  C     0.39284   0.86600   0.28497   0.00000  Uiso   1.00
C1062  C     0.25833   0.53272   0.91785   0.00000  Uiso   1.00
C1063  C     0.10716   0.63400   0.71502   0.00000  Uiso   1.00
C1064  C     0.36756   0.60553   0.28448   0.00000  Uiso   1.00
C1065  C     0.13244   0.89447   0.71552   0.00000  Uiso   1.00
C1066  C     0.10716   0.63400   0.28497   0.00000  Uiso   1.00
C1067  C     0.39284   0.86600   0.71502   0.00000  Uiso   1.00
C1068  C     0.13244   0.89447   0.28448   0.00000  Uiso   1.00
C1069  C     0.36756   0.60553   0.71552   0.00000  Uiso   1.00
C1070  C     0.49230   0.71730   0.45885   0.00000  Uiso   1.00
C1071  C     0.00770   0.78270   0.54115   0.00000  Uiso   1.00
C1072  C     0.28270   0.50770   0.45885   0.00000  Uiso   1.00
H1073  H     0.48013   0.65927   0.46634   0.00000  Uiso   1.00
H1074  H     0.26987   0.59073   0.03366   0.00000  Uiso   1.00
H1075  H     0.10566   0.53341   0.63167   0.00000  Uiso   1.00
H1076  H     0.17323   0.53890   0.62359   0.00000  Uiso   1.00
H1077  H     0.15074   0.52750   0.57897   0.00000  Uiso   1.00
H1078  H     0.16733   0.95989   0.59145   0.00000  Uiso   1.00
H1079  H     0.18806   0.97297   0.63439   0.00000  Uiso   1.00
H1080  H     0.26337   0.64273   0.88465   0.00000  Uiso   1.00
H1081  H     0.25030   0.62067   0.83973   0.00000  Uiso   1.00
H1082  H     0.21659   0.64434   0.86833   0.00000  Uiso   1.00
H1083  H     0.21110   0.57677   0.87641   0.00000  Uiso   1.00
H1084  H     0.22250   0.59926   0.92103   0.00000  Uiso   1.00
H1085  H     0.09073   0.76987   0.96634   0.00000  Uiso   1.00
H1086  H     0.29011   0.58267   0.90855   0.00000  Uiso   1.00
H1087  H     0.27703   0.56194   0.86561   0.00000  Uiso   1.00
H1088  H     0.24970   0.87933   0.16027   0.00000  Uiso   1.00
H1089  H     0.23663   0.85727   0.11534   0.00000  Uiso   1.00
H1090  H     0.28341   0.85566   0.13167   0.00000  Uiso   1.00
H1091  H     0.27749   0.90074   0.07897   0.00000  Uiso   1.00
H1092  H     0.28890   0.92323   0.12359   0.00000  Uiso   1.00
H1093  H     0.22297   0.93806   0.13439   0.00000  Uiso   1.00
H1094  H     0.20989   0.91733   0.09145   0.00000  Uiso   1.00
H1095  H     0.37933   0.74970   0.83973   0.00000  Uiso   1.00
H1096  H     0.40927   0.73013   0.03366   0.00000  Uiso   1.00
H1097  H     0.35727   0.73663   0.88465   0.00000  Uiso   1.00
H1098  H     0.35566   0.78341   0.86833   0.00000  Uiso   1.00
H1099  H     0.40074   0.77749   0.92103   0.00000  Uiso   1.00
H1100  H     0.42323   0.78890   0.87641   0.00000  Uiso   1.00
H1101  H     0.43806   0.72297   0.86561   0.00000  Uiso   1.00
H1102  H     0.41733   0.70989   0.90855   0.00000  Uiso   1.00
H1103  H     0.14273   0.76337   0.11534   0.00000  Uiso   1.00
H1104  H     0.12067   0.75030   0.16027   0.00000  Uiso   1.00
H1105  H     0.14434   0.71659   0.13167   0.00000  Uiso   1.00
H1106  H     0.07677   0.71110   0.12359   0.00000  Uiso   1.00
H1107  H     0.26987   0.59073   0.96634   0.00000  Uiso   1.00
H1108  H     0.09926   0.72250   0.07897   0.00000  Uiso   1.00
H1109  H     0.08267   0.79011   0.09145   0.00000  Uiso   1.00
H1110  H     0.06194   0.77703   0.13439   0.00000  Uiso   1.00
H1111  H     0.23663   0.85727   0.88465   0.00000  Uiso   1.00
H1112  H     0.24970   0.87933   0.83973   0.00000  Uiso   1.00
H1113  H     0.28341   0.85566   0.86833   0.00000  Uiso   1.00
H1114  H     0.28890   0.92323   0.87641   0.00000  Uiso   1.00
H1115  H     0.27749   0.90074   0.92103   0.00000  Uiso   1.00
H1116  H     0.20989   0.91733   0.90855   0.00000  Uiso   1.00
H1117  H     0.22297   0.93806   0.86561   0.00000  Uiso   1.00
H1118  H     0.23013   0.90927   0.03366   0.00000  Uiso   1.00
H1119  H     0.25030   0.62067   0.16027   0.00000  Uiso   1.00
H1120  H     0.26337   0.64273   0.11534   0.00000  Uiso   1.00
H1121  H     0.21659   0.64434   0.13167   0.00000  Uiso   1.00
H1122  H     0.22250   0.59926   0.07897   0.00000  Uiso   1.00
H1123  H     0.21110   0.57677   0.12359   0.00000  Uiso   1.00
H1124  H     0.27703   0.56194   0.13439   0.00000  Uiso   1.00
H1125  H     0.29011   0.58267   0.09145   0.00000  Uiso   1.00
H1126  H     0.12067   0.75030   0.83973   0.00000  Uiso   1.00
H1127  H     0.14273   0.76337   0.88465   0.00000  Uiso   1.00
H1128  H     0.14434   0.71659   0.86833   0.00000  Uiso   1.00
H1129  H     0.40927   0.73013   0.96634   0.00000  Uiso   1.00
H1130  H     0.09926   0.72250   0.92103   0.00000  Uiso   1.00
H1131  H     0.07677   0.71110   0.87641   0.00000  Uiso   1.00
H1132  H     0.06194   0.77703   0.86561   0.00000  Uiso   1.00
H1133  H     0.08267   0.79011   0.90855   0.00000  Uiso   1.00
H1134  H     0.35727   0.73663   0.11534   0.00000  Uiso   1.00
H1135  H     0.37933   0.74970   0.16027   0.00000  Uiso   1.00
H1136  H     0.35566   0.78341   0.13167   0.00000  Uiso   1.00
H1137  H     0.42323   0.78890   0.12359   0.00000  Uiso   1.00
H1138  H     0.40074   0.77749   0.07897   0.00000  Uiso   1.00
H1139  H     0.41733   0.70989   0.09145   0.00000  Uiso   1.00
H1140  H     0.09073   0.76987   0.03366   0.00000  Uiso   1.00
H1141  H     0.43806   0.72297   0.13439   0.00000  Uiso   1.00
H1142  H     0.18653   0.90098   0.18627   0.00000  Uiso   1.00
H1143  H     0.31347   0.59902   0.81373   0.00000  Uiso   1.00
H1144  H     0.09769   0.68425   0.18509   0.00000  Uiso   1.00
H1145  H     0.01987   0.84073   0.53366   0.00000  Uiso   1.00
H1146  H     0.40231   0.81575   0.81491   0.00000  Uiso   1.00
H1147  H     0.31347   0.59902   0.18627   0.00000  Uiso   1.00
H1148  H     0.18653   0.90098   0.81373   0.00000  Uiso   1.00
H1149  H     0.40231   0.81575   0.18509   0.00000  Uiso   1.00
H1150  H     0.09769   0.68425   0.81491   0.00000  Uiso   1.00
H1151  H     0.18425   0.59769   0.81491   0.00000  Uiso   1.00
H1152  H     0.31575   0.90231   0.18509   0.00000  Uiso   1.00
H1153  H     0.09902   0.81347   0.81373   0.00000  Uiso   1.00
H1154  H     0.40098   0.68653   0.18627   0.00000  Uiso   1.00
H1155  H     0.31575   0.90231   0.81491   0.00000  Uiso   1.00
H1156  H     0.34073   0.51987   0.46634   0.00000  Uiso   1.00
H1157  H     0.18425   0.59769   0.18509   0.00000  Uiso   1.00
H1158  H     0.40098   0.68653   0.81373   0.00000  Uiso   1.00
H1159  H     0.09902   0.81347   0.18627   0.00000  Uiso   1.00
H1160  H     0.43653   0.65098   0.68627   0.00000  Uiso   1.00
H1161  H     0.06347   0.84902   0.31373   0.00000  Uiso   1.00
H1162  H     0.34769   0.93425   0.68509   0.00000  Uiso   1.00
H1163  H     0.15231   0.56575   0.31491   0.00000  Uiso   1.00
H1164  H     0.06347   0.84902   0.68627   0.00000  Uiso   1.00
H1165  H     0.43653   0.65098   0.31373   0.00000  Uiso   1.00
H1166  H     0.15231   0.56575   0.68509   0.00000  Uiso   1.00
H1167  H     0.15927   0.98013   0.53366   0.00000  Uiso   1.00
H1168  H     0.34769   0.93425   0.31491   0.00000  Uiso   1.00
H1169  H     0.43425   0.84769   0.31491   0.00000  Uiso   1.00
H1170  H     0.06575   0.65231   0.68509   0.00000  Uiso   1.00
H1171  H     0.34902   0.56347   0.31373   0.00000  Uiso   1.00
H1172  H     0.15098   0.93653   0.68627   0.00000  Uiso   1.00
H1173  H     0.06575   0.65231   0.31491   0.00000  Uiso   1.00
H1174  H     0.43425   0.84769   0.68509   0.00000  Uiso   1.00
H1175  H     0.15098   0.93653   0.31373   0.00000  Uiso   1.00
H1176  H     0.34902   0.56347   0.68627   0.00000  Uiso   1.00
H1177  H     0.01337   0.89273   0.38465   0.00000  Uiso   1.00
H1178  H     0.01987   0.84073   0.46634   0.00000  Uiso   1.00
H1179  H     0.00030   0.87067   0.33973   0.00000  Uiso   1.00
H1180  H     0.46659   0.89434   0.36833   0.00000  Uiso   1.00
H1181  H     0.46110   0.82677   0.37641   0.00000  Uiso   1.00
H1182  H     0.47250   0.84925   0.42103   0.00000  Uiso   1.00
H1183  H     0.04011   0.83267   0.40855   0.00000  Uiso   1.00
H1184  H     0.02703   0.81194   0.36561   0.00000  Uiso   1.00
H1185  H     0.49970   0.62933   0.66027   0.00000  Uiso   1.00
H1186  H     0.48663   0.60727   0.61534   0.00000  Uiso   1.00
H1187  H     0.03341   0.60566   0.63167   0.00000  Uiso   1.00
H1188  H     0.02749   0.65074   0.57897   0.00000  Uiso   1.00
H1189  H     0.48013   0.65927   0.53366   0.00000  Uiso   1.00
H1190  H     0.03890   0.67323   0.62359   0.00000  Uiso   1.00
H1191  H     0.47297   0.68806   0.63439   0.00000  Uiso   1.00
H1192  H     0.45989   0.66733   0.59145   0.00000  Uiso   1.00
H1193  H     0.12933   0.99970   0.33973   0.00000  Uiso   1.00
H1194  H     0.10727   0.98663   0.38465   0.00000  Uiso   1.00
H1195  H     0.10566   0.53341   0.36833   0.00000  Uiso   1.00
H1196  H     0.15074   0.52750   0.42103   0.00000  Uiso   1.00
H1197  H     0.17323   0.53890   0.37641   0.00000  Uiso   1.00
H1198  H     0.18806   0.97297   0.36561   0.00000  Uiso   1.00
H1199  H     0.16733   0.95989   0.40855   0.00000  Uiso   1.00
H1200  H     0.15927   0.98013   0.46634   0.00000  Uiso   1.00
H1201  H     0.39273   0.51337   0.61534   0.00000  Uiso   1.00
H1202  H     0.37067   0.50030   0.66027   0.00000  Uiso   1.00
H1203  H     0.39434   0.96659   0.63167   0.00000  Uiso   1.00
H1204  H     0.32677   0.96110   0.62359   0.00000  Uiso   1.00
H1205  H     0.34925   0.97250   0.57897   0.00000  Uiso   1.00
H1206  H     0.33267   0.54011   0.59145   0.00000  Uiso   1.00
H1207  H     0.31194   0.52703   0.63439   0.00000  Uiso   1.00
H1208  H     0.48663   0.60727   0.38465   0.00000  Uiso   1.00
H1209  H     0.49970   0.62933   0.33973   0.00000  Uiso   1.00
H1210  H     0.03341   0.60566   0.36833   0.00000  Uiso   1.00
H1211  H     0.34073   0.51987   0.53366   0.00000  Uiso   1.00
H1212  H     0.03890   0.67323   0.37641   0.00000  Uiso   1.00
H1213  H     0.02749   0.65074   0.42103   0.00000  Uiso   1.00
H1214  H     0.45989   0.66733   0.40855   0.00000  Uiso   1.00
H1215  H     0.47297   0.68806   0.36561   0.00000  Uiso   1.00
H1216  H     0.00030   0.87067   0.66027   0.00000  Uiso   1.00
H1217  H     0.01337   0.89273   0.61534   0.00000  Uiso   1.00
H1218  H     0.46659   0.89434   0.63167   0.00000  Uiso   1.00
H1219  H     0.47250   0.84926   0.57897   0.00000  Uiso   1.00
H1220  H     0.46110   0.82677   0.62359   0.00000  Uiso   1.00
H1221  H     0.02703   0.81194   0.63439   0.00000  Uiso   1.00
H1222  H     0.23013   0.90927   0.96634   0.00000  Uiso   1.00
H1223  H     0.04011   0.83267   0.59145   0.00000  Uiso   1.00
H1224  H     0.37067   0.50030   0.33973   0.00000  Uiso   1.00
H1225  H     0.39273   0.51337   0.38465   0.00000  Uiso   1.00
H1226  H     0.39434   0.96659   0.36833   0.00000  Uiso   1.00
H1227  H     0.34926   0.97250   0.42103   0.00000  Uiso   1.00
H1228  H     0.32677   0.96110   0.37641   0.00000  Uiso   1.00
H1229  H     0.31194   0.52703   0.36561   0.00000  Uiso   1.00
H1230  H     0.33267   0.54011   0.40855   0.00000  Uiso   1.00
H1231  H     0.10727   0.98663   0.61534   0.00000  Uiso   1.00
H1232  H     0.12933   0.99970   0.66027   0.00000  Uiso   1.00
O1233  O     0.25000   0.50000   0.25000   0.00000  Uiso   1.00
O1234  O     0.25000   0.96963   0.66245   0.00000  Uiso   1.00
O1235  O     0.46963   0.75000   0.33755   0.00000  Uiso   1.00
O1236  O     0.03036   0.75000   0.66245   0.00000  Uiso   1.00
O1237  O     0.00000   0.71963   0.83755   0.00000  Uiso   1.00
O1238  O     0.00000   0.78036   0.16245   0.00000  Uiso   1.00
O1239  O     0.28036   0.50000   0.83755   0.00000  Uiso   1.00
O1240  O     0.21963   0.50000   0.16245   0.00000  Uiso   1.00
O1241  O     0.00000   0.78036   0.83755   0.00000  Uiso   1.00
O1242  O    -0.00000   0.71964   0.16245   0.00000  Uiso   1.00
O1243  O     0.21963   0.50000   0.83755   0.00000  Uiso   1.00
O1244  O     0.25000   0.50000   0.75000   0.00000  Uiso   1.00
O1245  O     0.28036   0.50000   0.16245   0.00000  Uiso   1.00
O1246  O     0.20724   0.57308   0.27302   0.00000  Uiso   1.00
O1247  O     0.29275   0.92692   0.72698   0.00000  Uiso   1.00
O1248  O     0.42692   0.70725   0.27302   0.00000  Uiso   1.00
O1249  O     0.07307   0.79275   0.72698   0.00000  Uiso   1.00
O1250  O     0.29275   0.92692   0.27302   0.00000  Uiso   1.00
O1251  O     0.20724   0.57308   0.72698   0.00000  Uiso   1.00
O1252  O     0.07307   0.79275   0.27302   0.00000  Uiso   1.00
O1253  O     0.42692   0.70725   0.72698   0.00000  Uiso   1.00
O1254  O     0.20724   0.92692   0.72698   0.00000  Uiso   1.00
O1255  O    -0.00000   0.75000   0.25000   0.00000  Uiso   1.00
O1256  O     0.29275   0.57308   0.27302   0.00000  Uiso   1.00
O1257  O     0.42692   0.79275   0.72698   0.00000  Uiso   1.00
O1258  O     0.07307   0.70724   0.27302   0.00000  Uiso   1.00
O1259  O     0.29275   0.57308   0.72698   0.00000  Uiso   1.00
O1260  O     0.20724   0.92692   0.27302   0.00000  Uiso   1.00
O1261  O     0.07307   0.70724   0.72698   0.00000  Uiso   1.00
O1262  O     0.42692   0.79275   0.27302   0.00000  Uiso   1.00
O1263  O     0.45724   0.82307   0.77302   0.00000  Uiso   1.00
O1264  O     0.04275   0.67692   0.22698   0.00000  Uiso   1.00
O1265  O     0.17692   0.95724   0.77302   0.00000  Uiso   1.00
O1266  O     0.00000   0.75000   0.75000   0.00000  Uiso   1.00
O1267  O     0.32307   0.54276   0.22698   0.00000  Uiso   1.00
O1268  O     0.04275   0.67692   0.77302   0.00000  Uiso   1.00
O1269  O     0.45724   0.82307   0.22698   0.00000  Uiso   1.00
O1270  O     0.32307   0.54276   0.77302   0.00000  Uiso   1.00
O1271  O     0.17692   0.95724   0.22698   0.00000  Uiso   1.00
O1272  O     0.45724   0.67693   0.22698   0.00000  Uiso   1.00
O1273  O     0.04275   0.82307   0.77302   0.00000  Uiso   1.00
O1274  O     0.17692   0.54276   0.22698   0.00000  Uiso   1.00
O1275  O     0.32307   0.95724   0.77302   0.00000  Uiso   1.00
O1276  O     0.04275   0.82307   0.22698   0.00000  Uiso   1.00
O1277  O     0.25000   0.96963   0.33755   0.00000  Uiso   1.00
O1278  O     0.45724   0.67693   0.77302   0.00000  Uiso   1.00
O1279  O     0.32307   0.95724   0.22698   0.00000  Uiso   1.00
O1280  O     0.17692   0.54276   0.77302   0.00000  Uiso   1.00
O1281  O     0.16344   0.88778   0.18127   0.00000  Uiso   1.00
O1282  O     0.33656   0.61222   0.81873   0.00000  Uiso   1.00
O1283  O     0.10920   0.66031   0.18024   0.00000  Uiso   1.00
O1284  O     0.39079   0.83969   0.81976   0.00000  Uiso   1.00
O1285  O     0.33656   0.61222   0.18127   0.00000  Uiso   1.00
O1286  O     0.16344   0.88778   0.81873   0.00000  Uiso   1.00
O1287  O     0.39079   0.83969   0.18024   0.00000  Uiso   1.00
O1288  O     0.25000   0.53037   0.66245   0.00000  Uiso   1.00
O1289  O     0.10920   0.66031   0.81976   0.00000  Uiso   1.00
O1290  O     0.16031   0.60920   0.81976   0.00000  Uiso   1.00
O1291  O     0.33969   0.89079   0.18024   0.00000  Uiso   1.00
O1292  O     0.11222   0.83656   0.81873   0.00000  Uiso   1.00
O1293  O     0.38778   0.66344   0.18127   0.00000  Uiso   1.00
O1294  O     0.33969   0.89079   0.81976   0.00000  Uiso   1.00
O1295  O     0.16031   0.60920   0.18024   0.00000  Uiso   1.00
O1296  O     0.38778   0.66344   0.81873   0.00000  Uiso   1.00
O1297  O     0.11222   0.83656   0.18127   0.00000  Uiso   1.00
O1298  O     0.41344   0.63778   0.68127   0.00000  Uiso   1.00
O1299  O     0.03036   0.75000   0.33755   0.00000  Uiso   1.00
O1300  O     0.08656   0.86222   0.31873   0.00000  Uiso   1.00
O1301  O     0.35920   0.91031   0.68024   0.00000  Uiso   1.00
O1302  O     0.14079   0.58969   0.31976   0.00000  Uiso   1.00
O1303  O     0.08656   0.86222   0.68127   0.00000  Uiso   1.00
O1304  O     0.41344   0.63778   0.31873   0.00000  Uiso   1.00
O1305  O     0.14079   0.58969   0.68024   0.00000  Uiso   1.00
O1306  O     0.35920   0.91031   0.31976   0.00000  Uiso   1.00
O1307  O     0.41031   0.85920   0.31976   0.00000  Uiso   1.00
O1308  O     0.08969   0.64079   0.68024   0.00000  Uiso   1.00
O1309  O     0.36222   0.58656   0.31873   0.00000  Uiso   1.00
O1310  O     0.46963   0.75000   0.66245   0.00000  Uiso   1.00
O1311  O     0.13778   0.91344   0.68127   0.00000  Uiso   1.00
O1312  O     0.08969   0.64079   0.31976   0.00000  Uiso   1.00
O1313  O     0.41031   0.85920   0.68024   0.00000  Uiso   1.00
O1314  O     0.13778   0.91344   0.31873   0.00000  Uiso   1.00
O1315  O     0.36222   0.58656   0.68127   0.00000  Uiso   1.00
O1316  O     0.25000   0.53037   0.33755   0.00000  Uiso   1.00
Zn1317 Zn    0.20659   0.50000   0.21735   0.00000  Uiso   1.00
Zn1318 Zn    0.04340   0.75000   0.28265   0.00000  Uiso   1.00
Zn1319 Zn    0.25000   0.95659   0.71735   0.00000  Uiso   1.00
Zn1320 Zn    0.25000   0.54341   0.28265   0.00000  Uiso   1.00
Zn1321 Zn    0.04340   0.75000   0.71735   0.00000  Uiso   1.00
Zn1322 Zn    0.45659   0.75000   0.28265   0.00000  Uiso   1.00
Zn1323 Zn    0.25000   0.54341   0.71735   0.00000  Uiso   1.00
Zn1324 Zn    0.25000   0.95659   0.28265   0.00000  Uiso   1.00
Zn1325 Zn    0.29340   0.50000   0.78265   0.00000  Uiso   1.00
Zn1326 Zn    0.00000   0.70659   0.21735   0.00000  Uiso   1.00
Zn1327 Zn    0.00000   0.79340   0.78265   0.00000  Uiso   1.00
Zn1328 Zn    0.29340   0.50000   0.21735   0.00000  Uiso   1.00
Zn1329 Zn    0.20659   0.50000   0.78265   0.00000  Uiso   1.00
Zn1330 Zn   -0.00000   0.79341   0.21735   0.00000  Uiso   1.00
Zn1331 Zn    0.00000   0.70659   0.78265   0.00000  Uiso   1.00
Zn1332 Zn    0.45659   0.75000   0.71735   0.00000  Uiso   1.00
C1333  C     0.50833   0.78272   0.41785   0.00000  Uiso   1.00
C1334  C     0.74167   0.96728   0.08215   0.00000  Uiso   1.00
C1335  C     0.71730   0.99230   0.54115   0.00000  Uiso   1.00
C1336  C     0.50770   0.78270   0.45885   0.00000  Uiso   1.00
C1337  C     0.99230   0.71730   0.54115   0.00000  Uiso   1.00
C1338  C     0.71730   0.99230   0.45885   0.00000  Uiso   1.00
C1339  C     0.78270   0.50770   0.54115   0.00000  Uiso   1.00
C1340  C     0.74230   0.96730   0.95885   0.00000  Uiso   1.00
C1341  C     0.75770   0.53270   0.04115   0.00000  Uiso   1.00
C1342  C     0.53270   0.75770   0.95885   0.00000  Uiso   1.00
C1343  C     0.96730   0.74230   0.04115   0.00000  Uiso   1.00
C1344  C     0.75770   0.53270   0.95885   0.00000  Uiso   1.00
C1345  C     0.96728   0.74167   0.91785   0.00000  Uiso   1.00
C1346  C     0.74230   0.96730   0.04115   0.00000  Uiso   1.00
C1347  C     0.96730   0.74230   0.95885   0.00000  Uiso   1.00
C1348  C     0.53270   0.75770   0.04115   0.00000  Uiso   1.00
C1349  C     0.59800   0.84800   0.25000   0.00000  Uiso   1.00
C1350  C     0.90200   0.65200   0.75000   0.00000  Uiso   1.00
C1351  C     0.65197   0.59803   0.25000   0.00000  Uiso   1.00
C1352  C     0.84803   0.90197   0.75000   0.00000  Uiso   1.00
C1353  C     0.90200   0.65200   0.25000   0.00000  Uiso   1.00
C1354  C     0.59800   0.84800   0.75000   0.00000  Uiso   1.00
C1355  C     0.84803   0.90197   0.25000   0.00000  Uiso   1.00
C1356  C     0.53272   0.75833   0.08215   0.00000  Uiso   1.00
C1357  C     0.65197   0.59803   0.75000   0.00000  Uiso   1.00
C1358  C     0.59803   0.65197   0.75000   0.00000  Uiso   1.00
C1359  C     0.90197   0.84803   0.25000   0.00000  Uiso   1.00
C1360  C     0.65200   0.90200   0.75000   0.00000  Uiso   1.00
C1361  C     0.84800   0.59800   0.25000   0.00000  Uiso   1.00
C1362  C     0.90197   0.84803   0.75000   0.00000  Uiso   1.00
C1363  C     0.59803   0.65197   0.25000   0.00000  Uiso   1.00
C1364  C     0.84800   0.59800   0.75000   0.00000  Uiso   1.00
C1365  C     0.65200   0.90200   0.25000   0.00000  Uiso   1.00
C1366  C     0.50000   0.75000   0.47935   0.00000  Uiso   1.00
C1367  C     0.74167   0.96728   0.91785   0.00000  Uiso   1.00
C1368  C     0.50000   0.75000   0.52065   0.00000  Uiso   1.00
C1369  C     0.75000   0.50000   0.47935   0.00000  Uiso   1.00
C1370  C     0.75000   0.50000   0.52065   0.00000  Uiso   1.00
C1371  C     0.75000   0.50000   0.97935   0.00000  Uiso   1.00
C1372  C     0.75000   0.50000   0.02065   0.00000  Uiso   1.00
C1373  C     0.50000   0.75000   0.97935   0.00000  Uiso   1.00
C1374  C     0.50000   0.75000   0.02065   0.00000  Uiso   1.00
C1375  C     0.51693   0.81770   0.39519   0.00000  Uiso   1.00
C1376  C     0.98298   0.84199   0.39186   0.00000  Uiso   1.00
C1377  C     0.99146   0.87709   0.36974   0.00000  Uiso   1.00
C1378  C     0.75833   0.53272   0.08215   0.00000  Uiso   1.00
C1379  C     0.98307   0.68230   0.60481   0.00000  Uiso   1.00
C1380  C     0.51702   0.65801   0.60814   0.00000  Uiso   1.00
C1381  C     0.50854   0.62291   0.63026   0.00000  Uiso   1.00
C1382  C     0.68230   0.98307   0.39519   0.00000  Uiso   1.00
C1383  C     0.65801   0.51702   0.39186   0.00000  Uiso   1.00
C1384  C     0.62291   0.50854   0.36974   0.00000  Uiso   1.00
C1385  C     0.81770   0.51693   0.60481   0.00000  Uiso   1.00
C1386  C     0.84199   0.98298   0.60814   0.00000  Uiso   1.00
C1387  C     0.87709   0.99146   0.63026   0.00000  Uiso   1.00
C1388  C     0.98307   0.68230   0.39519   0.00000  Uiso   1.00
C1389  C     0.53272   0.75833   0.91785   0.00000  Uiso   1.00
C1390  C     0.51702   0.65801   0.39186   0.00000  Uiso   1.00
C1391  C     0.50854   0.62291   0.36974   0.00000  Uiso   1.00
C1392  C     0.51693   0.81770   0.60481   0.00000  Uiso   1.00
C1393  C     0.98298   0.84199   0.60814   0.00000  Uiso   1.00
C1394  C     0.99146   0.87709   0.63026   0.00000  Uiso   1.00
C1395  C     0.81770   0.51693   0.39519   0.00000  Uiso   1.00
C1396  C     0.84199   0.98298   0.39186   0.00000  Uiso   1.00
C1397  C     0.87709   0.99146   0.36974   0.00000  Uiso   1.00
C1398  C     0.68230   0.98307   0.60481   0.00000  Uiso   1.00
C1399  C     0.65801   0.51702   0.60814   0.00000  Uiso   1.00
C1400  C     0.96728   0.74167   0.08215   0.00000  Uiso   1.00
C1401  C     0.62291   0.50854   0.63026   0.00000  Uiso   1.00
C1402  C     0.76693   0.56770   0.89519   0.00000  Uiso   1.00
C1403  C     0.73298   0.59199   0.89186   0.00000  Uiso   1.00
C1404  C     0.74146   0.62709   0.86974   0.00000  Uiso   1.00
C1405  C     0.73307   0.93230   0.10481   0.00000  Uiso   1.00
C1406  C     0.76702   0.90801   0.10814   0.00000  Uiso   1.00
C1407  C     0.75854   0.87291   0.13026   0.00000  Uiso   1.00
C1408  C     0.93230   0.73307   0.89519   0.00000  Uiso   1.00
C1409  C     0.90801   0.76702   0.89186   0.00000  Uiso   1.00
C1410  C     0.87291   0.75854   0.86974   0.00000  Uiso   1.00
C1411  C     0.50000   0.75000   0.39790   0.00000  Uiso   1.00
C1412  C     0.56770   0.76693   0.10481   0.00000  Uiso   1.00
C1413  C     0.59199   0.73298   0.10814   0.00000  Uiso   1.00
C1414  C     0.62709   0.74146   0.13026   0.00000  Uiso   1.00
C1415  C     0.73307   0.93230   0.89519   0.00000  Uiso   1.00
C1416  C     0.76702   0.90801   0.89186   0.00000  Uiso   1.00
C1417  C     0.75854   0.87291   0.86974   0.00000  Uiso   1.00
C1418  C     0.76693   0.56770   0.10481   0.00000  Uiso   1.00
C1419  C     0.73298   0.59199   0.10814   0.00000  Uiso   1.00
C1420  C     0.74146   0.62709   0.13026   0.00000  Uiso   1.00
C1421  C     0.56770   0.76693   0.89519   0.00000  Uiso   1.00
C1422  C     0.50000   0.75000   0.60210   0.00000  Uiso   1.00
C1423  C     0.59199   0.73298   0.89186   0.00000  Uiso   1.00
C1424  C     0.62709   0.74146   0.86974   0.00000  Uiso   1.00
C1425  C     0.93230   0.73307   0.10481   0.00000  Uiso   1.00
C1426  C     0.90801   0.76702   0.10814   0.00000  Uiso   1.00
C1427  C     0.87291   0.75854   0.13026   0.00000  Uiso   1.00
C1428  C     0.75000   0.50000   0.39790   0.00000  Uiso   1.00
C1429  C     0.99167   0.71728   0.58215   0.00000  Uiso   1.00
C1430  C     0.75000   0.50000   0.60210   0.00000  Uiso   1.00
C1431  C     0.75000   0.50000   0.89790   0.00000  Uiso   1.00
C1432  C     0.75000   0.50000   0.10210   0.00000  Uiso   1.00
C1433  C     0.50000   0.75000   0.89790   0.00000  Uiso   1.00
C1434  C     0.50000   0.75000   0.10210   0.00000  Uiso   1.00
C1435  C     0.98543   0.68524   0.48001   0.00000  Uiso   1.00
C1436  C     0.51457   0.81476   0.51999   0.00000  Uiso   1.00
C1437  C     0.81476   0.51457   0.48001   0.00000  Uiso   1.00
C1438  C     0.68524   0.98543   0.51999   0.00000  Uiso   1.00
C1439  C     0.51457   0.81476   0.48001   0.00000  Uiso   1.00
C1440  C     0.71728   0.99167   0.41785   0.00000  Uiso   1.00
C1441  C     0.98543   0.68524   0.51999   0.00000  Uiso   1.00
C1442  C     0.68524   0.98543   0.48001   0.00000  Uiso   1.00
C1443  C     0.81476   0.51457   0.51999   0.00000  Uiso   1.00
C1444  C     0.73543   0.93524   0.98001   0.00000  Uiso   1.00
C1445  C     0.76457   0.56476   0.01999   0.00000  Uiso   1.00
C1446  C     0.56476   0.76457   0.98001   0.00000  Uiso   1.00
C1447  C     0.93524   0.73543   0.01999   0.00000  Uiso   1.00
C1448  C     0.76457   0.56476   0.98001   0.00000  Uiso   1.00
C1449  C     0.73543   0.93524   0.01999   0.00000  Uiso   1.00
C1450  C     0.93524   0.73543   0.98001   0.00000  Uiso   1.00
C1451  C     0.78272   0.50833   0.58215   0.00000  Uiso   1.00
C1452  C     0.56476   0.76457   0.01999   0.00000  Uiso   1.00
C1453  C     0.75000   0.50000   0.35569   0.00000  Uiso   1.00
C1454  C     0.75000   0.50000   0.64431   0.00000  Uiso   1.00
C1455  C     0.50000   0.75000   0.35569   0.00000  Uiso   1.00
C1456  C     0.50000   0.75000   0.64431   0.00000  Uiso   1.00
C1457  C     0.50000   0.75000   0.85569   0.00000  Uiso   1.00
C1458  C     0.50000   0.75000   0.14431   0.00000  Uiso   1.00
C1459  C     0.75000   0.50000   0.85569   0.00000  Uiso   1.00
C1460  C     0.75000   0.50000   0.14431   0.00000  Uiso   1.00
C1461  C     0.68003   0.56997   0.25000   0.00000  Uiso   1.00
C1462  C     0.99167   0.71728   0.41785   0.00000  Uiso   1.00
C1463  C     0.81997   0.93003   0.75000   0.00000  Uiso   1.00
C1464  C     0.93005   0.68005   0.25000   0.00000  Uiso   1.00
C1465  C     0.56995   0.81995   0.75000   0.00000  Uiso   1.00
C1466  C     0.81997   0.93003   0.25000   0.00000  Uiso   1.00
C1467  C     0.68003   0.56997   0.75000   0.00000  Uiso   1.00
C1468  C     0.56995   0.81995   0.25000   0.00000  Uiso   1.00
C1469  C     0.93005   0.68005   0.75000   0.00000  Uiso   1.00
C1470  C     0.68005   0.93005   0.75000   0.00000  Uiso   1.00
C1471  C     0.81995   0.56995   0.25000   0.00000  Uiso   1.00
C1472  C     0.93003   0.81997   0.75000   0.00000  Uiso   1.00
C1473  C     0.50833   0.78272   0.58215   0.00000  Uiso   1.00
C1474  C     0.56997   0.68003   0.25000   0.00000  Uiso   1.00
C1475  C     0.81995   0.56995   0.75000   0.00000  Uiso   1.00
C1476  C     0.68005   0.93005   0.25000   0.00000  Uiso   1.00
C1477  C     0.56997   0.68003   0.75000   0.00000  Uiso   1.00
C1478  C     0.93003   0.81997   0.25000   0.00000  Uiso   1.00
C1479  C     0.64447   0.88244   0.21552   0.00000  Uiso   1.00
C1480  C     0.85553   0.61756   0.78448   0.00000  Uiso   1.00
C1481  C     0.61600   0.64284   0.21502   0.00000  Uiso   1.00
C1482  C     0.88400   0.85716   0.78497   0.00000  Uiso   1.00
C1483  C     0.85553   0.61756   0.21552   0.00000  Uiso   1.00
C1484  C     0.78272   0.50833   0.41785   0.00000  Uiso   1.00
C1485  C     0.64447   0.88244   0.78448   0.00000  Uiso   1.00
C1486  C     0.88400   0.85716   0.21502   0.00000  Uiso   1.00
C1487  C     0.61600   0.64284   0.78497   0.00000  Uiso   1.00
C1488  C     0.64284   0.61600   0.78497   0.00000  Uiso   1.00
C1489  C     0.85716   0.88400   0.21502   0.00000  Uiso   1.00
C1490  C     0.61756   0.85553   0.78448   0.00000  Uiso   1.00
C1491  C     0.88244   0.64447   0.21552   0.00000  Uiso   1.00
C1492  C     0.85716   0.88400   0.78497   0.00000  Uiso   1.00
C1493  C     0.64284   0.61600   0.21502   0.00000  Uiso   1.00
C1494  C     0.88244   0.64447   0.78448   0.00000  Uiso   1.00
C1495  C     0.71728   0.99167   0.58215   0.00000  Uiso   1.00
C1496  C     0.61756   0.85553   0.21552   0.00000  Uiso   1.00
C1497  C     0.89447   0.63244   0.71552   0.00000  Uiso   1.00
C1498  C     0.60553   0.86756   0.28448   0.00000  Uiso   1.00
C1499  C     0.86600   0.89284   0.71502   0.00000  Uiso   1.00
C1500  C     0.63400   0.60716   0.28497   0.00000  Uiso   1.00
C1501  C     0.60553   0.86756   0.71552   0.00000  Uiso   1.00
C1502  C     0.89447   0.63244   0.28448   0.00000  Uiso   1.00
C1503  C     0.63400   0.60716   0.71502   0.00000  Uiso   1.00
C1504  C     0.86600   0.89284   0.28497   0.00000  Uiso   1.00
C1505  C     0.89284   0.86600   0.28497   0.00000  Uiso   1.00
C1506  C     0.75833   0.53272   0.91785   0.00000  Uiso   1.00
C1507  C     0.60716   0.63400   0.71502   0.00000  Uiso   1.00
C1508  C     0.86756   0.60553   0.28448   0.00000  Uiso   1.00
C1509  C     0.63244   0.89447   0.71552   0.00000  Uiso   1.00
C1510  C     0.60716   0.63400   0.28497   0.00000  Uiso   1.00
C1511  C     0.89284   0.86600   0.71502   0.00000  Uiso   1.00
C1512  C     0.63244   0.89447   0.28448   0.00000  Uiso   1.00
C1513  C     0.86756   0.60553   0.71552   0.00000  Uiso   1.00
C1514  C     0.99230   0.71730   0.45885   0.00000  Uiso   1.00
C1515  C     0.50770   0.78270   0.54115   0.00000  Uiso   1.00
C1516  C     0.78270   0.50770   0.45885   0.00000  Uiso   1.00
H1517  H     0.98013   0.65927   0.46634   0.00000  Uiso   1.00
H1518  H     0.76987   0.59073   0.03366   0.00000  Uiso   1.00
H1519  H     0.60566   0.53341   0.63167   0.00000  Uiso   1.00
H1520  H     0.67323   0.53890   0.62359   0.00000  Uiso   1.00
H1521  H     0.65074   0.52750   0.57897   0.00000  Uiso   1.00
H1522  H     0.66733   0.95989   0.59145   0.00000  Uiso   1.00
H1523  H     0.68806   0.97297   0.63439   0.00000  Uiso   1.00
H1524  H     0.76337   0.64273   0.88465   0.00000  Uiso   1.00
H1525  H     0.75030   0.62067   0.83973   0.00000  Uiso   1.00
H1526  H     0.71659   0.64434   0.86833   0.00000  Uiso   1.00
H1527  H     0.71110   0.57677   0.87641   0.00000  Uiso   1.00
H1528  H     0.72250   0.59926   0.92103   0.00000  Uiso   1.00
H1529  H     0.59073   0.76987   0.96634   0.00000  Uiso   1.00
H1530  H     0.79011   0.58267   0.90855   0.00000  Uiso   1.00
H1531  H     0.77703   0.56194   0.86561   0.00000  Uiso   1.00
H1532  H     0.74970   0.87933   0.16027   0.00000  Uiso   1.00
H1533  H     0.73663   0.85727   0.11534   0.00000  Uiso   1.00
H1534  H     0.78341   0.85566   0.13167   0.00000  Uiso   1.00
H1535  H     0.77749   0.90074   0.07897   0.00000  Uiso   1.00
H1536  H     0.78890   0.92323   0.12359   0.00000  Uiso   1.00
H1537  H     0.72297   0.93806   0.13439   0.00000  Uiso   1.00
H1538  H     0.70989   0.91733   0.09145   0.00000  Uiso   1.00
H1539  H     0.87933   0.74970   0.83973   0.00000  Uiso   1.00
H1540  H     0.90927   0.73013   0.03366   0.00000  Uiso   1.00
H1541  H     0.85727   0.73663   0.88465   0.00000  Uiso   1.00
H1542  H     0.85566   0.78341   0.86833   0.00000  Uiso   1.00
H1543  H     0.90074   0.77749   0.92103   0.00000  Uiso   1.00
H1544  H     0.92323   0.78890   0.87641   0.00000  Uiso   1.00
H1545  H     0.93806   0.72297   0.86561   0.00000  Uiso   1.00
H1546  H     0.91733   0.70989   0.90855   0.00000  Uiso   1.00
H1547  H     0.64273   0.76337   0.11534   0.00000  Uiso   1.00
H1548  H     0.62067   0.75030   0.16027   0.00000  Uiso   1.00
H1549  H     0.64434   0.71659   0.13167   0.00000  Uiso   1.00
H1550  H     0.57677   0.71110   0.12359   0.00000  Uiso   1.00
H1551  H     0.76987   0.59073   0.96634   0.00000  Uiso   1.00
H1552  H     0.59926   0.72250   0.07897   0.00000  Uiso   1.00
H1553  H     0.58267   0.79011   0.09145   0.00000  Uiso   1.00
H1554  H     0.56194   0.77703   0.13439   0.00000  Uiso   1.00
H1555  H     0.73663   0.85727   0.88465   0.00000  Uiso   1.00
H1556  H     0.74970   0.87933   0.83973   0.00000  Uiso   1.00
H1557  H     0.78341   0.85566   0.86833   0.00000  Uiso   1.00
H1558  H     0.78890   0.92323   0.87641   0.00000  Uiso   1.00
H1559  H     0.77749   0.90074   0.92103   0.00000  Uiso   1.00
H1560  H     0.70989   0.91733   0.90855   0.00000  Uiso   1.00
H1561  H     0.72297   0.93806   0.86561   0.00000  Uiso   1.00
H1562  H     0.73013   0.90927   0.03366   0.00000  Uiso   1.00
H1563  H     0.75030   0.62067   0.16027   0.00000  Uiso   1.00
H1564  H     0.76337   0.64273   0.11534   0.00000  Uiso   1.00
H1565  H     0.71659   0.64434   0.13167   0.00000  Uiso   1.00
H1566  H     0.72250   0.59926   0.07897   0.00000  Uiso   1.00
H1567  H     0.71110   0.57677   0.12359   0.00000  Uiso   1.00
H1568  H     0.77703   0.56194   0.13439   0.00000  Uiso   1.00
H1569  H     0.79011   0.58267   0.09145   0.00000  Uiso   1.00
H1570  H     0.62067   0.75030   0.83973   0.00000  Uiso   1.00
H1571  H     0.64273   0.76337   0.88465   0.00000  Uiso   1.00
H1572  H     0.64434   0.71659   0.86833   0.00000  Uiso   1.00
H1573  H     0.90927   0.73013   0.96634   0.00000  Uiso   1.00
H1574  H     0.59926   0.72250   0.92103   0.00000  Uiso   1.00
H1575  H     0.57677   0.71110   0.87641   0.00000  Uiso   1.00
H1576  H     0.56194   0.77703   0.86561   0.00000  Uiso   1.00
H1577  H     0.58267   0.79011   0.90855   0.00000  Uiso   1.00
H1578  H     0.85727   0.73663   0.11534   0.00000  Uiso   1.00
H1579  H     0.87933   0.74970   0.16027   0.00000  Uiso   1.00
H1580  H     0.85566   0.78341   0.13167   0.00000  Uiso   1.00
H1581  H     0.92323   0.78890   0.12359   0.00000  Uiso   1.00
H1582  H     0.90074   0.77749   0.07897   0.00000  Uiso   1.00
H1583  H     0.91733   0.70989   0.09145   0.00000  Uiso   1.00
H1584  H     0.59073   0.76987   0.03366   0.00000  Uiso   1.00
H1585  H     0.93806   0.72297   0.13439   0.00000  Uiso   1.00
H1586  H     0.68653   0.90098   0.18627   0.00000  Uiso   1.00
H1587  H     0.81347   0.59902   0.81373   0.00000  Uiso   1.00
H1588  H     0.59769   0.68425   0.18509   0.00000  Uiso   1.00
H1589  H     0.51987   0.84073   0.53366   0.00000  Uiso   1.00
H1590  H     0.90231   0.81575   0.81491   0.00000  Uiso   1.00
H1591  H     0.81347   0.59902   0.18627   0.00000  Uiso   1.00
H1592  H     0.68653   0.90098   0.81373   0.00000  Uiso   1.00
H1593  H     0.90231   0.81575   0.18509   0.00000  Uiso   1.00
H1594  H     0.59769   0.68425   0.81491   0.00000  Uiso   1.00
H1595  H     0.68425   0.59769   0.81491   0.00000  Uiso   1.00
H1596  H     0.81575   0.90231   0.18509   0.00000  Uiso   1.00
H1597  H     0.59902   0.81347   0.81373   0.00000  Uiso   1.00
H1598  H     0.90098   0.68653   0.18627   0.00000  Uiso   1.00
H1599  H     0.81575   0.90231   0.81491   0.00000  Uiso   1.00
H1600  H     0.84073   0.51987   0.46634   0.00000  Uiso   1.00
H1601  H     0.68425   0.59769   0.18509   0.00000  Uiso   1.00
H1602  H     0.90098   0.68653   0.81373   0.00000  Uiso   1.00
H1603  H     0.59902   0.81347   0.18627   0.00000  Uiso   1.00
H1604  H     0.93653   0.65098   0.68627   0.00000  Uiso   1.00
H1605  H     0.56347   0.84902   0.31373   0.00000  Uiso   1.00
H1606  H     0.84769   0.93425   0.68509   0.00000  Uiso   1.00
H1607  H     0.65231   0.56575   0.31491   0.00000  Uiso   1.00
H1608  H     0.56347   0.84902   0.68627   0.00000  Uiso   1.00
H1609  H     0.93653   0.65098   0.31373   0.00000  Uiso   1.00
H1610  H     0.65231   0.56575   0.68509   0.00000  Uiso   1.00
H1611  H     0.65927   0.98013   0.53366   0.00000  Uiso   1.00
H1612  H     0.84769   0.93425   0.31491   0.00000  Uiso   1.00
H1613  H     0.93425   0.84769   0.31491   0.00000  Uiso   1.00
H1614  H     0.56575   0.65231   0.68509   0.00000  Uiso   1.00
H1615  H     0.84902   0.56347   0.31373   0.00000  Uiso   1.00
H1616  H     0.65098   0.93653   0.68627   0.00000  Uiso   1.00
H1617  H     0.56575   0.65231   0.31491   0.00000  Uiso   1.00
H1618  H     0.93425   0.84769   0.68509   0.00000  Uiso   1.00
H1619  H     0.65098   0.93653   0.31373   0.00000  Uiso   1.00
H1620  H     0.84902   0.56347   0.68627   0.00000  Uiso   1.00
H1621  H     0.51337   0.89273   0.38465   0.00000  Uiso   1.00
H1622  H     0.51987   0.84073   0.46634   0.00000  Uiso   1.00
H1623  H     0.50030   0.87067   0.33973   0.00000  Uiso   1.00
H1624  H     0.96659   0.89434   0.36833   0.00000  Uiso   1.00
H1625  H     0.96110   0.82677   0.37641   0.00000  Uiso   1.00
H1626  H     0.97250   0.84925   0.42103   0.00000  Uiso   1.00
H1627  H     0.54011   0.83267   0.40855   0.00000  Uiso   1.00
H1628  H     0.52703   0.81194   0.36561   0.00000  Uiso   1.00
H1629  H     0.99970   0.62933   0.66027   0.00000  Uiso   1.00
H1630  H     0.98663   0.60727   0.61534   0.00000  Uiso   1.00
H1631  H     0.53341   0.60566   0.63167   0.00000  Uiso   1.00
H1632  H     0.52749   0.65074   0.57897   0.00000  Uiso   1.00
H1633  H     0.98013   0.65927   0.53366   0.00000  Uiso   1.00
H1634  H     0.53890   0.67323   0.62359   0.00000  Uiso   1.00
H1635  H     0.97297   0.68806   0.63439   0.00000  Uiso   1.00
H1636  H     0.95989   0.66733   0.59145   0.00000  Uiso   1.00
H1637  H     0.62933   0.99970   0.33973   0.00000  Uiso   1.00
H1638  H     0.60727   0.98663   0.38465   0.00000  Uiso   1.00
H1639  H     0.60566   0.53341   0.36833   0.00000  Uiso   1.00
H1640  H     0.65074   0.52750   0.42103   0.00000  Uiso   1.00
H1641  H     0.67323   0.53890   0.37641   0.00000  Uiso   1.00
H1642  H     0.68806   0.97297   0.36561   0.00000  Uiso   1.00
H1643  H     0.66733   0.95989   0.40855   0.00000  Uiso   1.00
H1644  H     0.65927   0.98013   0.46634   0.00000  Uiso   1.00
H1645  H     0.89273   0.51337   0.61534   0.00000  Uiso   1.00
H1646  H     0.87067   0.50030   0.66027   0.00000  Uiso   1.00
H1647  H     0.89434   0.96659   0.63167   0.00000  Uiso   1.00
H1648  H     0.82677   0.96110   0.62359   0.00000  Uiso   1.00
H1649  H     0.84925   0.97250   0.57897   0.00000  Uiso   1.00
H1650  H     0.83267   0.54011   0.59145   0.00000  Uiso   1.00
H1651  H     0.81194   0.52703   0.63439   0.00000  Uiso   1.00
H1652  H     0.98663   0.60727   0.38465   0.00000  Uiso   1.00
H1653  H     0.99970   0.62933   0.33973   0.00000  Uiso   1.00
H1654  H     0.53341   0.60566   0.36833   0.00000  Uiso   1.00
H1655  H     0.84073   0.51987   0.53366   0.00000  Uiso   1.00
H1656  H     0.53890   0.67323   0.37641   0.00000  Uiso   1.00
H1657  H     0.52749   0.65074   0.42103   0.00000  Uiso   1.00
H1658  H     0.95989   0.66733   0.40855   0.00000  Uiso   1.00
H1659  H     0.97297   0.68806   0.36561   0.00000  Uiso   1.00
H1660  H     0.50030   0.87067   0.66027   0.00000  Uiso   1.00
H1661  H     0.51337   0.89273   0.61534   0.00000  Uiso   1.00
H1662  H     0.96659   0.89434   0.63167   0.00000  Uiso   1.00
H1663  H     0.97250   0.84926   0.57897   0.00000  Uiso   1.00
H1664  H     0.96110   0.82677   0.62359   0.00000  Uiso   1.00
H1665  H     0.52703   0.81194   0.63439   0.00000  Uiso   1.00
H1666  H     0.73013   0.90927   0.96634   0.00000  Uiso   1.00
H1667  H     0.54011   0.83267   0.59145   0.00000  Uiso   1.00
H1668  H     0.87067   0.50030   0.33973   0.00000  Uiso   1.00
H1669  H     0.89273   0.51337   0.38465   0.00000  Uiso   1.00
H1670  H     0.89434   0.96659   0.36833   0.00000  Uiso   1.00
H1671  H     0.84926   0.97250   0.42103   0.00000  Uiso   1.00
H1672  H     0.82677   0.96110   0.37641   0.00000  Uiso   1.00
H1673  H     0.81194   0.52703   0.36561   0.00000  Uiso   1.00
H1674  H     0.83267   0.54011   0.40855   0.00000  Uiso   1.00
H1675  H     0.60727   0.98663   0.61534   0.00000  Uiso   1.00
H1676  H     0.62933   0.99970   0.66027   0.00000  Uiso   1.00
O1677  O     0.75000   0.50000   0.25000   0.00000  Uiso   1.00
O1678  O     0.75000   0.96963   0.66245   0.00000  Uiso   1.00
O1679  O     0.96963   0.75000   0.33755   0.00000  Uiso   1.00
O1680  O     0.53036   0.75000   0.66245   0.00000  Uiso   1.00
O1681  O     0.50000   0.71963   0.83755   0.00000  Uiso   1.00
O1682  O     0.50000   0.78036   0.16245   0.00000  Uiso   1.00
O1683  O     0.78036   0.50000   0.83755   0.00000  Uiso   1.00
O1684  O     0.71963   0.50000   0.16245   0.00000  Uiso   1.00
O1685  O     0.50000   0.78036   0.83755   0.00000  Uiso   1.00
O1686  O     0.50000   0.71964   0.16245   0.00000  Uiso   1.00
O1687  O     0.71963   0.50000   0.83755   0.00000  Uiso   1.00
O1688  O     0.75000   0.50000   0.75000   0.00000  Uiso   1.00
O1689  O     0.78036   0.50000   0.16245   0.00000  Uiso   1.00
O1690  O     0.70724   0.57308   0.27302   0.00000  Uiso   1.00
O1691  O     0.79275   0.92692   0.72698   0.00000  Uiso   1.00
O1692  O     0.92692   0.70725   0.27302   0.00000  Uiso   1.00
O1693  O     0.57307   0.79275   0.72698   0.00000  Uiso   1.00
O1694  O     0.79275   0.92692   0.27302   0.00000  Uiso   1.00
O1695  O     0.70724   0.57308   0.72698   0.00000  Uiso   1.00
O1696  O     0.57307   0.79275   0.27302   0.00000  Uiso   1.00
O1697  O     0.92692   0.70725   0.72698   0.00000  Uiso   1.00
O1698  O     0.70724   0.92692   0.72698   0.00000  Uiso   1.00
O1699  O     0.50000   0.75000   0.25000   0.00000  Uiso   1.00
O1700  O     0.79275   0.57308   0.27302   0.00000  Uiso   1.00
O1701  O     0.92692   0.79275   0.72698   0.00000  Uiso   1.00
O1702  O     0.57307   0.70724   0.27302   0.00000  Uiso   1.00
O1703  O     0.79275   0.57308   0.72698   0.00000  Uiso   1.00
O1704  O     0.70724   0.92692   0.27302   0.00000  Uiso   1.00
O1705  O     0.57307   0.70724   0.72698   0.00000  Uiso   1.00
O1706  O     0.92692   0.79275   0.27302   0.00000  Uiso   1.00
O1707  O     0.95724   0.82307   0.77302   0.00000  Uiso   1.00
O1708  O     0.54275   0.67692   0.22698   0.00000  Uiso   1.00
O1709  O     0.67692   0.95724   0.77302   0.00000  Uiso   1.00
O1710  O     0.50000   0.75000   0.75000   0.00000  Uiso   1.00
O1711  O     0.82307   0.54276   0.22698   0.00000  Uiso   1.00
O1712  O     0.54275   0.67692   0.77302   0.00000  Uiso   1.00
O1713  O     0.95724   0.82307   0.22698   0.00000  Uiso   1.00
O1714  O     0.82307   0.54276   0.77302   0.00000  Uiso   1.00
O1715  O     0.67692   0.95724   0.22698   0.00000  Uiso   1.00
O1716  O     0.95724   0.67693   0.22698   0.00000  Uiso   1.00
O1717  O     0.54275   0.82307   0.77302   0.00000  Uiso   1.00
O1718  O     0.67692   0.54276   0.22698   0.00000  Uiso   1.00
O1719  O     0.82307   0.95724   0.77302   0.00000  Uiso   1.00
O1720  O     0.54275   0.82307   0.22698   0.00000  Uiso   1.00
O1721  O     0.75000   0.96963   0.33755   0.00000  Uiso   1.00
O1722  O     0.95724   0.67693   0.77302   0.00000  Uiso   1.00
O1723  O     0.82307   0.95724   0.22698   0.00000  Uiso   1.00
O1724  O     0.67692   0.54276   0.77302   0.00000  Uiso   1.00
O1725  O     0.66344   0.88778   0.18127   0.00000  Uiso   1.00
O1726  O     0.83656   0.61222   0.81873   0.00000  Uiso   1.00
O1727  O     0.60920   0.66031   0.18024   0.00000  Uiso   1.00
O1728  O     0.89079   0.83969   0.81976   0.00000  Uiso   1.00
O1729  O     0.83656   0.61222   0.18127   0.00000  Uiso   1.00
O1730  O     0.66344   0.88778   0.81873   0.00000  Uiso   1.00
O1731  O     0.89079   0.83969   0.18024   0.00000  Uiso   1.00
O1732  O     0.75000   0.53037   0.66245   0.00000  Uiso   1.00
O1733  O     0.60920   0.66031   0.81976   0.00000  Uiso   1.00
O1734  O     0.66031   0.60920   0.81976   0.00000  Uiso   1.00
O1735  O     0.83969   0.89079   0.18024   0.00000  Uiso   1.00
O1736  O     0.61222   0.83656   0.81873   0.00000  Uiso   1.00
O1737  O     0.88778   0.66344   0.18127   0.00000  Uiso   1.00
O1738  O     0.83969   0.89079   0.81976   0.00000  Uiso   1.00
O1739  O     0.66031   0.60920   0.18024   0.00000  Uiso   1.00
O1740  O     0.88778   0.66344   0.81873   0.00000  Uiso   1.00
O1741  O     0.61222   0.83656   0.18127   0.00000  Uiso   1.00
O1742  O     0.91344   0.63778   0.68127   0.00000  Uiso   1.00
O1743  O     0.53036   0.75000   0.33755   0.00000  Uiso   1.00
O1744  O     0.58656   0.86222   0.31873   0.00000  Uiso   1.00
O1745  O     0.85920   0.91031   0.68024   0.00000  Uiso   1.00
O1746  O     0.64079   0.58969   0.31976   0.00000  Uiso   1.00
O1747  O     0.58656   0.86222   0.68127   0.00000  Uiso   1.00
O1748  O     0.91344   0.63778   0.31873   0.00000  Uiso   1.00
O1749  O     0.64079   0.58969   0.68024   0.00000  Uiso   1.00
O1750  O     0.85920   0.91031   0.31976   0.00000  Uiso   1.00
O1751  O     0.91031   0.85920   0.31976   0.00000  Uiso   1.00
O1752  O     0.58969   0.64079   0.68024   0.00000  Uiso   1.00
O1753  O     0.86222   0.58656   0.31873   0.00000  Uiso   1.00
O1754  O     0.96963   0.75000   0.66245   0.00000  Uiso   1.00
O1755  O     0.63778   0.91344   0.68127   0.00000  Uiso   1.00
O1756  O     0.58969   0.64079   0.31976   0.00000  Uiso   1.00
O1757  O     0.91031   0.85920   0.68024   0.00000  Uiso   1.00
O1758  O     0.63778   0.91344   0.31873   0.00000  Uiso   1.00
O1759  O     0.86222   0.58656   0.68127   0.00000  Uiso   1.00
O1760  O     0.75000   0.53037   0.33755   0.00000  Uiso   1.00
Zn1761 Zn    0.70659   0.50000   0.21735   0.00000  Uiso   1.00
Zn1762 Zn    0.54340   0.75000   0.28265   0.00000  Uiso   1.00
Zn1763 Zn    0.75000   0.95659   0.71735   0.00000  Uiso   1.00
Zn1764 Zn    0.75000   0.54341   0.28265   0.00000  Uiso   1.00
Zn1765 Zn    0.54340   0.75000   0.71735   0.00000  Uiso   1.00
Zn1766 Zn    0.95659   0.75000   0.28265   0.00000  Uiso   1.00
Zn1767 Zn    0.75000   0.54341   0.71735   0.00000  Uiso   1.00
Zn1768 Zn    0.75000   0.95659   0.28265   0.00000  Uiso   1.00
Zn1769 Zn    0.79340   0.50000   0.78265   0.00000  Uiso   1.00
Zn1770 Zn    0.50000   0.70659   0.21735   0.00000  Uiso   1.00
Zn1771 Zn    0.50000   0.79340   0.78265   0.00000  Uiso   1.00
Zn1772 Zn    0.79340   0.50000   0.21735   0.00000  Uiso   1.00
Zn1773 Zn    0.70659   0.50000   0.78265   0.00000  Uiso   1.00
Zn1774 Zn    0.50000   0.79341   0.21735   0.00000  Uiso   1.00
Zn1775 Zn    0.50000   0.70659   0.78265   0.00000  Uiso   1.00
Zn1776 Zn    0.95659   0.75000   0.71735   0.00000  Uiso   1.00
loop_
_geom_bond_atom_site_label_1
_geom_bond_atom_site_label_2
_geom_bond_distance
_geom_bond_site_symmetry_2
_ccdc_geom_bond_type
C1     C79     1.415   .     A
C1     C43     1.532   .     S
C1     C4      1.416   .     A
C2     C14     1.416   .     A
C2     C73     1.532   .     S
C2     C988    1.415   .     S
C3     C163    1.416   .     A
C3     C106    1.405   .     A
C3     C926    1.418   .     A
C4     C107    1.405   .     A
C4     C34     1.418   .     S
C5     C480    1.418   .     A
C5     C97     1.416   .     A
C5     C109    1.405   .     A
C6     C110    1.405   .     A
C6     C108    1.416   .     A
C6     C925    1.418   .     S
C7     C119    1.416   .     A
C7     C111    1.405   .     A
C7     C38     1.418   .     S
C8     C35     1.416   .     A
C8     C112    1.405   .     A
C8     C927    1.418   .     A
C9     C46     1.416   .     A
C9     C113    1.405   .     A
C9     C40     1.418   .     A
C10    C41     1.418   .     A
C10    C114    1.405   .     A
C10    C57     1.416   .     A
C11    C115    1.405   .     A
C11    C68     1.416   .     A
C11    C486    1.418   .     S
C12    C174    1.416   .     A
C12    C116    1.405   .     A
C12    C39     1.418   .     S
C13    C76     1.532   .     S
C13    C15     1.416   .     A
C13    C545    1.415   .     S
C14    C117    1.405   .     A
C14    C928    1.418   .     S
C15    C118    1.405   .     A
C15    C485    1.418   .     S
C16    C120    1.405   .     A
C16    C24     1.416   .     A
C16    C42     1.418   .     A
C17    C164    1.416   .     A
C17    C166    1.416   .     A
C17    C136    1.451   .     S
C18    C137    1.451   .     S
C18    C165    1.416   .     A
C18    C162    1.416   .     A
C19    C129    1.454   .     S
C19    C161    1.416   .     A
C19    C168    1.416   .     A
C20    C160    1.416   .     A
C20    C167    1.416   .     A
C20    C131    1.454   .     S
C21    C170    1.416   .     A
C21    C159    1.416   .     A
C21    C132    1.451   .     S
C22    C133    1.451   .     S
C22    C158    1.416   .     A
C22    C169    1.416   .     A
C23    C134    1.454   .     S
C23    C157    1.416   .     A
C23    C172    1.416   .     A
C24    C80     1.532   .     S
C24    C102    1.415   .     S
C25    C171    1.416   .     A
C25    C156    1.416   .     A
C25    C135    1.454   .     S
C26    C155    1.416   .     A
C26    C145    1.454   .     S
C26    C175    1.416   .     A
C27    C154    1.416   .     A
C27    C146    1.454   .     S
C27    C173    1.416   .     A
C28    C153    1.416   .     A
C28    C177    1.416   .     A
C28    C138    1.451   .     S
C29    C151    1.416   .     A
C29    C176    1.416   .     A
C29    C139    1.451   .     S
C30    C150    1.416   .     A
C30    C179    1.416   .     A
C30    C140    1.454   .     S
C31    C178    1.416   .     A
C31    C149    1.416   .     A
C31    C142    1.454   .     S
C32    C181    1.416   .     A
C32    C148    1.416   .     A
C32    C143    1.451   .     S
C33    C147    1.416   .     A
C33    C180    1.416   .     A
C33    C144    1.451   .     S
C34    C36     1.426   .     A
C34    C626    1.418   1_455 A
C35    C83     1.532   .     S
C35    C987    1.415   .     S
C36    C449    1.418   1_455 A
C36    C183    1.418   .     S
C37    C184    1.418   .     A
C37    C894    1.418   1_545 S
C37    C38     1.426   .     S
C38    C891    1.418   1_545 A
C39    C896    1.418   1_545 A
C39    C40     1.426   1_556 S
C40    C902    1.418   1_545 S
C40    C39     1.426   1_554 S
C41    C459    1.418   1_455 S
C41    C42     1.426   1_556 S
C42    C455    1.418   1_455 S
C42    C41     1.426   1_554 S
C43    H295    1.110   .     S
C43    H296    1.107   .     S
C43    C488    1.534   1_455 S
C44    C45     1.526   .     S
C44    H294    1.110   .     S
C44    H293    1.111   .     S
C44    C487    1.534   .     S
C45    H292    1.110   .     S
C45    H733    1.111   .     S
C45    H735    1.111   .     S
C46    C100    1.415   .     A
C46    C86     1.532   .     S
C47    C97     1.532   .     S
C47    H304    1.110   .     S
C47    H303    1.107   .     S
C47    C492    1.534   .     S
C48    H300    1.110   .     S
C48    C49     1.526   .     S
C48    H302    1.111   .     S
C48    C491    1.534   1_455 S
C49    H299    1.110   .     S
C49    H741    1.111   1_455 S
C49    H742    1.111   1_455 S
C50    H311    1.110   .     S
C50    C108    1.532   .     S
C50    H310    1.107   .     S
C50    C939    1.534   .     S
C51    C52     1.526   .     S
C51    H308    1.110   .     S
C51    H309    1.111   .     S
C51    C938    1.534   1_545 S
C52    H307    1.110   .     S
C52    H1193   1.111   1_545 S
C52    H1194   1.111   1_545 S
C53    H318    1.110   .     S
C53    H319    1.107   .     S
C53    C119    1.532   .     S
C53    C942    1.534   1_545 S
C54    H316    1.111   .     S
C54    C55     1.526   .     S
C54    H317    1.110   .     S
C54    C941    1.534   .     S
C55    H315    1.110   .     S
C55    H1201   1.111   .     S
C55    H1202   1.111   .     S
C56    H327    1.107   .     S
C56    C130    1.532   .     S
C56    H326    1.110   .     S
C56    C502    1.534   .     S
C57    C101    1.415   .     A
C57    C89     1.532   .     S
C58    H324    1.111   .     S
C58    H325    1.110   .     S
C58    C59     1.526   .     S
C58    C500    1.534   1_455 S
C59    H322    1.110   .     S
C59    H764    1.111   1_455 S
C59    H765    1.111   1_455 S
C60    C141    1.532   .     S
C60    H333    1.107   .     S
C60    H335    1.110   .     S
C60    C505    1.534   1_455 S
C61    H331    1.110   .     S
C61    C62     1.526   .     S
C61    H332    1.111   .     S
C61    C504    1.534   .     S
C62    H330    1.110   .     S
C62    H772    1.111   .     S
C62    H773    1.111   .     S
C63    H342    1.110   .     S
C63    C152    1.532   .     S
C63    H341    1.107   .     S
C63    C952    1.534   1_545 S
C64    H339    1.110   .     S
C64    H340    1.111   .     S
C64    C65     1.526   .     S
C64    C951    1.534   .     S
C65    H338    1.110   .     S
C65    H1224   1.111   .     S
C65    H1225   1.111   .     S
C66    H190    1.110   .     S
C66    H191    1.107   .     S
C66    C163    1.532   .     S
C66    C955    1.534   .     S
C67    H189    1.110   .     S
C67    H188    1.111   .     S
C67    C69     1.526   .     S
C67    C954    1.534   1_545 S
C68    C546    1.415   .     A
C68    C93     1.532   .     S
C69    H187    1.110   .     S
C69    H1231   1.111   1_545 S
C69    H1232   1.111   1_545 S
C70    H198    1.110   .     S
C70    C174    1.532   .     S
C70    H199    1.107   .     S
C70    C71     1.534   .     S
C71    H195    1.111   .     S
C71    C72     1.526   .     S
C71    H196    1.110   .     S
C72    H194    1.110   .     S
C72    H192    1.111   .     S
C72    H193    1.111   .     S
C73    H206    1.110   .     S
C73    C74     1.534   .     S
C73    H205    1.107   .     S
C74    H203    1.110   .     S
C74    H204    1.111   .     S
C74    C75     1.526   .     S
C75    H200    1.111   .     S
C75    H202    1.110   .     S
C75    H201    1.111   .     S
C76    H213    1.107   .     S
C76    H214    1.110   .     S
C76    C77     1.534   .     S
C77    C78     1.526   .     S
C77    H212    1.111   .     S
C77    H211    1.110   .     S
C78    H207    1.111   .     S
C78    H210    1.110   .     S
C78    H209    1.111   .     S
C79    C123    1.457   .     S
C79    C574    1.415   1_455 S
C80    H221    1.110   .     S
C80    H222    1.107   .     S
C80    C81     1.534   .     S
C81    H220    1.110   .     S
C81    C82     1.526   .     S
C81    H218    1.111   .     S
C82    H215    1.111   .     S
C82    H217    1.110   .     S
C82    H216    1.111   .     S
C83    H228    1.110   .     S
C83    C84     1.534   .     S
C83    H229    1.107   .     S
C84    C85     1.526   .     S
C84    H226    1.111   .     S
C84    H227    1.110   .     S
C85    H224    1.111   .     S
C85    H225    1.110   .     S
C85    H223    1.111   .     S
C86    H236    1.107   .     S
C86    C87     1.534   .     S
C86    H237    1.110   .     S
C87    H235    1.111   .     S
C87    C88     1.526   .     S
C87    H234    1.110   .     S
C88    H232    1.111   .     S
C88    H233    1.110   .     S
C88    H231    1.111   .     S
C89    H245    1.110   .     S
C89    C91     1.534   .     S
C89    H244    1.107   .     S
C90    C541    1.415   1_455 A
C90    C124    1.457   .     S
C90    C141    1.415   .     S
C91    C92     1.526   .     S
C91    H242    1.110   .     S
C91    H243    1.111   .     S
C92    H239    1.111   .     S
C92    H238    1.111   .     S
C92    H240    1.110   .     S
C93    H253    1.107   .     S
C93    C94     1.534   .     S
C93    H251    1.110   .     S
C94    H250    1.110   .     S
C94    C95     1.526   .     S
C94    H249    1.111   .     S
C95    H246    1.111   .     S
C95    H247    1.111   .     S
C95    H248    1.110   .     S
C96    C121    1.457   .     S
C96    C152    1.415   .     A
C96    C996    1.415   1_545 S
C97    C534    1.415   .     A
C98    C122    1.457   .     S
C98    C1051   1.415   1_545 A
C98    C119    1.415   .     S
C99    C174    1.415   .     A
C99    C127    1.457   .     S
C99    C923    1.415   1_545 S
C100   C890    1.415   1_545 S
C100   C128    1.457   .     S
C101   C457    1.415   1_455 S
C101   C125    1.457   .     S
C102   C512    1.415   1_455 A
C102   C126    1.457   .     S
C103   H185    1.079   .     S
C103   C109    1.380   .     A
C103   C182    1.405   .     A
C104   C183    1.405   .     A
C104   C107    1.380   .     A
C104   H257    1.079   .     S
C105   H268    1.079   .     S
C105   C184    1.405   .     A
C105   C111    1.380   .     A
C106   H279    1.079   .     S
C106   C110    1.380   .     A
C107   H290    1.079   .     S
C108   C984    1.415   .     S
C109   H301    1.079   .     S
C110   H312    1.079   .     S
C111   H323    1.079   .     S
C112   H334    1.079   .     S
C112   C117    1.380   1_556 S
C113   H186    1.079   .     S
C113   C116    1.380   1_554 S
C114   H197    1.079   .     S
C114   C120    1.380   1_556 S
C115   H208    1.079   .     S
C115   C118    1.380   1_554 S
C116   H219    1.079   .     S
C116   C113    1.380   1_556 S
C117   H230    1.079   .     S
C117   C112    1.380   1_554 S
C118   H241    1.079   .     S
C118   C115    1.380   1_556 S
C120   H252    1.079   .     S
C120   C114    1.380   1_554 S
C121   O428    1.276   .     A
C121   O1277   1.276   1_545 S
C122   O1234   1.276   1_545 A
C122   O400    1.276   .     S
C123   O411    1.276   .     A
C123   O791    1.276   1_455 S
C124   O866    1.276   1_455 A
C124   O348    1.276   .     S
C125   O349    1.276   .     S
C125   O353    1.276   .     S
C126   O350    1.276   .     A
C126   O354    1.276   .     S
C127   O351    1.276   .     A
C127   O355    1.276   .     A
C128   O352    1.276   .     S
C128   O357    1.276   .     S
C129   O386    1.279   .     A
C129   O358    1.279   .     A
C130   C182    1.416   .     A
C130   C523    1.415   .     S
C131   O387    1.279   .     A
C131   O359    1.279   .     A
C132   O360    1.279   .     A
C132   O384    1.279   .     A
C133   O385    1.279   .     A
C133   O361    1.279   .     A
C134   O391    1.279   .     A
C134   O362    1.279   .     A
C135   O392    1.279   .     A
C135   O363    1.279   .     A
C136   O388    1.279   .     A
C136   O364    1.279   .     A
C137   O390    1.279   .     A
C137   O365    1.279   .     A
C138   O366    1.279   .     A
C138   O377    1.279   .     A
C139   O379    1.279   .     A
C139   O368    1.279   .     A
C140   O375    1.279   .     A
C140   O369    1.279   .     A
C141   C183    1.416   .     A
C142   O370    1.279   .     A
C142   O376    1.279   .     A
C143   O371    1.279   .     A
C143   O382    1.279   .     A
C144   O383    1.279   .     A
C144   O372    1.279   .     A
C145   O380    1.279   .     A
C145   O373    1.279   .     A
C146   O374    1.279   .     A
C146   O381    1.279   .     A
C147   C164    1.391   .     A
C147   O393    1.385   .     S
C148   C162    1.391   .     A
C148   O394    1.385   .     S
C149   O395    1.383   .     S
C149   C161    1.391   .     A
C150   C160    1.391   .     A
C150   O396    1.383   .     S
C151   C159    1.391   .     A
C151   O397    1.385   .     S
C152   C184    1.416   .     A
C153   C158    1.391   .     A
C153   O398    1.385   .     S
C154   C157    1.391   .     A
C154   O399    1.383   .     S
C155   C156    1.391   .     A
C155   O401    1.383   .     S
C156   O402    1.383   .     S
C157   O403    1.383   .     S
C158   O404    1.385   .     S
C159   O405    1.385   .     S
C160   O406    1.383   .     S
C161   O407    1.383   .     S
C162   O408    1.385   .     S
C163   C986    1.415   .     A
C164   O409    1.385   .     S
C165   O410    1.385   .     S
C165   C181    1.391   .     A
C166   C180    1.391   .     A
C166   O412    1.385   .     S
C167   C179    1.391   .     A
C167   O413    1.383   .     S
C168   O414    1.383   .     S
C168   C178    1.391   .     A
C169   C177    1.391   .     A
C169   O415    1.385   .     S
C170   C176    1.391   .     A
C170   O416    1.385   .     S
C171   C175    1.391   .     A
C171   O417    1.383   .     S
C172   O418    1.383   .     S
C172   C173    1.391   .     A
C173   O419    1.383   .     S
C175   O420    1.383   .     S
C176   O421    1.385   .     S
C177   O423    1.385   .     S
C178   O424    1.383   .     S
C179   O425    1.383   .     S
C180   O426    1.385   .     S
C181   O427    1.385   .     S
C182   C478    1.418   .     A
H254   O393    0.988   .     S
H255   O394    0.988   .     S
H256   O395    0.988   .     S
H258   O396    0.988   .     S
H259   O397    0.988   .     S
H260   O398    0.988   .     S
H261   O399    0.988   .     S
H262   O401    0.988   .     S
H263   O402    0.988   .     S
H264   O403    0.988   .     S
H265   O404    0.988   .     S
H266   O405    0.988   .     S
H267   O406    0.988   .     S
H269   O407    0.988   .     S
H270   O408    0.988   .     S
H271   O409    0.988   .     S
H272   O410    0.988   .     S
H273   O412    0.988   .     S
H274   O413    0.988   .     S
H275   O414    0.988   .     S
H276   O415    0.988   .     S
H277   O416    0.988   .     S
H278   O417    0.988   .     S
H280   O418    0.988   .     S
H281   O419    0.988   .     S
H282   O420    0.988   .     S
H283   O421    0.988   .     S
H284   O423    0.988   .     S
H285   O424    0.988   .     S
H286   O425    0.988   .     S
H287   O426    0.988   .     S
H288   O427    0.988   .     S
H289   C489    1.111   1_455 S
H291   C489    1.111   1_455 S
H297   C493    1.111   .     S
H298   C493    1.111   .     S
H305   C940    1.111   .     S
H306   C940    1.111   .     S
H313   C943    1.111   1_545 S
H314   C943    1.111   1_545 S
H320   C503    1.111   .     S
H321   C503    1.111   .     S
H328   C506    1.111   1_455 S
H329   C506    1.111   1_455 S
H336   C953    1.111   1_545 S
H337   C953    1.111   1_545 S
H343   C957    1.111   .     S
H344   C957    1.111   .     S
O345   Zn440   1.948   .     S
O345   Zn432   1.948   .     S
O345   Zn429   1.948   .     S
O345   Zn1324  1.948   1_545 S
O346   C1010   1.276   .     A
O346   Zn431   1.955   .     S
O347   Zn434   1.955   .     S
O347   C567    1.276   .     S
O348   Zn433   1.955   .     S
O349   Zn443   1.955   .     S
O350   Zn442   1.955   .     S
O351   Zn437   1.955   .     S
O352   Zn429   1.955   .     S
O353   Zn439   1.955   .     S
O354   Zn438   1.955   .     S
O355   Zn441   1.955   .     S
O356   Zn435   1.948   .     S
O356   Zn437   1.948   .     S
O356   Zn441   1.948   .     S
O356   Zn1319  1.948   1_545 S
O357   Zn440   1.955   .     S
O358   Zn432   1.936   .     S
O359   Zn431   1.936   .     S
O360   Zn434   1.932   .     S
O361   Zn433   1.932   .     S
O362   Zn436   1.936   .     S
O363   Zn435   1.936   .     S
O364   Zn430   1.932   .     S
O365   Zn444   1.932   .     S
O366   Zn431   1.932   .     S
O367   Zn878   1.948   1_455 S
O367   Zn442   1.948   .     S
O367   Zn430   1.948   .     S
O367   Zn438   1.948   .     S
O368   Zn432   1.932   .     S
O369   Zn444   1.936   .     S
O370   Zn430   1.936   .     S
O371   Zn435   1.932   .     S
O372   Zn436   1.932   .     S
O373   Zn433   1.936   .     S
O374   Zn434   1.936   .     S
O375   Zn883   1.936   .     S
O376   Zn438   1.936   .     S
O377   Zn1329  1.932   .     S
O378   Zn433   1.948   .     S
O378   Zn443   1.948   .     S
O378   Zn439   1.948   .     S
O378   Zn888   1.948   1_455 S
O379   Zn440   1.932   .     S
O380   Zn443   1.936   .     S
O381   Zn886   1.936   .     S
O382   Zn437   1.932   .     S
O383   Zn1317  1.932   .     S
O384   Zn882   1.932   .     S
O385   Zn439   1.932   .     S
O386   Zn429   1.936   .     S
O387   Zn1325  1.936   .     S
O388   Zn442   1.932   .     S
O389   Zn436   1.955   .     S
O389   C1009   1.276   .     S
O390   Zn887   1.932   .     S
O391   Zn1328  1.936   .     S
O392   Zn441   1.936   .     S
O400   Zn435   1.955   .     S
O411   Zn430   1.955   .     S
O422   C568    1.276   .     A
O422   Zn444   1.955   .     S
O428   Zn432   1.955   .     S
Zn429  O1271   1.932   1_545 S
Zn431  O1244   1.948   .     S
Zn434  O811    1.948   .     S
Zn436  O1233   1.948   .     S
Zn437  O1275   1.936   1_545 S
Zn438  O828    1.932   1_455 S
Zn439  O819    1.936   1_455 S
Zn440  O1279   1.936   1_545 S
Zn441  O1265   1.932   1_545 S
Zn442  O825    1.936   1_455 S
Zn443  O834    1.932   1_455 S
Zn444  O822    1.948   .     S
C445   C523    1.415   .     A
C445   C487    1.532   .     S
C445   C448    1.416   .     A
C446   C458    1.416   .     A
C446   C517    1.532   .     S
C446   C1432   1.415   .     S
C447   C607    1.416   .     A
C447   C550    1.405   .     A
C447   C1370   1.418   .     A
C448   C551    1.405   .     A
C448   C478    1.418   .     S
C449   C36     1.418   1_655 A
C449   C541    1.416   .     A
C449   C553    1.405   .     A
C450   C554    1.405   .     A
C450   C552    1.416   .     A
C450   C1369   1.418   .     S
C451   C563    1.416   .     A
C451   C555    1.405   .     A
C451   C482    1.418   .     S
C452   C479    1.416   .     A
C452   C556    1.405   .     A
C452   C1371   1.418   .     A
C453   C490    1.416   .     A
C453   C557    1.405   .     A
C453   C484    1.418   .     A
C454   C485    1.418   .     A
C454   C558    1.405   .     A
C454   C501    1.416   .     A
C455   C559    1.405   .     A
C455   C512    1.416   .     A
C455   C42     1.418   1_655 S
C456   C618    1.416   .     A
C456   C560    1.405   .     A
C456   C483    1.418   .     S
C457   C520    1.532   .     S
C457   C459    1.416   .     A
C457   C101    1.415   1_655 S
C458   C561    1.405   .     A
C458   C1372   1.418   .     S
C459   C562    1.405   .     A
C459   C41     1.418   1_655 S
C460   C564    1.405   .     A
C460   C468    1.416   .     A
C460   C486    1.418   .     A
C461   C608    1.416   .     A
C461   C610    1.416   .     A
C461   C580    1.451   .     S
C462   C581    1.451   .     S
C462   C609    1.416   .     A
C462   C606    1.416   .     A
C463   C573    1.454   .     S
C463   C605    1.416   .     A
C463   C612    1.416   .     A
C464   C604    1.416   .     A
C464   C611    1.416   .     A
C464   C575    1.454   .     S
C465   C614    1.416   .     A
C465   C603    1.416   .     A
C465   C576    1.451   .     S
C466   C577    1.451   .     S
C466   C602    1.416   .     A
C466   C613    1.416   .     A
C467   C578    1.454   .     S
C467   C601    1.416   .     A
C467   C616    1.416   .     A
C468   C524    1.532   .     S
C468   C546    1.415   .     S
C469   C615    1.416   .     A
C469   C600    1.416   .     A
C469   C579    1.454   .     S
C470   C599    1.416   .     A
C470   C589    1.454   .     S
C470   C619    1.416   .     A
C471   C598    1.416   .     A
C471   C590    1.454   .     S
C471   C617    1.416   .     A
C472   C597    1.416   .     A
C472   C621    1.416   .     A
C472   C582    1.451   .     S
C473   C595    1.416   .     A
C473   C620    1.416   .     A
C473   C583    1.451   .     S
C474   C594    1.416   .     A
C474   C623    1.416   .     A
C474   C584    1.454   .     S
C475   C622    1.416   .     A
C475   C593    1.416   .     A
C475   C586    1.454   .     S
C476   C625    1.416   .     A
C476   C592    1.416   .     A
C476   C587    1.451   .     S
C477   C591    1.416   .     A
C477   C624    1.416   .     A
C477   C588    1.451   .     S
C478   C480    1.426   .     A
C479   C527    1.532   .     S
C479   C1431   1.415   .     S
C480   C627    1.418   .     S
C481   C628    1.418   .     A
C481   C1338   1.418   1_545 S
C481   C482    1.426   .     S
C482   C1335   1.418   1_545 A
C483   C1340   1.418   1_545 A
C483   C484    1.426   1_556 S
C484   C1346   1.418   1_545 S
C484   C483    1.426   1_554 S
C485   C486    1.426   1_556 S
C486   C485    1.426   1_554 S
C487   H739    1.110   .     S
C487   H740    1.107   .     S
C488   C489    1.526   .     S
C488   H738    1.110   .     S
C488   H737    1.111   .     S
C488   C43     1.534   1_655 S
C489   H736    1.110   .     S
C489   H289    1.111   1_655 S
C489   H291    1.111   1_655 S
C490   C544    1.415   .     A
C490   C530    1.532   .     S
C491   C541    1.532   .     S
C491   H748    1.110   .     S
C491   H747    1.107   .     S
C491   C48     1.534   1_655 S
C492   H744    1.110   .     S
C492   C493    1.526   .     S
C492   H746    1.111   .     S
C493   H743    1.110   .     S
C494   H755    1.110   .     S
C494   C552    1.532   .     S
C494   H754    1.107   .     S
C494   C1383   1.534   .     S
C495   C496    1.526   .     S
C495   H752    1.110   .     S
C495   H753    1.111   .     S
C495   C1382   1.534   1_545 S
C496   H751    1.110   .     S
C496   H1637   1.111   1_545 S
C496   H1638   1.111   1_545 S
C497   H762    1.110   .     S
C497   H763    1.107   .     S
C497   C563    1.532   .     S
C497   C1386   1.534   1_545 S
C498   H760    1.111   .     S
C498   C499    1.526   .     S
C498   H761    1.110   .     S
C498   C1385   1.534   .     S
C499   H759    1.110   .     S
C499   H1645   1.111   .     S
C499   H1646   1.111   .     S
C500   H771    1.107   .     S
C500   C574    1.532   .     S
C500   H770    1.110   .     S
C500   C58     1.534   1_655 S
C501   C545    1.415   .     A
C501   C533    1.532   .     S
C502   H768    1.111   .     S
C502   H769    1.110   .     S
C502   C503    1.526   .     S
C503   H766    1.110   .     S
C504   C585    1.532   .     S
C504   H777    1.107   .     S
C504   H779    1.110   .     S
C505   H775    1.110   .     S
C505   C506    1.526   .     S
C505   H776    1.111   .     S
C505   C60     1.534   1_655 S
C506   H774    1.110   .     S
C506   H328    1.111   1_655 S
C506   H329    1.111   1_655 S
C507   H786    1.110   .     S
C507   C596    1.532   .     S
C507   H785    1.107   .     S
C507   C1396   1.534   1_545 S
C508   H783    1.110   .     S
C508   H784    1.111   .     S
C508   C509    1.526   .     S
C508   C1395   1.534   .     S
C509   H782    1.110   .     S
C509   H1668   1.111   .     S
C509   H1669   1.111   .     S
C510   H634    1.110   .     S
C510   H635    1.107   .     S
C510   C607    1.532   .     S
C510   C1399   1.534   .     S
C511   H633    1.110   .     S
C511   H632    1.111   .     S
C511   C513    1.526   .     S
C511   C1398   1.534   1_545 S
C512   C102    1.415   1_655 A
C512   C537    1.532   .     S
C513   H631    1.110   .     S
C513   H1675   1.111   1_545 S
C513   H1676   1.111   1_545 S
C514   H642    1.110   .     S
C514   C618    1.532   .     S
C514   H643    1.107   .     S
C514   C515    1.534   .     S
C515   H639    1.111   .     S
C515   C516    1.526   .     S
C515   H640    1.110   .     S
C516   H638    1.110   .     S
C516   H636    1.111   .     S
C516   H637    1.111   .     S
C517   H650    1.110   .     S
C517   C518    1.534   .     S
C517   H649    1.107   .     S
C518   H647    1.110   .     S
C518   H648    1.111   .     S
C518   C519    1.526   .     S
C519   H644    1.111   .     S
C519   H646    1.110   .     S
C519   H645    1.111   .     S
C520   H657    1.107   .     S
C520   H658    1.110   .     S
C520   C521    1.534   .     S
C521   C522    1.526   .     S
C521   H656    1.111   .     S
C521   H655    1.110   .     S
C522   H651    1.111   .     S
C522   H654    1.110   .     S
C522   H653    1.111   .     S
C523   C567    1.457   .     S
C524   H665    1.110   .     S
C524   H666    1.107   .     S
C524   C525    1.534   .     S
C525   H664    1.110   .     S
C525   C526    1.526   .     S
C525   H662    1.111   .     S
C526   H659    1.111   .     S
C526   H661    1.110   .     S
C526   H660    1.111   .     S
C527   H672    1.110   .     S
C527   C528    1.534   .     S
C527   H673    1.107   .     S
C528   C529    1.526   .     S
C528   H670    1.111   .     S
C528   H671    1.110   .     S
C529   H668    1.111   .     S
C529   H669    1.110   .     S
C529   H667    1.111   .     S
C530   H680    1.107   .     S
C530   C531    1.534   .     S
C530   H681    1.110   .     S
C531   H679    1.111   .     S
C531   C532    1.526   .     S
C531   H678    1.110   .     S
C532   H676    1.111   .     S
C532   H677    1.110   .     S
C532   H675    1.111   .     S
C533   H689    1.110   .     S
C533   C535    1.534   .     S
C533   H688    1.107   .     S
C534   C568    1.457   .     S
C534   C585    1.415   .     S
C535   C536    1.526   .     S
C535   H686    1.110   .     S
C535   H687    1.111   .     S
C536   H683    1.111   .     S
C536   H682    1.111   .     S
C536   H684    1.110   .     S
C537   H697    1.107   .     S
C537   C538    1.534   .     S
C537   H695    1.110   .     S
C538   H694    1.110   .     S
C538   C539    1.526   .     S
C538   H693    1.111   .     S
C539   H690    1.111   .     S
C539   H691    1.111   .     S
C539   H692    1.110   .     S
C540   C565    1.457   .     S
C540   C596    1.415   .     A
C540   C1440   1.415   1_545 S
C541   C90     1.415   1_655 A
C542   C566    1.457   .     S
C542   C1495   1.415   1_545 A
C542   C563    1.415   .     S
C543   C618    1.415   .     A
C543   C571    1.457   .     S
C543   C1367   1.415   1_545 S
C544   C1334   1.415   1_545 S
C544   C572    1.457   .     S
C545   C569    1.457   .     S
C546   C570    1.457   .     S
C547   H629    1.079   .     S
C547   C553    1.380   .     A
C547   C626    1.405   .     A
C548   C627    1.405   .     A
C548   C551    1.380   .     A
C548   H701    1.079   .     S
C549   H712    1.079   .     S
C549   C628    1.405   .     A
C549   C555    1.380   .     A
C550   H723    1.079   .     S
C550   C554    1.380   .     A
C551   H734    1.079   .     S
C552   C1428   1.415   .     S
C553   H745    1.079   .     S
C554   H756    1.079   .     S
C555   H767    1.079   .     S
C556   H778    1.079   .     S
C556   C561    1.380   1_556 S
C557   H630    1.079   .     S
C557   C560    1.380   1_554 S
C558   H641    1.079   .     S
C558   C564    1.380   1_556 S
C559   H652    1.079   .     S
C559   C562    1.380   1_554 S
C560   H663    1.079   .     S
C560   C557    1.380   1_556 S
C561   H674    1.079   .     S
C561   C556    1.380   1_554 S
C562   H685    1.079   .     S
C562   C559    1.380   1_556 S
C564   H696    1.079   .     S
C564   C558    1.380   1_554 S
C565   O872    1.276   .     A
C565   O1721   1.276   1_545 S
C566   O1678   1.276   1_545 A
C566   O844    1.276   .     S
C567   O855    1.276   .     A
C568   O792    1.276   .     S
C569   O793    1.276   .     S
C569   O797    1.276   .     S
C570   O794    1.276   .     A
C570   O798    1.276   .     S
C571   O795    1.276   .     A
C571   O799    1.276   .     A
C572   O796    1.276   .     S
C572   O801    1.276   .     S
C573   O830    1.279   .     A
C573   O802    1.279   .     A
C574   C626    1.416   .     A
C574   C79     1.415   1_655 S
C575   O831    1.279   .     A
C575   O803    1.279   .     A
C576   O804    1.279   .     A
C576   O828    1.279   .     A
C577   O829    1.279   .     A
C577   O805    1.279   .     A
C578   O835    1.279   .     A
C578   O806    1.279   .     A
C579   O836    1.279   .     A
C579   O807    1.279   .     A
C580   O832    1.279   .     A
C580   O808    1.279   .     A
C581   O834    1.279   .     A
C581   O809    1.279   .     A
C582   O810    1.279   .     A
C582   O821    1.279   .     A
C583   O823    1.279   .     A
C583   O812    1.279   .     A
C584   O819    1.279   .     A
C584   O813    1.279   .     A
C585   C627    1.416   .     A
C586   O814    1.279   .     A
C586   O820    1.279   .     A
C587   O815    1.279   .     A
C587   O826    1.279   .     A
C588   O827    1.279   .     A
C588   O816    1.279   .     A
C589   O824    1.279   .     A
C589   O817    1.279   .     A
C590   O818    1.279   .     A
C590   O825    1.279   .     A
C591   C608    1.391   .     A
C591   O837    1.385   .     S
C592   C606    1.391   .     A
C592   O838    1.385   .     S
C593   O839    1.383   .     S
C593   C605    1.391   .     A
C594   C604    1.391   .     A
C594   O840    1.383   .     S
C595   C603    1.391   .     A
C595   O841    1.385   .     S
C596   C628    1.416   .     A
C597   C602    1.391   .     A
C597   O842    1.385   .     S
C598   C601    1.391   .     A
C598   O843    1.383   .     S
C599   C600    1.391   .     A
C599   O845    1.383   .     S
C600   O846    1.383   .     S
C601   O847    1.383   .     S
C602   O848    1.385   .     S
C603   O849    1.385   .     S
C604   O850    1.383   .     S
C605   O851    1.383   .     S
C606   O852    1.385   .     S
C607   C1430   1.415   .     A
C608   O853    1.385   .     S
C609   O854    1.385   .     S
C609   C625    1.391   .     A
C610   C624    1.391   .     A
C610   O856    1.385   .     S
C611   C623    1.391   .     A
C611   O857    1.383   .     S
C612   O858    1.383   .     S
C612   C622    1.391   .     A
C613   C621    1.391   .     A
C613   O859    1.385   .     S
C614   C620    1.391   .     A
C614   O860    1.385   .     S
C615   C619    1.391   .     A
C615   O861    1.383   .     S
C616   O862    1.383   .     S
C616   C617    1.391   .     A
C617   O863    1.383   .     S
C619   O864    1.383   .     S
C620   O865    1.385   .     S
C621   O867    1.385   .     S
C622   O868    1.383   .     S
C623   O869    1.383   .     S
C624   O870    1.385   .     S
C625   O871    1.385   .     S
C626   C34     1.418   1_655 A
H698   O837    0.988   .     S
H699   O838    0.988   .     S
H700   O839    0.988   .     S
H702   O840    0.988   .     S
H703   O841    0.988   .     S
H704   O842    0.988   .     S
H705   O843    0.988   .     S
H706   O845    0.988   .     S
H707   O846    0.988   .     S
H708   O847    0.988   .     S
H709   O848    0.988   .     S
H710   O849    0.988   .     S
H711   O850    0.988   .     S
H713   O851    0.988   .     S
H714   O852    0.988   .     S
H715   O853    0.988   .     S
H716   O854    0.988   .     S
H717   O856    0.988   .     S
H718   O857    0.988   .     S
H719   O858    0.988   .     S
H720   O859    0.988   .     S
H721   O860    0.988   .     S
H722   O861    0.988   .     S
H724   O862    0.988   .     S
H725   O863    0.988   .     S
H726   O864    0.988   .     S
H727   O865    0.988   .     S
H728   O867    0.988   .     S
H729   O868    0.988   .     S
H730   O869    0.988   .     S
H731   O870    0.988   .     S
H732   O871    0.988   .     S
H741   C49     1.111   1_655 S
H742   C49     1.111   1_655 S
H749   C1384   1.111   .     S
H750   C1384   1.111   .     S
H757   C1387   1.111   1_545 S
H758   C1387   1.111   1_545 S
H764   C59     1.111   1_655 S
H765   C59     1.111   1_655 S
H780   C1397   1.111   1_545 S
H781   C1397   1.111   1_545 S
H787   C1401   1.111   .     S
H788   C1401   1.111   .     S
O789   Zn884   1.948   .     S
O789   Zn876   1.948   .     S
O789   Zn873   1.948   .     S
O789   Zn1768  1.948   1_545 S
O790   C1454   1.276   .     A
O790   Zn875   1.955   .     S
O791   Zn878   1.955   .     S
O791   C123    1.276   1_655 S
O792   Zn877   1.955   .     S
O793   Zn887   1.955   .     S
O794   Zn886   1.955   .     S
O795   Zn881   1.955   .     S
O796   Zn873   1.955   .     S
O797   Zn883   1.955   .     S
O798   Zn882   1.955   .     S
O799   Zn885   1.955   .     S
O800   Zn879   1.948   .     S
O800   Zn881   1.948   .     S
O800   Zn885   1.948   .     S
O800   Zn1763  1.948   1_545 S
O801   Zn884   1.955   .     S
O802   Zn876   1.936   .     S
O803   Zn875   1.936   .     S
O804   Zn878   1.932   .     S
O805   Zn877   1.932   .     S
O806   Zn880   1.936   .     S
O807   Zn879   1.936   .     S
O808   Zn874   1.932   .     S
O809   Zn888   1.932   .     S
O810   Zn875   1.932   .     S
O811   Zn886   1.948   .     S
O811   Zn874   1.948   .     S
O811   Zn882   1.948   .     S
O812   Zn876   1.932   .     S
O813   Zn888   1.936   .     S
O814   Zn874   1.936   .     S
O815   Zn879   1.932   .     S
O816   Zn880   1.932   .     S
O817   Zn877   1.936   .     S
O818   Zn878   1.936   .     S
O819   Zn439   1.936   1_655 S
O820   Zn882   1.936   .     S
O821   Zn1773  1.932   .     S
O822   Zn877   1.948   .     S
O822   Zn887   1.948   .     S
O822   Zn883   1.948   .     S
O823   Zn884   1.932   .     S
O824   Zn887   1.936   .     S
O825   Zn442   1.936   1_655 S
O826   Zn881   1.932   .     S
O827   Zn1761  1.932   .     S
O828   Zn438   1.932   1_655 S
O829   Zn883   1.932   .     S
O830   Zn873   1.936   .     S
O831   Zn1769  1.936   .     S
O832   Zn886   1.932   .     S
O833   Zn880   1.955   .     S
O833   C1453   1.276   .     S
O834   Zn443   1.932   1_655 S
O835   Zn1772  1.936   .     S
O836   Zn885   1.936   .     S
O844   Zn879   1.955   .     S
O855   Zn874   1.955   .     S
O866   C124    1.276   1_655 A
O866   Zn888   1.955   .     S
O872   Zn876   1.955   .     S
Zn873  O1715   1.932   1_545 S
Zn875  O1688   1.948   .     S
Zn878  O367    1.948   1_655 S
Zn880  O1677   1.948   .     S
Zn881  O1719   1.936   1_545 S
Zn884  O1723   1.936   1_545 S
Zn885  O1709   1.932   1_545 S
Zn888  O378    1.948   1_655 S
C889   C967    1.415   .     A
C889   C931    1.532   .     S
C889   C892    1.416   .     A
C890   C902    1.416   .     A
C890   C961    1.532   .     S
C890   C100    1.415   1_565 S
C891   C1051   1.416   .     A
C891   C994    1.405   .     A
C891   C38     1.418   1_565 A
C892   C995    1.405   .     A
C892   C922    1.418   .     S
C893   C1368   1.418   .     A
C893   C985    1.416   .     A
C893   C997    1.405   .     A
C894   C998    1.405   .     A
C894   C996    1.416   .     A
C894   C37     1.418   1_565 S
C895   C1007   1.416   .     A
C895   C999    1.405   .     A
C895   C926    1.418   .     S
C896   C923    1.416   .     A
C896   C1000   1.405   .     A
C896   C39     1.418   1_565 A
C897   C934    1.416   .     A
C897   C1001   1.405   .     A
C897   C928    1.418   .     A
C898   C929    1.418   .     A
C898   C1002   1.405   .     A
C898   C945    1.416   .     A
C899   C1003   1.405   .     A
C899   C956    1.416   .     A
C899   C1374   1.418   .     S
C900   C1062   1.416   .     A
C900   C1004   1.405   .     A
C900   C927    1.418   .     S
C901   C964    1.532   .     S
C901   C903    1.416   .     A
C901   C1433   1.415   .     S
C902   C1005   1.405   .     A
C902   C40     1.418   1_565 S
C903   C1006   1.405   .     A
C903   C1373   1.418   .     S
C904   C1008   1.405   .     A
C904   C912    1.416   .     A
C904   C930    1.418   .     A
C905   C1052   1.416   .     A
C905   C1054   1.416   .     A
C905   C1024   1.451   .     S
C906   C1025   1.451   .     S
C906   C1053   1.416   .     A
C906   C1050   1.416   .     A
C907   C1017   1.454   .     S
C907   C1049   1.416   .     A
C907   C1056   1.416   .     A
C908   C1048   1.416   .     A
C908   C1055   1.416   .     A
C908   C1019   1.454   .     S
C909   C1058   1.416   .     A
C909   C1047   1.416   .     A
C909   C1020   1.451   .     S
C910   C1021   1.451   .     S
C910   C1046   1.416   .     A
C910   C1057   1.416   .     A
C911   C1022   1.454   .     S
C911   C1045   1.416   .     A
C911   C1060   1.416   .     A
C912   C968    1.532   .     S
C912   C990    1.415   .     S
C913   C1059   1.416   .     A
C913   C1044   1.416   .     A
C913   C1023   1.454   .     S
C914   C1043   1.416   .     A
C914   C1033   1.454   .     S
C914   C1063   1.416   .     A
C915   C1042   1.416   .     A
C915   C1034   1.454   .     S
C915   C1061   1.416   .     A
C916   C1041   1.416   .     A
C916   C1065   1.416   .     A
C916   C1026   1.451   .     S
C917   C1039   1.416   .     A
C917   C1064   1.416   .     A
C917   C1027   1.451   .     S
C918   C1038   1.416   .     A
C918   C1067   1.416   .     A
C918   C1028   1.454   .     S
C919   C1066   1.416   .     A
C919   C1037   1.416   .     A
C919   C1030   1.454   .     S
C920   C1069   1.416   .     A
C920   C1036   1.416   .     A
C920   C1031   1.451   .     S
C921   C1035   1.416   .     A
C921   C1068   1.416   .     A
C921   C1032   1.451   .     S
C922   C924    1.426   .     A
C922   C1514   1.418   1_455 A
C923   C971    1.532   .     S
C923   C99     1.415   1_565 S
C924   C1337   1.418   1_455 A
C924   C1071   1.418   .     S
C925   C1072   1.418   .     A
C925   C926    1.426   .     S
C927   C928    1.426   1_556 S
C928   C927    1.426   1_554 S
C929   C1347   1.418   1_455 S
C929   C930    1.426   1_556 S
C930   C1343   1.418   1_455 S
C930   C929    1.426   1_554 S
C931   H1183   1.110   .     S
C931   H1184   1.107   .     S
C931   C1376   1.534   1_455 S
C932   C933    1.526   .     S
C932   H1182   1.110   .     S
C932   H1181   1.111   .     S
C932   C1375   1.534   .     S
C933   H1180   1.110   .     S
C933   H1621   1.111   .     S
C933   H1623   1.111   .     S
C934   C988    1.415   .     A
C934   C974    1.532   .     S
C935   C985    1.532   .     S
C935   H1192   1.110   .     S
C935   H1191   1.107   .     S
C935   C1380   1.534   .     S
C936   H1188   1.110   .     S
C936   C937    1.526   .     S
C936   H1190   1.111   .     S
C936   C1379   1.534   1_455 S
C937   H1187   1.110   .     S
C937   H1629   1.111   1_455 S
C937   H1630   1.111   1_455 S
C938   H1199   1.110   .     S
C938   C996    1.532   .     S
C938   H1198   1.107   .     S
C938   C51     1.534   1_565 S
C939   C940    1.526   .     S
C939   H1196   1.110   .     S
C939   H1197   1.111   .     S
C940   H1195   1.110   .     S
C941   H1206   1.110   .     S
C941   H1207   1.107   .     S
C941   C1007   1.532   .     S
C942   H1204   1.111   .     S
C942   C943    1.526   .     S
C942   H1205   1.110   .     S
C942   C53     1.534   1_565 S
C943   H1203   1.110   .     S
C943   H313    1.111   1_565 S
C943   H314    1.111   1_565 S
C944   H1215   1.107   .     S
C944   C1018   1.532   .     S
C944   H1214   1.110   .     S
C944   C1390   1.534   .     S
C945   C989    1.415   .     A
C945   C977    1.532   .     S
C946   H1212   1.111   .     S
C946   H1213   1.110   .     S
C946   C947    1.526   .     S
C946   C1388   1.534   1_455 S
C947   H1210   1.110   .     S
C947   H1652   1.111   1_455 S
C947   H1653   1.111   1_455 S
C948   C1029   1.532   .     S
C948   H1221   1.107   .     S
C948   H1223   1.110   .     S
C948   C1393   1.534   1_455 S
C949   H1219   1.110   .     S
C949   C950    1.526   .     S
C949   H1220   1.111   .     S
C949   C1392   1.534   .     S
C950   H1218   1.110   .     S
C950   H1660   1.111   .     S
C950   H1661   1.111   .     S
C951   H1230   1.110   .     S
C951   C1040   1.532   .     S
C951   H1229   1.107   .     S
C952   H1227   1.110   .     S
C952   H1228   1.111   .     S
C952   C953    1.526   .     S
C952   C63     1.534   1_565 S
C953   H1226   1.110   .     S
C953   H336    1.111   1_565 S
C953   H337    1.111   1_565 S
C954   H1078   1.110   .     S
C954   H1079   1.107   .     S
C954   C1051   1.532   .     S
C954   C67     1.534   1_565 S
C955   H1077   1.110   .     S
C955   H1076   1.111   .     S
C955   C957    1.526   .     S
C956   C1434   1.415   .     A
C956   C981    1.532   .     S
C957   H1075   1.110   .     S
C958   H1086   1.110   .     S
C958   C1062   1.532   .     S
C958   H1087   1.107   .     S
C958   C959    1.534   .     S
C959   H1083   1.111   .     S
C959   C960    1.526   .     S
C959   H1084   1.110   .     S
C960   H1082   1.110   .     S
C960   H1080   1.111   .     S
C960   H1081   1.111   .     S
C961   H1094   1.110   .     S
C961   C962    1.534   .     S
C961   H1093   1.107   .     S
C962   H1091   1.110   .     S
C962   H1092   1.111   .     S
C962   C963    1.526   .     S
C963   H1088   1.111   .     S
C963   H1090   1.110   .     S
C963   H1089   1.111   .     S
C964   H1101   1.107   .     S
C964   H1102   1.110   .     S
C964   C965    1.534   .     S
C965   C966    1.526   .     S
C965   H1100   1.111   .     S
C965   H1099   1.110   .     S
C966   H1095   1.111   .     S
C966   H1098   1.110   .     S
C966   H1097   1.111   .     S
C967   C1011   1.457   .     S
C967   C1462   1.415   1_455 S
C968   H1109   1.110   .     S
C968   H1110   1.107   .     S
C968   C969    1.534   .     S
C969   H1108   1.110   .     S
C969   C970    1.526   .     S
C969   H1106   1.111   .     S
C970   H1103   1.111   .     S
C970   H1105   1.110   .     S
C970   H1104   1.111   .     S
C971   H1116   1.110   .     S
C971   C972    1.534   .     S
C971   H1117   1.107   .     S
C972   C973    1.526   .     S
C972   H1114   1.111   .     S
C972   H1115   1.110   .     S
C973   H1112   1.111   .     S
C973   H1113   1.110   .     S
C973   H1111   1.111   .     S
C974   H1124   1.107   .     S
C974   C975    1.534   .     S
C974   H1125   1.110   .     S
C975   H1123   1.111   .     S
C975   C976    1.526   .     S
C975   H1122   1.110   .     S
C976   H1120   1.111   .     S
C976   H1121   1.110   .     S
C976   H1119   1.111   .     S
C977   H1133   1.110   .     S
C977   C979    1.534   .     S
C977   H1132   1.107   .     S
C978   C1429   1.415   1_455 A
C978   C1012   1.457   .     S
C978   C1029   1.415   .     S
C979   C980    1.526   .     S
C979   H1130   1.110   .     S
C979   H1131   1.111   .     S
C980   H1127   1.111   .     S
C980   H1126   1.111   .     S
C980   H1128   1.110   .     S
C981   H1141   1.107   .     S
C981   C982    1.534   .     S
C981   H1139   1.110   .     S
C982   H1138   1.110   .     S
C982   C983    1.526   .     S
C982   H1137   1.111   .     S
C983   H1134   1.111   .     S
C983   H1135   1.111   .     S
C983   H1136   1.110   .     S
C984   C1009   1.457   .     S
C984   C1040   1.415   .     A
C985   C1422   1.415   .     A
C986   C1010   1.457   .     S
C986   C1007   1.415   .     S
C987   C1062   1.415   .     A
C987   C1015   1.457   .     S
C988   C1016   1.457   .     S
C989   C1345   1.415   1_455 S
C989   C1013   1.457   .     S
C990   C1400   1.415   1_455 A
C990   C1014   1.457   .     S
C991   H1073   1.079   .     S
C991   C997    1.380   .     A
C991   C1070   1.405   .     A
C992   C1071   1.405   .     A
C992   C995    1.380   .     A
C992   H1145   1.079   .     S
C993   H1156   1.079   .     S
C993   C1072   1.405   .     A
C993   C999    1.380   .     A
C994   H1167   1.079   .     S
C994   C998    1.380   .     A
C995   H1178   1.079   .     S
C996   C96     1.415   1_565 S
C997   H1189   1.079   .     S
C998   H1200   1.079   .     S
C999   H1211   1.079   .     S
C1000  H1222   1.079   .     S
C1000  C1005   1.380   1_556 S
C1001  H1074   1.079   .     S
C1001  C1004   1.380   1_554 S
C1002  H1085   1.079   .     S
C1002  C1008   1.380   1_556 S
C1003  H1096   1.079   .     S
C1003  C1006   1.380   1_554 S
C1004  H1107   1.079   .     S
C1004  C1001   1.380   1_556 S
C1005  H1118   1.079   .     S
C1005  C1000   1.380   1_554 S
C1006  H1129   1.079   .     S
C1006  C1003   1.380   1_556 S
C1008  H1140   1.079   .     S
C1008  C1002   1.380   1_554 S
C1009  O1316   1.276   .     A
C1010  O1288   1.276   .     S
C1011  O1299   1.276   .     A
C1011  O1679   1.276   1_455 S
C1012  O1754   1.276   1_455 A
C1012  O1236   1.276   .     S
C1013  O1237   1.276   .     S
C1013  O1241   1.276   .     S
C1014  O1238   1.276   .     A
C1014  O1242   1.276   .     S
C1015  O1239   1.276   .     A
C1015  O1243   1.276   .     A
C1016  O1240   1.276   .     S
C1016  O1245   1.276   .     S
C1017  O1274   1.279   .     A
C1017  O1246   1.279   .     A
C1018  C1070   1.416   .     A
C1018  C1411   1.415   .     S
C1019  O1275   1.279   .     A
C1019  O1247   1.279   .     A
C1020  O1248   1.279   .     A
C1020  O1272   1.279   .     A
C1021  O1273   1.279   .     A
C1021  O1249   1.279   .     A
C1022  O1279   1.279   .     A
C1022  O1250   1.279   .     A
C1023  O1280   1.279   .     A
C1023  O1251   1.279   .     A
C1024  O1276   1.279   .     A
C1024  O1252   1.279   .     A
C1025  O1278   1.279   .     A
C1025  O1253   1.279   .     A
C1026  O1254   1.279   .     A
C1026  O1265   1.279   .     A
C1027  O1267   1.279   .     A
C1027  O1256   1.279   .     A
C1028  O1263   1.279   .     A
C1028  O1257   1.279   .     A
C1029  C1071   1.416   .     A
C1030  O1258   1.279   .     A
C1030  O1264   1.279   .     A
C1031  O1259   1.279   .     A
C1031  O1270   1.279   .     A
C1032  O1271   1.279   .     A
C1032  O1260   1.279   .     A
C1033  O1268   1.279   .     A
C1033  O1261   1.279   .     A
C1034  O1262   1.279   .     A
C1034  O1269   1.279   .     A
C1035  C1052   1.391   .     A
C1035  O1281   1.385   .     S
C1036  C1050   1.391   .     A
C1036  O1282   1.385   .     S
C1037  O1283   1.383   .     S
C1037  C1049   1.391   .     A
C1038  C1048   1.391   .     A
C1038  O1284   1.383   .     S
C1039  C1047   1.391   .     A
C1039  O1285   1.385   .     S
C1040  C1072   1.416   .     A
C1041  C1046   1.391   .     A
C1041  O1286   1.385   .     S
C1042  C1045   1.391   .     A
C1042  O1287   1.383   .     S
C1043  C1044   1.391   .     A
C1043  O1289   1.383   .     S
C1044  O1290   1.383   .     S
C1045  O1291   1.383   .     S
C1046  O1292   1.385   .     S
C1047  O1293   1.385   .     S
C1048  O1294   1.383   .     S
C1049  O1295   1.383   .     S
C1050  O1296   1.385   .     S
C1051  C98     1.415   1_565 A
C1052  O1297   1.385   .     S
C1053  O1298   1.385   .     S
C1053  C1069   1.391   .     A
C1054  C1068   1.391   .     A
C1054  O1300   1.385   .     S
C1055  C1067   1.391   .     A
C1055  O1301   1.383   .     S
C1056  O1302   1.383   .     S
C1056  C1066   1.391   .     A
C1057  C1065   1.391   .     A
C1057  O1303   1.385   .     S
C1058  C1064   1.391   .     A
C1058  O1304   1.385   .     S
C1059  C1063   1.391   .     A
C1059  O1305   1.383   .     S
C1060  O1306   1.383   .     S
C1060  C1061   1.391   .     A
C1061  O1307   1.383   .     S
C1063  O1308   1.383   .     S
C1064  O1309   1.385   .     S
C1065  O1311   1.385   .     S
C1066  O1312   1.383   .     S
C1067  O1313   1.383   .     S
C1068  O1314   1.385   .     S
C1069  O1315   1.385   .     S
C1070  C1366   1.418   .     A
H1142  O1281   0.988   .     S
H1143  O1282   0.988   .     S
H1144  O1283   0.988   .     S
H1146  O1284   0.988   .     S
H1147  O1285   0.988   .     S
H1148  O1286   0.988   .     S
H1149  O1287   0.988   .     S
H1150  O1289   0.988   .     S
H1151  O1290   0.988   .     S
H1152  O1291   0.988   .     S
H1153  O1292   0.988   .     S
H1154  O1293   0.988   .     S
H1155  O1294   0.988   .     S
H1157  O1295   0.988   .     S
H1158  O1296   0.988   .     S
H1159  O1297   0.988   .     S
H1160  O1298   0.988   .     S
H1161  O1300   0.988   .     S
H1162  O1301   0.988   .     S
H1163  O1302   0.988   .     S
H1164  O1303   0.988   .     S
H1165  O1304   0.988   .     S
H1166  O1305   0.988   .     S
H1168  O1306   0.988   .     S
H1169  O1307   0.988   .     S
H1170  O1308   0.988   .     S
H1171  O1309   0.988   .     S
H1172  O1311   0.988   .     S
H1173  O1312   0.988   .     S
H1174  O1313   0.988   .     S
H1175  O1314   0.988   .     S
H1176  O1315   0.988   .     S
H1177  C1377   1.111   1_455 S
H1179  C1377   1.111   1_455 S
H1185  C1381   1.111   .     S
H1186  C1381   1.111   .     S
H1193  C52     1.111   1_565 S
H1194  C52     1.111   1_565 S
H1208  C1391   1.111   .     S
H1209  C1391   1.111   .     S
H1216  C1394   1.111   1_455 S
H1217  C1394   1.111   1_455 S
H1231  C69     1.111   1_565 S
H1232  C69     1.111   1_565 S
O1233  Zn1328  1.948   .     S
O1233  Zn1320  1.948   .     S
O1233  Zn1317  1.948   .     S
O1234  C122    1.276   1_565 A
O1234  Zn1319  1.955   .     S
O1235  Zn1322  1.955   .     S
O1235  C1455   1.276   .     S
O1236  Zn1321  1.955   .     S
O1237  Zn1331  1.955   .     S
O1238  Zn1330  1.955   .     S
O1239  Zn1325  1.955   .     S
O1240  Zn1317  1.955   .     S
O1241  Zn1327  1.955   .     S
O1242  Zn1326  1.955   .     S
O1243  Zn1329  1.955   .     S
O1244  Zn1323  1.948   .     S
O1244  Zn1325  1.948   .     S
O1244  Zn1329  1.948   .     S
O1245  Zn1328  1.955   .     S
O1246  Zn1320  1.936   .     S
O1247  Zn1319  1.936   .     S
O1248  Zn1322  1.932   .     S
O1249  Zn1321  1.932   .     S
O1250  Zn1324  1.936   .     S
O1251  Zn1323  1.936   .     S
O1252  Zn1318  1.932   .     S
O1253  Zn1332  1.932   .     S
O1254  Zn1319  1.932   .     S
O1255  Zn1766  1.948   1_455 S
O1255  Zn1330  1.948   .     S
O1255  Zn1318  1.948   .     S
O1255  Zn1326  1.948   .     S
O1256  Zn1320  1.932   .     S
O1257  Zn1332  1.936   .     S
O1258  Zn1318  1.936   .     S
O1259  Zn1323  1.932   .     S
O1260  Zn1324  1.932   .     S
O1261  Zn1321  1.936   .     S
O1262  Zn1322  1.936   .     S
O1263  Zn1771  1.936   .     S
O1264  Zn1326  1.936   .     S
O1265  Zn441   1.932   1_565 S
O1266  Zn1321  1.948   .     S
O1266  Zn1331  1.948   .     S
O1266  Zn1327  1.948   .     S
O1266  Zn1776  1.948   1_455 S
O1267  Zn1328  1.932   .     S
O1268  Zn1331  1.936   .     S
O1269  Zn1774  1.936   .     S
O1270  Zn1325  1.932   .     S
O1271  Zn429   1.932   1_565 S
O1272  Zn1770  1.932   .     S
O1273  Zn1327  1.932   .     S
O1274  Zn1317  1.936   .     S
O1275  Zn437   1.936   1_565 S
O1276  Zn1330  1.932   .     S
O1277  Zn1324  1.955   .     S
O1277  C121    1.276   1_565 S
O1278  Zn1775  1.932   .     S
O1279  Zn440   1.936   1_565 S
O1280  Zn1329  1.936   .     S
O1288  Zn1323  1.955   .     S
O1299  Zn1318  1.955   .     S
O1310  C1456   1.276   .     A
O1310  Zn1332  1.955   .     S
O1316  Zn1320  1.955   .     S
Zn1319 O356    1.948   1_565 S
Zn1322 O1699   1.948   .     S
Zn1324 O345    1.948   1_565 S
Zn1326 O1716   1.932   1_455 S
Zn1327 O1707   1.936   1_455 S
Zn1330 O1713   1.936   1_455 S
Zn1331 O1722   1.932   1_455 S
Zn1332 O1710   1.948   .     S
C1333  C1411   1.415   .     A
C1333  C1375   1.532   .     S
C1333  C1336   1.416   .     A
C1334  C1346   1.416   .     A
C1334  C1405   1.532   .     S
C1334  C544    1.415   1_565 S
C1335  C1495   1.416   .     A
C1335  C1438   1.405   .     A
C1335  C482    1.418   1_565 A
C1336  C1439   1.405   .     A
C1336  C1366   1.418   .     S
C1337  C924    1.418   1_655 A
C1337  C1429   1.416   .     A
C1337  C1441   1.405   .     A
C1338  C1442   1.405   .     A
C1338  C1440   1.416   .     A
C1338  C481    1.418   1_565 S
C1339  C1451   1.416   .     A
C1339  C1443   1.405   .     A
C1339  C1370   1.418   .     S
C1340  C1367   1.416   .     A
C1340  C1444   1.405   .     A
C1340  C483    1.418   1_565 A
C1341  C1378   1.416   .     A
C1341  C1445   1.405   .     A
C1341  C1372   1.418   .     A
C1342  C1373   1.418   .     A
C1342  C1446   1.405   .     A
C1342  C1389   1.416   .     A
C1343  C1447   1.405   .     A
C1343  C1400   1.416   .     A
C1343  C930    1.418   1_655 S
C1344  C1506   1.416   .     A
C1344  C1448   1.405   .     A
C1344  C1371   1.418   .     S
C1345  C1408   1.532   .     S
C1345  C1347   1.416   .     A
C1345  C989    1.415   1_655 S
C1346  C1449   1.405   .     A
C1346  C484    1.418   1_565 S
C1347  C1450   1.405   .     A
C1347  C929    1.418   1_655 S
C1348  C1452   1.405   .     A
C1348  C1356   1.416   .     A
C1348  C1374   1.418   .     A
C1349  C1496   1.416   .     A
C1349  C1498   1.416   .     A
C1349  C1468   1.451   .     S
C1350  C1469   1.451   .     S
C1350  C1497   1.416   .     A
C1350  C1494   1.416   .     A
C1351  C1461   1.454   .     S
C1351  C1493   1.416   .     A
C1351  C1500   1.416   .     A
C1352  C1492   1.416   .     A
C1352  C1499   1.416   .     A
C1352  C1463   1.454   .     S
C1353  C1502   1.416   .     A
C1353  C1491   1.416   .     A
C1353  C1464   1.451   .     S
C1354  C1465   1.451   .     S
C1354  C1490   1.416   .     A
C1354  C1501   1.416   .     A
C1355  C1466   1.454   .     S
C1355  C1489   1.416   .     A
C1355  C1504   1.416   .     A
C1356  C1412   1.532   .     S
C1356  C1434   1.415   .     S
C1357  C1503   1.416   .     A
C1357  C1488   1.416   .     A
C1357  C1467   1.454   .     S
C1358  C1487   1.416   .     A
C1358  C1477   1.454   .     S
C1358  C1507   1.416   .     A
C1359  C1486   1.416   .     A
C1359  C1478   1.454   .     S
C1359  C1505   1.416   .     A
C1360  C1485   1.416   .     A
C1360  C1509   1.416   .     A
C1360  C1470   1.451   .     S
C1361  C1483   1.416   .     A
C1361  C1508   1.416   .     A
C1361  C1471   1.451   .     S
C1362  C1482   1.416   .     A
C1362  C1511   1.416   .     A
C1362  C1472   1.454   .     S
C1363  C1510   1.416   .     A
C1363  C1481   1.416   .     A
C1363  C1474   1.454   .     S
C1364  C1513   1.416   .     A
C1364  C1480   1.416   .     A
C1364  C1475   1.451   .     S
C1365  C1479   1.416   .     A
C1365  C1512   1.416   .     A
C1365  C1476   1.451   .     S
C1366  C1368   1.426   .     A
C1367  C1415   1.532   .     S
C1367  C543    1.415   1_565 S
C1368  C1515   1.418   .     S
C1369  C1516   1.418   .     A
C1369  C1370   1.426   .     S
C1371  C1372   1.426   1_556 S
C1372  C1371   1.426   1_554 S
C1373  C1374   1.426   1_556 S
C1374  C1373   1.426   1_554 S
C1375  H1627   1.110   .     S
C1375  H1628   1.107   .     S
C1376  C1377   1.526   .     S
C1376  H1626   1.110   .     S
C1376  H1625   1.111   .     S
C1376  C931    1.534   1_655 S
C1377  H1624   1.110   .     S
C1377  H1177   1.111   1_655 S
C1377  H1179   1.111   1_655 S
C1378  C1432   1.415   .     A
C1378  C1418   1.532   .     S
C1379  C1429   1.532   .     S
C1379  H1636   1.110   .     S
C1379  H1635   1.107   .     S
C1379  C936    1.534   1_655 S
C1380  H1632   1.110   .     S
C1380  C1381   1.526   .     S
C1380  H1634   1.111   .     S
C1381  H1631   1.110   .     S
C1382  H1643   1.110   .     S
C1382  C1440   1.532   .     S
C1382  H1642   1.107   .     S
C1382  C495    1.534   1_565 S
C1383  C1384   1.526   .     S
C1383  H1640   1.110   .     S
C1383  H1641   1.111   .     S
C1384  H1639   1.110   .     S
C1385  H1650   1.110   .     S
C1385  H1651   1.107   .     S
C1385  C1451   1.532   .     S
C1386  H1648   1.111   .     S
C1386  C1387   1.526   .     S
C1386  H1649   1.110   .     S
C1386  C497    1.534   1_565 S
C1387  H1647   1.110   .     S
C1387  H757    1.111   1_565 S
C1387  H758    1.111   1_565 S
C1388  H1659   1.107   .     S
C1388  C1462   1.532   .     S
C1388  H1658   1.110   .     S
C1388  C946    1.534   1_655 S
C1389  C1433   1.415   .     A
C1389  C1421   1.532   .     S
C1390  H1656   1.111   .     S
C1390  H1657   1.110   .     S
C1390  C1391   1.526   .     S
C1391  H1654   1.110   .     S
C1392  C1473   1.532   .     S
C1392  H1665   1.107   .     S
C1392  H1667   1.110   .     S
C1393  H1663   1.110   .     S
C1393  C1394   1.526   .     S
C1393  H1664   1.111   .     S
C1393  C948    1.534   1_655 S
C1394  H1662   1.110   .     S
C1394  H1216   1.111   1_655 S
C1394  H1217   1.111   1_655 S
C1395  H1674   1.110   .     S
C1395  C1484   1.532   .     S
C1395  H1673   1.107   .     S
C1396  H1671   1.110   .     S
C1396  H1672   1.111   .     S
C1396  C1397   1.526   .     S
C1396  C507    1.534   1_565 S
C1397  H1670   1.110   .     S
C1397  H780    1.111   1_565 S
C1397  H781    1.111   1_565 S
C1398  H1522   1.110   .     S
C1398  H1523   1.107   .     S
C1398  C1495   1.532   .     S
C1398  C511    1.534   1_565 S
C1399  H1521   1.110   .     S
C1399  H1520   1.111   .     S
C1399  C1401   1.526   .     S
C1400  C990    1.415   1_655 A
C1400  C1425   1.532   .     S
C1401  H1519   1.110   .     S
C1402  H1530   1.110   .     S
C1402  C1506   1.532   .     S
C1402  H1531   1.107   .     S
C1402  C1403   1.534   .     S
C1403  H1527   1.111   .     S
C1403  C1404   1.526   .     S
C1403  H1528   1.110   .     S
C1404  H1526   1.110   .     S
C1404  H1524   1.111   .     S
C1404  H1525   1.111   .     S
C1405  H1538   1.110   .     S
C1405  C1406   1.534   .     S
C1405  H1537   1.107   .     S
C1406  H1535   1.110   .     S
C1406  H1536   1.111   .     S
C1406  C1407   1.526   .     S
C1407  H1532   1.111   .     S
C1407  H1534   1.110   .     S
C1407  H1533   1.111   .     S
C1408  H1545   1.107   .     S
C1408  H1546   1.110   .     S
C1408  C1409   1.534   .     S
C1409  C1410   1.526   .     S
C1409  H1544   1.111   .     S
C1409  H1543   1.110   .     S
C1410  H1539   1.111   .     S
C1410  H1542   1.110   .     S
C1410  H1541   1.111   .     S
C1411  C1455   1.457   .     S
C1412  H1553   1.110   .     S
C1412  H1554   1.107   .     S
C1412  C1413   1.534   .     S
C1413  H1552   1.110   .     S
C1413  C1414   1.526   .     S
C1413  H1550   1.111   .     S
C1414  H1547   1.111   .     S
C1414  H1549   1.110   .     S
C1414  H1548   1.111   .     S
C1415  H1560   1.110   .     S
C1415  C1416   1.534   .     S
C1415  H1561   1.107   .     S
C1416  C1417   1.526   .     S
C1416  H1558   1.111   .     S
C1416  H1559   1.110   .     S
C1417  H1556   1.111   .     S
C1417  H1557   1.110   .     S
C1417  H1555   1.111   .     S
C1418  H1568   1.107   .     S
C1418  C1419   1.534   .     S
C1418  H1569   1.110   .     S
C1419  H1567   1.111   .     S
C1419  C1420   1.526   .     S
C1419  H1566   1.110   .     S
C1420  H1564   1.111   .     S
C1420  H1565   1.110   .     S
C1420  H1563   1.111   .     S
C1421  H1577   1.110   .     S
C1421  C1423   1.534   .     S
C1421  H1576   1.107   .     S
C1422  C1456   1.457   .     S
C1422  C1473   1.415   .     S
C1423  C1424   1.526   .     S
C1423  H1574   1.110   .     S
C1423  H1575   1.111   .     S
C1424  H1571   1.111   .     S
C1424  H1570   1.111   .     S
C1424  H1572   1.110   .     S
C1425  H1585   1.107   .     S
C1425  C1426   1.534   .     S
C1425  H1583   1.110   .     S
C1426  H1582   1.110   .     S
C1426  C1427   1.526   .     S
C1426  H1581   1.111   .     S
C1427  H1578   1.111   .     S
C1427  H1579   1.111   .     S
C1427  H1580   1.110   .     S
C1428  C1453   1.457   .     S
C1428  C1484   1.415   .     A
C1429  C978    1.415   1_655 A
C1430  C1454   1.457   .     S
C1430  C1451   1.415   .     S
C1431  C1506   1.415   .     A
C1431  C1459   1.457   .     S
C1432  C1460   1.457   .     S
C1433  C1457   1.457   .     S
C1434  C1458   1.457   .     S
C1435  H1517   1.079   .     S
C1435  C1441   1.380   .     A
C1435  C1514   1.405   .     A
C1436  C1515   1.405   .     A
C1436  C1439   1.380   .     A
C1436  H1589   1.079   .     S
C1437  H1600   1.079   .     S
C1437  C1516   1.405   .     A
C1437  C1443   1.380   .     A
C1438  H1611   1.079   .     S
C1438  C1442   1.380   .     A
C1439  H1622   1.079   .     S
C1440  C540    1.415   1_565 S
C1441  H1633   1.079   .     S
C1442  H1644   1.079   .     S
C1443  H1655   1.079   .     S
C1444  H1666   1.079   .     S
C1444  C1449   1.380   1_556 S
C1445  H1518   1.079   .     S
C1445  C1448   1.380   1_554 S
C1446  H1529   1.079   .     S
C1446  C1452   1.380   1_556 S
C1447  H1540   1.079   .     S
C1447  C1450   1.380   1_554 S
C1448  H1551   1.079   .     S
C1448  C1445   1.380   1_556 S
C1449  H1562   1.079   .     S
C1449  C1444   1.380   1_554 S
C1450  H1573   1.079   .     S
C1450  C1447   1.380   1_556 S
C1452  H1584   1.079   .     S
C1452  C1446   1.380   1_554 S
C1453  O1760   1.276   .     A
C1454  O1732   1.276   .     S
C1455  O1743   1.276   .     A
C1456  O1680   1.276   .     S
C1457  O1681   1.276   .     S
C1457  O1685   1.276   .     S
C1458  O1682   1.276   .     A
C1458  O1686   1.276   .     S
C1459  O1683   1.276   .     A
C1459  O1687   1.276   .     A
C1460  O1684   1.276   .     S
C1460  O1689   1.276   .     S
C1461  O1718   1.279   .     A
C1461  O1690   1.279   .     A
C1462  C1514   1.416   .     A
C1462  C967    1.415   1_655 S
C1463  O1719   1.279   .     A
C1463  O1691   1.279   .     A
C1464  O1692   1.279   .     A
C1464  O1716   1.279   .     A
C1465  O1717   1.279   .     A
C1465  O1693   1.279   .     A
C1466  O1723   1.279   .     A
C1466  O1694   1.279   .     A
C1467  O1724   1.279   .     A
C1467  O1695   1.279   .     A
C1468  O1720   1.279   .     A
C1468  O1696   1.279   .     A
C1469  O1722   1.279   .     A
C1469  O1697   1.279   .     A
C1470  O1698   1.279   .     A
C1470  O1709   1.279   .     A
C1471  O1711   1.279   .     A
C1471  O1700   1.279   .     A
C1472  O1707   1.279   .     A
C1472  O1701   1.279   .     A
C1473  C1515   1.416   .     A
C1474  O1702   1.279   .     A
C1474  O1708   1.279   .     A
C1475  O1703   1.279   .     A
C1475  O1714   1.279   .     A
C1476  O1715   1.279   .     A
C1476  O1704   1.279   .     A
C1477  O1712   1.279   .     A
C1477  O1705   1.279   .     A
C1478  O1706   1.279   .     A
C1478  O1713   1.279   .     A
C1479  C1496   1.391   .     A
C1479  O1725   1.385   .     S
C1480  C1494   1.391   .     A
C1480  O1726   1.385   .     S
C1481  O1727   1.383   .     S
C1481  C1493   1.391   .     A
C1482  C1492   1.391   .     A
C1482  O1728   1.383   .     S
C1483  C1491   1.391   .     A
C1483  O1729   1.385   .     S
C1484  C1516   1.416   .     A
C1485  C1490   1.391   .     A
C1485  O1730   1.385   .     S
C1486  C1489   1.391   .     A
C1486  O1731   1.383   .     S
C1487  C1488   1.391   .     A
C1487  O1733   1.383   .     S
C1488  O1734   1.383   .     S
C1489  O1735   1.383   .     S
C1490  O1736   1.385   .     S
C1491  O1737   1.385   .     S
C1492  O1738   1.383   .     S
C1493  O1739   1.383   .     S
C1494  O1740   1.385   .     S
C1495  C542    1.415   1_565 A
C1496  O1741   1.385   .     S
C1497  O1742   1.385   .     S
C1497  C1513   1.391   .     A
C1498  C1512   1.391   .     A
C1498  O1744   1.385   .     S
C1499  C1511   1.391   .     A
C1499  O1745   1.383   .     S
C1500  O1746   1.383   .     S
C1500  C1510   1.391   .     A
C1501  C1509   1.391   .     A
C1501  O1747   1.385   .     S
C1502  C1508   1.391   .     A
C1502  O1748   1.385   .     S
C1503  C1507   1.391   .     A
C1503  O1749   1.383   .     S
C1504  O1750   1.383   .     S
C1504  C1505   1.391   .     A
C1505  O1751   1.383   .     S
C1507  O1752   1.383   .     S
C1508  O1753   1.385   .     S
C1509  O1755   1.385   .     S
C1510  O1756   1.383   .     S
C1511  O1757   1.383   .     S
C1512  O1758   1.385   .     S
C1513  O1759   1.385   .     S
C1514  C922    1.418   1_655 A
H1586  O1725   0.988   .     S
H1587  O1726   0.988   .     S
H1588  O1727   0.988   .     S
H1590  O1728   0.988   .     S
H1591  O1729   0.988   .     S
H1592  O1730   0.988   .     S
H1593  O1731   0.988   .     S
H1594  O1733   0.988   .     S
H1595  O1734   0.988   .     S
H1596  O1735   0.988   .     S
H1597  O1736   0.988   .     S
H1598  O1737   0.988   .     S
H1599  O1738   0.988   .     S
H1601  O1739   0.988   .     S
H1602  O1740   0.988   .     S
H1603  O1741   0.988   .     S
H1604  O1742   0.988   .     S
H1605  O1744   0.988   .     S
H1606  O1745   0.988   .     S
H1607  O1746   0.988   .     S
H1608  O1747   0.988   .     S
H1609  O1748   0.988   .     S
H1610  O1749   0.988   .     S
H1612  O1750   0.988   .     S
H1613  O1751   0.988   .     S
H1614  O1752   0.988   .     S
H1615  O1753   0.988   .     S
H1616  O1755   0.988   .     S
H1617  O1756   0.988   .     S
H1618  O1757   0.988   .     S
H1619  O1758   0.988   .     S
H1620  O1759   0.988   .     S
H1629  C937    1.111   1_655 S
H1630  C937    1.111   1_655 S
H1637  C496    1.111   1_565 S
H1638  C496    1.111   1_565 S
H1652  C947    1.111   1_655 S
H1653  C947    1.111   1_655 S
H1675  C513    1.111   1_565 S
H1676  C513    1.111   1_565 S
O1677  Zn1772  1.948   .     S
O1677  Zn1764  1.948   .     S
O1677  Zn1761  1.948   .     S
O1678  C566    1.276   1_565 A
O1678  Zn1763  1.955   .     S
O1679  Zn1766  1.955   .     S
O1679  C1011   1.276   1_655 S
O1680  Zn1765  1.955   .     S
O1681  Zn1775  1.955   .     S
O1682  Zn1774  1.955   .     S
O1683  Zn1769  1.955   .     S
O1684  Zn1761  1.955   .     S
O1685  Zn1771  1.955   .     S
O1686  Zn1770  1.955   .     S
O1687  Zn1773  1.955   .     S
O1688  Zn1767  1.948   .     S
O1688  Zn1769  1.948   .     S
O1688  Zn1773  1.948   .     S
O1689  Zn1772  1.955   .     S
O1690  Zn1764  1.936   .     S
O1691  Zn1763  1.936   .     S
O1692  Zn1766  1.932   .     S
O1693  Zn1765  1.932   .     S
O1694  Zn1768  1.936   .     S
O1695  Zn1767  1.936   .     S
O1696  Zn1762  1.932   .     S
O1697  Zn1776  1.932   .     S
O1698  Zn1763  1.932   .     S
O1699  Zn1774  1.948   .     S
O1699  Zn1762  1.948   .     S
O1699  Zn1770  1.948   .     S
O1700  Zn1764  1.932   .     S
O1701  Zn1776  1.936   .     S
O1702  Zn1762  1.936   .     S
O1703  Zn1767  1.932   .     S
O1704  Zn1768  1.932   .     S
O1705  Zn1765  1.936   .     S
O1706  Zn1766  1.936   .     S
O1707  Zn1327  1.936   1_655 S
O1708  Zn1770  1.936   .     S
O1709  Zn885   1.932   1_565 S
O1710  Zn1765  1.948   .     S
O1710  Zn1775  1.948   .     S
O1710  Zn1771  1.948   .     S
O1711  Zn1772  1.932   .     S
O1712  Zn1775  1.936   .     S
O1713  Zn1330  1.936   1_655 S
O1714  Zn1769  1.932   .     S
O1715  Zn873   1.932   1_565 S
O1716  Zn1326  1.932   1_655 S
O1717  Zn1771  1.932   .     S
O1718  Zn1761  1.936   .     S
O1719  Zn881   1.936   1_565 S
O1720  Zn1774  1.932   .     S
O1721  Zn1768  1.955   .     S
O1721  C565    1.276   1_565 S
O1722  Zn1331  1.932   1_655 S
O1723  Zn884   1.936   1_565 S
O1724  Zn1773  1.936   .     S
O1732  Zn1767  1.955   .     S
O1743  Zn1762  1.955   .     S
O1754  C1012   1.276   1_655 A
O1754  Zn1776  1.955   .     S
O1760  Zn1764  1.955   .     S
Zn1763 O800    1.948   1_565 S
Zn1766 O1255   1.948   1_655 S
Zn1768 O789    1.948   1_565 S
Zn1776 O1266   1.948   1_655 S
