data_str_m1_o1_o17_pcu_sym.153
_audit_creation_date              2020-01-03
_audit_creation_method            'Materials Studio'
_symmetry_space_group_name_H-M    'P1'
_symmetry_Int_Tables_number       1
_symmetry_cell_setting            triclinic
loop_
_symmetry_equiv_pos_as_xyz
  x,y,z
_cell_length_a                    36.6376
_cell_length_b                    36.6375
_cell_length_c                    34.4798
_cell_angle_alpha                 90.0005
_cell_angle_beta                  89.9997
_cell_angle_gamma                 90.0960
loop_
_atom_site_label
_atom_site_type_symbol
_atom_site_fract_x
_atom_site_fract_y
_atom_site_fract_z
_atom_site_U_iso_or_equiv
_atom_site_adp_type
_atom_site_occupancy
C1     C     0.02756   0.26900   0.41854   0.00000  Uiso   1.00
C2     C     0.47244   0.23100   0.58146   0.00000  Uiso   1.00
C3     C     0.23100   0.47244   0.41854   0.00000  Uiso   1.00
C4     C     0.26900   0.02756   0.58146   0.00000  Uiso   1.00
C5     C     0.47244   0.23100   0.41854   0.00000  Uiso   1.00
C6     C     0.02756   0.26900   0.58146   0.00000  Uiso   1.00
C7     C     0.26900   0.02756   0.41854   0.00000  Uiso   1.00
C8     C     0.23100   0.47244   0.58146   0.00000  Uiso   1.00
C9     C     0.27755   0.01901   0.91854   0.00000  Uiso   1.00
C10    C     0.22245   0.48100   0.08146   0.00000  Uiso   1.00
C11    C     0.48100   0.22244   0.91854   0.00000  Uiso   1.00
C12    C     0.01900   0.27756   0.08146   0.00000  Uiso   1.00
C13    C     0.22245   0.48100   0.91854   0.00000  Uiso   1.00
C14    C     0.27755   0.01901   0.08146   0.00000  Uiso   1.00
C15    C     0.01900   0.27756   0.91854   0.00000  Uiso   1.00
C16    C     0.48100   0.22244   0.08146   0.00000  Uiso   1.00
C17    C    -0.00000   0.25000   0.39829   0.00000  Uiso   1.00
C18    C     0.00000   0.25000   0.60171   0.00000  Uiso   1.00
C19    C     0.25000   0.00000   0.39829   0.00000  Uiso   1.00
C20    C     0.25000  -0.00000   0.60171   0.00000  Uiso   1.00
C21    C     0.25000   0.00000   0.89829   0.00000  Uiso   1.00
C22    C     0.25000   0.00000   0.10171   0.00000  Uiso   1.00
C23    C    -0.00000   0.25000   0.89829   0.00000  Uiso   1.00
C24    C    -0.00000   0.25000   0.10171   0.00000  Uiso   1.00
C25    C     0.44350   0.21491   0.47986   0.00000  Uiso   1.00
C26    C     0.05650   0.28508   0.52014   0.00000  Uiso   1.00
C27    C     0.28508   0.05650   0.47986   0.00000  Uiso   1.00
C28    C     0.21491   0.44350   0.52014   0.00000  Uiso   1.00
C29    C     0.05650   0.28508   0.47986   0.00000  Uiso   1.00
C30    C     0.44350   0.21491   0.52014   0.00000  Uiso   1.00
C31    C     0.21491   0.44350   0.47986   0.00000  Uiso   1.00
C32    C     0.28508   0.05650   0.52014   0.00000  Uiso   1.00
C33    C     0.19351   0.46490   0.97986   0.00000  Uiso   1.00
C34    C     0.30648   0.03511   0.02014   0.00000  Uiso   1.00
C35    C     0.03509   0.30650   0.97986   0.00000  Uiso   1.00
C36    C     0.46491   0.19350   0.02014   0.00000  Uiso   1.00
C37    C     0.30648   0.03511   0.97986   0.00000  Uiso   1.00
C38    C     0.19351   0.46490   0.02014   0.00000  Uiso   1.00
C39    C     0.46491   0.19350   0.97986   0.00000  Uiso   1.00
C40    C     0.03509   0.30650   0.02014   0.00000  Uiso   1.00
C41    C     0.25000   0.00000   0.35589   0.00000  Uiso   1.00
C42    C     0.25000  -0.00000   0.64412   0.00000  Uiso   1.00
C43    C    -0.00000   0.25000   0.35589   0.00000  Uiso   1.00
C44    C     0.00000   0.25000   0.64412   0.00000  Uiso   1.00
C45    C    -0.00000   0.25000   0.85589   0.00000  Uiso   1.00
C46    C     0.00000   0.25000   0.14412   0.00000  Uiso   1.00
C47    C     0.25000   0.00000   0.85589   0.00000  Uiso   1.00
C48    C     0.25000  -0.00000   0.14412   0.00000  Uiso   1.00
C49    C     0.17994   0.07006   0.25000   0.00000  Uiso   1.00
C50    C     0.32006   0.42994   0.75000   0.00000  Uiso   1.00
C51    C     0.42995   0.17995   0.25000   0.00000  Uiso   1.00
C52    C     0.07005   0.32005   0.75000   0.00000  Uiso   1.00
C53    C     0.32006   0.42994   0.25000   0.00000  Uiso   1.00
C54    C     0.17994   0.07006   0.75000   0.00000  Uiso   1.00
C55    C     0.07005   0.32005   0.25000   0.00000  Uiso   1.00
C56    C     0.42995   0.17995   0.75000   0.00000  Uiso   1.00
C57    C     0.17995   0.42995   0.75000   0.00000  Uiso   1.00
C58    C     0.32005   0.07005   0.25000   0.00000  Uiso   1.00
C59    C     0.42994   0.32006   0.75000   0.00000  Uiso   1.00
C60    C     0.07006   0.17994   0.25000   0.00000  Uiso   1.00
C61    C     0.32005   0.07005   0.75000   0.00000  Uiso   1.00
C62    C     0.17995   0.42995   0.25000   0.00000  Uiso   1.00
C63    C     0.07006   0.17994   0.75000   0.00000  Uiso   1.00
C64    C     0.42994   0.32006   0.25000   0.00000  Uiso   1.00
C65    C     0.12092   0.40583   0.22651   0.00000  Uiso   1.00
C66    C     0.37908   0.09417   0.77349   0.00000  Uiso   1.00
C67    C     0.09514   0.12187   0.22496   0.00000  Uiso   1.00
C68    C     0.40486   0.37813   0.77505   0.00000  Uiso   1.00
C69    C     0.37909   0.09416   0.22653   0.00000  Uiso   1.00
C70    C     0.12091   0.40583   0.77348   0.00000  Uiso   1.00
C71    C     0.40486   0.37813   0.22496   0.00000  Uiso   1.00
C72    C     0.09514   0.12187   0.77505   0.00000  Uiso   1.00
C73    C     0.12187   0.09514   0.77505   0.00000  Uiso   1.00
C74    C     0.37813   0.40486   0.22496   0.00000  Uiso   1.00
C75    C     0.09417   0.37908   0.77348   0.00000  Uiso   1.00
C76    C     0.40584   0.12091   0.22653   0.00000  Uiso   1.00
C77    C     0.37812   0.40486   0.77505   0.00000  Uiso   1.00
C78    C     0.12187   0.09514   0.22496   0.00000  Uiso   1.00
C79    C     0.40583   0.12092   0.77349   0.00000  Uiso   1.00
C80    C     0.09417   0.37908   0.22651   0.00000  Uiso   1.00
C81    C     0.37092   0.15583   0.72651   0.00000  Uiso   1.00
C82    C     0.12908   0.34417   0.27349   0.00000  Uiso   1.00
C83    C     0.34514   0.37187   0.72496   0.00000  Uiso   1.00
C84    C     0.15486   0.12813   0.27505   0.00000  Uiso   1.00
C85    C     0.12908   0.34417   0.72652   0.00000  Uiso   1.00
C86    C     0.37091   0.15584   0.27347   0.00000  Uiso   1.00
C87    C     0.15486   0.12813   0.72496   0.00000  Uiso   1.00
C88    C     0.34514   0.37187   0.27505   0.00000  Uiso   1.00
C89    C     0.37187   0.34514   0.27505   0.00000  Uiso   1.00
C90    C     0.12813   0.15486   0.72496   0.00000  Uiso   1.00
C91    C     0.34416   0.12909   0.27347   0.00000  Uiso   1.00
C92    C     0.15583   0.37092   0.72652   0.00000  Uiso   1.00
C93    C     0.12812   0.15486   0.27505   0.00000  Uiso   1.00
C94    C     0.37187   0.34514   0.72496   0.00000  Uiso   1.00
C95    C     0.15583   0.37092   0.27349   0.00000  Uiso   1.00
C96    C     0.34417   0.12908   0.72651   0.00000  Uiso   1.00
C97    C     0.47177   0.23199   0.45920   0.00000  Uiso   1.00
C98    C     0.02823   0.26801   0.54080   0.00000  Uiso   1.00
C99    C     0.26801   0.02823   0.45920   0.00000  Uiso   1.00
C100   C     0.23199   0.47177   0.54080   0.00000  Uiso   1.00
C101   C     0.02823   0.26801   0.45920   0.00000  Uiso   1.00
C102   C     0.47177   0.23199   0.54080   0.00000  Uiso   1.00
C103   C     0.23199   0.47177   0.45920   0.00000  Uiso   1.00
C104   C     0.26801   0.02823   0.54080   0.00000  Uiso   1.00
C105   C     0.22177   0.48198   0.95920   0.00000  Uiso   1.00
C106   C     0.27822   0.01802   0.04080   0.00000  Uiso   1.00
C107   C     0.01801   0.27823   0.95920   0.00000  Uiso   1.00
C108   C     0.48199   0.22177   0.04080   0.00000  Uiso   1.00
C109   C     0.27822   0.01802   0.95920   0.00000  Uiso   1.00
C110   C     0.22177   0.48199   0.04080   0.00000  Uiso   1.00
C111   C     0.48199   0.22177   0.95920   0.00000  Uiso   1.00
C112   C     0.01801   0.27823   0.04080   0.00000  Uiso   1.00
C113   C     0.09812   0.34812   0.25000   0.00000  Uiso   1.00
C114   C     0.40187   0.15188   0.75000   0.00000  Uiso   1.00
C115   C     0.15187   0.09813   0.25000   0.00000  Uiso   1.00
C116   C     0.34813   0.40187   0.75000   0.00000  Uiso   1.00
C117   C     0.40188   0.15187   0.25000   0.00000  Uiso   1.00
C118   C     0.09812   0.34812   0.75000   0.00000  Uiso   1.00
C119   C     0.34813   0.40187   0.25000   0.00000  Uiso   1.00
C120   C     0.15187   0.09813   0.75000   0.00000  Uiso   1.00
C121   C     0.09813   0.15187   0.75000   0.00000  Uiso   1.00
C122   C     0.40187   0.34813   0.25000   0.00000  Uiso   1.00
C123   C     0.15187   0.40188   0.75000   0.00000  Uiso   1.00
C124   C     0.34812   0.09812   0.25000   0.00000  Uiso   1.00
C125   C     0.40187   0.34813   0.75000   0.00000  Uiso   1.00
C126   C     0.09813   0.15187   0.25000   0.00000  Uiso   1.00
C127   C     0.34812   0.09812   0.75000   0.00000  Uiso   1.00
C128   C     0.15188   0.40187   0.25000   0.00000  Uiso   1.00
C129   C     0.00000   0.25000   0.47956   0.00000  Uiso   1.00
C130   C     0.00000   0.25000   0.52044   0.00000  Uiso   1.00
C131   C     0.25000   0.00000   0.47956   0.00000  Uiso   1.00
C132   C     0.25000   0.00000   0.52044   0.00000  Uiso   1.00
C133   C     0.25000   0.00000   0.97956   0.00000  Uiso   1.00
C134   C     0.25000   0.00000   0.02044   0.00000  Uiso   1.00
C135   C    -0.00000   0.25000   0.97956   0.00000  Uiso   1.00
C136   C    -0.00000   0.25000   0.02044   0.00000  Uiso   1.00
H137   H     0.42128   0.20131   0.46498   0.00000  Uiso   1.00
H138   H     0.07872   0.29869   0.53502   0.00000  Uiso   1.00
H139   H     0.29869   0.07872   0.46498   0.00000  Uiso   1.00
H140   H     0.20130   0.42128   0.53502   0.00000  Uiso   1.00
H141   H     0.07872   0.29869   0.46498   0.00000  Uiso   1.00
H142   H     0.42128   0.20131   0.53502   0.00000  Uiso   1.00
H143   H     0.20130   0.42128   0.46498   0.00000  Uiso   1.00
H144   H     0.29869   0.07872   0.53502   0.00000  Uiso   1.00
H145   H     0.17130   0.45128   0.96498   0.00000  Uiso   1.00
H146   H     0.32870   0.04873   0.03502   0.00000  Uiso   1.00
H147   H     0.04869   0.32872   0.96498   0.00000  Uiso   1.00
H148   H     0.45130   0.17128   0.03502   0.00000  Uiso   1.00
H149   H     0.32870   0.04873   0.96498   0.00000  Uiso   1.00
H150   H     0.17129   0.45128   0.03502   0.00000  Uiso   1.00
H151   H     0.45130   0.17128   0.96498   0.00000  Uiso   1.00
H152   H     0.04869   0.32872   0.03502   0.00000  Uiso   1.00
H153   H     0.11729   0.42957   0.20821   0.00000  Uiso   1.00
H154   H     0.38271   0.07043   0.79180   0.00000  Uiso   1.00
H155   H     0.07220   0.11902   0.20537   0.00000  Uiso   1.00
H156   H     0.42780   0.38098   0.79463   0.00000  Uiso   1.00
H157   H     0.38273   0.07041   0.20824   0.00000  Uiso   1.00
H158   H     0.11728   0.42958   0.79179   0.00000  Uiso   1.00
H159   H     0.42780   0.38098   0.20537   0.00000  Uiso   1.00
H160   H     0.07220   0.11902   0.79463   0.00000  Uiso   1.00
H161   H     0.11902   0.07220   0.79463   0.00000  Uiso   1.00
H162   H     0.38098   0.42780   0.20537   0.00000  Uiso   1.00
H163   H     0.07042   0.38272   0.79179   0.00000  Uiso   1.00
H164   H     0.42959   0.11727   0.20823   0.00000  Uiso   1.00
H165   H     0.38098   0.42780   0.79463   0.00000  Uiso   1.00
H166   H     0.11902   0.07220   0.20537   0.00000  Uiso   1.00
H167   H     0.42957   0.11729   0.79180   0.00000  Uiso   1.00
H168   H     0.07043   0.38271   0.20821   0.00000  Uiso   1.00
H169   H     0.36729   0.17957   0.70820   0.00000  Uiso   1.00
H170   H     0.13271   0.32043   0.29179   0.00000  Uiso   1.00
H171   H     0.32220   0.36902   0.70537   0.00000  Uiso   1.00
H172   H     0.17780   0.13098   0.29463   0.00000  Uiso   1.00
H173   H     0.13271   0.32042   0.70821   0.00000  Uiso   1.00
H174   H     0.36728   0.17959   0.29177   0.00000  Uiso   1.00
H175   H     0.17780   0.13098   0.70537   0.00000  Uiso   1.00
H176   H     0.32220   0.36902   0.29463   0.00000  Uiso   1.00
H177   H     0.36902   0.32220   0.29463   0.00000  Uiso   1.00
H178   H     0.13098   0.17780   0.70537   0.00000  Uiso   1.00
H179   H     0.32041   0.13272   0.29177   0.00000  Uiso   1.00
H180   H     0.17958   0.36728   0.70821   0.00000  Uiso   1.00
H181   H     0.13098   0.17780   0.29463   0.00000  Uiso   1.00
H182   H     0.36902   0.32220   0.70537   0.00000  Uiso   1.00
H183   H     0.17957   0.36729   0.29179   0.00000  Uiso   1.00
H184   H     0.32043   0.13271   0.70820   0.00000  Uiso   1.00
O185   O     0.25000   0.00000   0.25000   0.00000  Uiso   1.00
O186   O     0.25000   0.00000   0.75000   0.00000  Uiso   1.00
O187   O     0.00000   0.25000   0.25000   0.00000  Uiso   1.00
O188   O     0.00000   0.25000   0.75000   0.00000  Uiso   1.00
O189   O     0.25000   0.46963   0.33755   0.00000  Uiso   1.00
O190   O     0.25000   0.03037   0.66245   0.00000  Uiso   1.00
O191   O     0.03036   0.25000   0.33755   0.00000  Uiso   1.00
O192   O     0.46963   0.25000   0.66245   0.00000  Uiso   1.00
O193   O     0.25000   0.03037   0.33755   0.00000  Uiso   1.00
O194   O     0.25000   0.46963   0.66245   0.00000  Uiso   1.00
O195   O     0.46963   0.25000   0.33755   0.00000  Uiso   1.00
O196   O     0.03036   0.25000   0.66245   0.00000  Uiso   1.00
O197   O     0.00000   0.21963   0.83755   0.00000  Uiso   1.00
O198   O     0.00000   0.28036   0.16245   0.00000  Uiso   1.00
O199   O     0.28036   0.00000   0.83755   0.00000  Uiso   1.00
O200   O     0.21963  -0.00000   0.16245   0.00000  Uiso   1.00
O201   O    -0.00000   0.28036   0.83755   0.00000  Uiso   1.00
O202   O    -0.00000   0.21963   0.16245   0.00000  Uiso   1.00
O203   O     0.21963   0.00000   0.83755   0.00000  Uiso   1.00
O204   O     0.28036  -0.00000   0.16245   0.00000  Uiso   1.00
O205   O     0.20724   0.07307   0.27302   0.00000  Uiso   1.00
O206   O     0.29275   0.42692   0.72698   0.00000  Uiso   1.00
O207   O     0.42692   0.20724   0.27302   0.00000  Uiso   1.00
O208   O     0.07307   0.29275   0.72698   0.00000  Uiso   1.00
O209   O     0.29275   0.42692   0.27302   0.00000  Uiso   1.00
O210   O     0.20724   0.07307   0.72698   0.00000  Uiso   1.00
O211   O     0.07307   0.29275   0.27302   0.00000  Uiso   1.00
O212   O     0.42692   0.20724   0.72698   0.00000  Uiso   1.00
O213   O     0.20724   0.42692   0.72698   0.00000  Uiso   1.00
O214   O     0.29275   0.07307   0.27302   0.00000  Uiso   1.00
O215   O     0.42692   0.29275   0.72698   0.00000  Uiso   1.00
O216   O     0.07307   0.20724   0.27302   0.00000  Uiso   1.00
O217   O     0.29275   0.07307   0.72698   0.00000  Uiso   1.00
O218   O     0.20724   0.42692   0.27302   0.00000  Uiso   1.00
O219   O     0.07307   0.20724   0.72698   0.00000  Uiso   1.00
O220   O     0.42692   0.29275   0.27302   0.00000  Uiso   1.00
O221   O     0.45724   0.32307   0.77302   0.00000  Uiso   1.00
O222   O     0.04275   0.17692   0.22698   0.00000  Uiso   1.00
O223   O     0.17692   0.45724   0.77302   0.00000  Uiso   1.00
O224   O     0.32307   0.04276   0.22698   0.00000  Uiso   1.00
O225   O     0.04275   0.17692   0.77302   0.00000  Uiso   1.00
O226   O     0.45724   0.32307   0.22698   0.00000  Uiso   1.00
O227   O     0.32307   0.04276   0.77302   0.00000  Uiso   1.00
O228   O     0.17692   0.45724   0.22698   0.00000  Uiso   1.00
O229   O     0.45724   0.17692   0.22698   0.00000  Uiso   1.00
O230   O     0.04275   0.32307   0.77302   0.00000  Uiso   1.00
O231   O     0.17692   0.04275   0.22698   0.00000  Uiso   1.00
O232   O     0.32307   0.45724   0.77302   0.00000  Uiso   1.00
O233   O     0.04275   0.32307   0.22698   0.00000  Uiso   1.00
O234   O     0.45724   0.17692   0.77302   0.00000  Uiso   1.00
O235   O     0.32307   0.45724   0.22698   0.00000  Uiso   1.00
O236   O     0.17692   0.04275   0.77302   0.00000  Uiso   1.00
Zn237  Zn    0.20659   0.00000   0.21735   0.00000  Uiso   1.00
Zn238  Zn    0.29340   0.00000   0.78265   0.00000  Uiso   1.00
Zn239  Zn    0.00000   0.20659   0.21735   0.00000  Uiso   1.00
Zn240  Zn   -0.00000   0.29340   0.78265   0.00000  Uiso   1.00
Zn241  Zn    0.29340   0.00000   0.21735   0.00000  Uiso   1.00
Zn242  Zn    0.20659   0.00000   0.78265   0.00000  Uiso   1.00
Zn243  Zn   -0.00000   0.29340   0.21735   0.00000  Uiso   1.00
Zn244  Zn    0.00000   0.20659   0.78265   0.00000  Uiso   1.00
Zn245  Zn    0.45659   0.25000   0.71735   0.00000  Uiso   1.00
Zn246  Zn    0.04340   0.25000   0.28265   0.00000  Uiso   1.00
Zn247  Zn    0.25000   0.45659   0.71735   0.00000  Uiso   1.00
Zn248  Zn    0.25000   0.04340   0.28265   0.00000  Uiso   1.00
Zn249  Zn    0.04340   0.25000   0.71735   0.00000  Uiso   1.00
Zn250  Zn    0.45659   0.25000   0.28265   0.00000  Uiso   1.00
Zn251  Zn    0.25000   0.04340   0.71735   0.00000  Uiso   1.00
Zn252  Zn    0.25000   0.45659   0.28265   0.00000  Uiso   1.00
O253   O     0.05462   0.28755   0.39850   0.00000  Uiso   1.00
C254   C     0.04280   0.32370   0.39185   0.00000  Uiso   1.00
H255   H     0.03678   0.33797   0.41967   0.00000  Uiso   1.00
H256   H     0.01796   0.32409   0.37322   0.00000  Uiso   1.00
C257   C     0.07286   0.34470   0.37109   0.00000  Uiso   1.00
H258   H     0.07918   0.33138   0.34299   0.00000  Uiso   1.00
H259   H     0.06386   0.37314   0.36551   0.00000  Uiso   1.00
H260   H     0.09790   0.34533   0.38923   0.00000  Uiso   1.00
O261   O     0.44538   0.21245   0.60150   0.00000  Uiso   1.00
C262   C     0.45720   0.17629   0.60815   0.00000  Uiso   1.00
H263   H     0.48204   0.17591   0.62678   0.00000  Uiso   1.00
H264   H     0.46322   0.16203   0.58033   0.00000  Uiso   1.00
C265   C     0.42714   0.15530   0.62891   0.00000  Uiso   1.00
H266   H     0.40210   0.15466   0.61077   0.00000  Uiso   1.00
H267   H     0.43614   0.12686   0.63450   0.00000  Uiso   1.00
H268   H     0.42081   0.16862   0.65701   0.00000  Uiso   1.00
O269   O     0.21245   0.44538   0.39850   0.00000  Uiso   1.00
C270   C     0.17629   0.45720   0.39185   0.00000  Uiso   1.00
H271   H     0.17591   0.48203   0.37321   0.00000  Uiso   1.00
H272   H     0.16203   0.46323   0.41966   0.00000  Uiso   1.00
C273   C     0.15530   0.42714   0.37110   0.00000  Uiso   1.00
H274   H     0.15466   0.40210   0.38925   0.00000  Uiso   1.00
H275   H     0.12686   0.43614   0.36550   0.00000  Uiso   1.00
H276   H     0.16862   0.42080   0.34300   0.00000  Uiso   1.00
O277   O     0.28755   0.05462   0.60150   0.00000  Uiso   1.00
C278   C     0.32370   0.04280   0.60815   0.00000  Uiso   1.00
H279   H     0.33797   0.03677   0.58034   0.00000  Uiso   1.00
H280   H     0.32409   0.01797   0.62679   0.00000  Uiso   1.00
C281   C     0.34470   0.07286   0.62890   0.00000  Uiso   1.00
H282   H     0.33138   0.07920   0.65701   0.00000  Uiso   1.00
H283   H     0.37314   0.06386   0.63449   0.00000  Uiso   1.00
H284   H     0.34534   0.09790   0.61076   0.00000  Uiso   1.00
O285   O     0.44537   0.21245   0.39850   0.00000  Uiso   1.00
C286   C     0.45720   0.17630   0.39184   0.00000  Uiso   1.00
H287   H     0.46324   0.16203   0.41965   0.00000  Uiso   1.00
H288   H     0.48202   0.17591   0.37320   0.00000  Uiso   1.00
C289   C     0.42713   0.15531   0.37110   0.00000  Uiso   1.00
H290   H     0.42078   0.16862   0.34300   0.00000  Uiso   1.00
H291   H     0.43613   0.12686   0.36550   0.00000  Uiso   1.00
H292   H     0.40210   0.15466   0.38926   0.00000  Uiso   1.00
O293   O     0.05462   0.28755   0.60150   0.00000  Uiso   1.00
C294   C     0.04280   0.32370   0.60815   0.00000  Uiso   1.00
H295   H     0.01797   0.32409   0.62679   0.00000  Uiso   1.00
H296   H     0.03677   0.33797   0.58034   0.00000  Uiso   1.00
C297   C     0.07286   0.34469   0.62891   0.00000  Uiso   1.00
H298   H     0.09790   0.34534   0.61076   0.00000  Uiso   1.00
H299   H     0.06386   0.37314   0.63450   0.00000  Uiso   1.00
H300   H     0.07919   0.33138   0.65701   0.00000  Uiso   1.00
O301   O     0.28755   0.05462   0.39850   0.00000  Uiso   1.00
C302   C     0.32370   0.04280   0.39185   0.00000  Uiso   1.00
H303   H     0.32409   0.01797   0.37322   0.00000  Uiso   1.00
H304   H     0.33797   0.03678   0.41967   0.00000  Uiso   1.00
C305   C     0.34469   0.07286   0.37109   0.00000  Uiso   1.00
H306   H     0.34532   0.09790   0.38923   0.00000  Uiso   1.00
H307   H     0.37314   0.06387   0.36551   0.00000  Uiso   1.00
H308   H     0.33138   0.07919   0.34299   0.00000  Uiso   1.00
O309   O     0.21245   0.44537   0.60150   0.00000  Uiso   1.00
C310   C     0.17630   0.45720   0.60816   0.00000  Uiso   1.00
H311   H     0.16203   0.46324   0.58035   0.00000  Uiso   1.00
H312   H     0.17592   0.48202   0.62681   0.00000  Uiso   1.00
C313   C     0.15530   0.42713   0.62890   0.00000  Uiso   1.00
H314   H     0.16862   0.42077   0.65699   0.00000  Uiso   1.00
H315   H     0.12686   0.43613   0.63451   0.00000  Uiso   1.00
H316   H     0.15465   0.40211   0.61073   0.00000  Uiso   1.00
O317   O     0.30461   0.03757   0.89850   0.00000  Uiso   1.00
C318   C     0.29277   0.07372   0.89184   0.00000  Uiso   1.00
H319   H     0.28674   0.08798   0.91965   0.00000  Uiso   1.00
H320   H     0.26794   0.07409   0.87320   0.00000  Uiso   1.00
C321   C     0.32283   0.09472   0.87109   0.00000  Uiso   1.00
H322   H     0.32918   0.08140   0.84299   0.00000  Uiso   1.00
H323   H     0.31382   0.12316   0.86549   0.00000  Uiso   1.00
H324   H     0.34786   0.09537   0.88924   0.00000  Uiso   1.00
O325   O     0.19538   0.46244   0.10150   0.00000  Uiso   1.00
C326   C     0.20722   0.42629   0.10815   0.00000  Uiso   1.00
H327   H     0.23205   0.42591   0.12679   0.00000  Uiso   1.00
H328   H     0.21325   0.41202   0.08034   0.00000  Uiso   1.00
C329   C     0.17716   0.40529   0.12891   0.00000  Uiso   1.00
H330   H     0.15212   0.40464   0.11076   0.00000  Uiso   1.00
H331   H     0.18617   0.37685   0.13450   0.00000  Uiso   1.00
H332   H     0.17082   0.41861   0.15701   0.00000  Uiso   1.00
O333   O     0.46244   0.19538   0.89850   0.00000  Uiso   1.00
C334   C     0.42629   0.20721   0.89185   0.00000  Uiso   1.00
H335   H     0.42591   0.23203   0.87321   0.00000  Uiso   1.00
H336   H     0.41203   0.21324   0.91966   0.00000  Uiso   1.00
C337   C     0.40530   0.17714   0.87109   0.00000  Uiso   1.00
H338   H     0.40465   0.15211   0.88925   0.00000  Uiso   1.00
H339   H     0.37686   0.18615   0.86550   0.00000  Uiso   1.00
H340   H     0.41862   0.17080   0.84300   0.00000  Uiso   1.00
O341   O     0.03755   0.30462   0.10150   0.00000  Uiso   1.00
C342   C     0.07370   0.29280   0.10815   0.00000  Uiso   1.00
H343   H     0.08797   0.28677   0.08034   0.00000  Uiso   1.00
H344   H     0.07409   0.26796   0.12678   0.00000  Uiso   1.00
C345   C     0.09470   0.32286   0.12891   0.00000  Uiso   1.00
H346   H     0.08138   0.32919   0.15701   0.00000  Uiso   1.00
H347   H     0.12314   0.31385   0.13450   0.00000  Uiso   1.00
H348   H     0.09534   0.34790   0.11076   0.00000  Uiso   1.00
O349   O     0.19538   0.46244   0.89850   0.00000  Uiso   1.00
C350   C     0.20722   0.42630   0.89182   0.00000  Uiso   1.00
H351   H     0.21331   0.41203   0.91962   0.00000  Uiso   1.00
H352   H     0.23202   0.42593   0.87314   0.00000  Uiso   1.00
C353   C     0.17713   0.40529   0.87112   0.00000  Uiso   1.00
H354   H     0.17071   0.41862   0.84305   0.00000  Uiso   1.00
H355   H     0.18616   0.37686   0.86548   0.00000  Uiso   1.00
H356   H     0.15214   0.40460   0.88934   0.00000  Uiso   1.00
O357   O     0.30462   0.03756   0.10150   0.00000  Uiso   1.00
C358   C     0.29279   0.07370   0.10819   0.00000  Uiso   1.00
H359   H     0.26801   0.07405   0.12691   0.00000  Uiso   1.00
H360   H     0.28668   0.08797   0.08041   0.00000  Uiso   1.00
C361   C     0.32289   0.09470   0.12887   0.00000  Uiso   1.00
H362   H     0.34786   0.09542   0.11062   0.00000  Uiso   1.00
H363   H     0.31386   0.12312   0.13455   0.00000  Uiso   1.00
H364   H     0.32935   0.08135   0.15692   0.00000  Uiso   1.00
O365   O     0.03755   0.30462   0.89850   0.00000  Uiso   1.00
C366   C     0.07370   0.29280   0.89185   0.00000  Uiso   1.00
H367   H     0.07409   0.26797   0.87321   0.00000  Uiso   1.00
H368   H     0.08797   0.28677   0.91966   0.00000  Uiso   1.00
C369   C     0.09470   0.32286   0.87110   0.00000  Uiso   1.00
H370   H     0.09534   0.34789   0.88925   0.00000  Uiso   1.00
H371   H     0.12314   0.31386   0.86550   0.00000  Uiso   1.00
H372   H     0.08138   0.32920   0.84300   0.00000  Uiso   1.00
O373   O     0.46245   0.19537   0.10150   0.00000  Uiso   1.00
C374   C     0.42630   0.20720   0.10816   0.00000  Uiso   1.00
H375   H     0.41203   0.21323   0.08035   0.00000  Uiso   1.00
H376   H     0.42592   0.23203   0.12680   0.00000  Uiso   1.00
C377   C     0.40531   0.17714   0.12891   0.00000  Uiso   1.00
H378   H     0.41863   0.17078   0.15700   0.00000  Uiso   1.00
H379   H     0.37687   0.18614   0.13452   0.00000  Uiso   1.00
H380   H     0.40465   0.15211   0.11075   0.00000  Uiso   1.00
C381   C     0.52756   0.26900   0.41854   0.00000  Uiso   1.00
C382   C     0.97244   0.23100   0.58146   0.00000  Uiso   1.00
C383   C     0.73100   0.47244   0.41854   0.00000  Uiso   1.00
C384   C     0.76900   0.02756   0.58146   0.00000  Uiso   1.00
C385   C     0.97244   0.23100   0.41854   0.00000  Uiso   1.00
C386   C     0.52756   0.26900   0.58146   0.00000  Uiso   1.00
C387   C     0.76900   0.02756   0.41854   0.00000  Uiso   1.00
C388   C     0.73100   0.47244   0.58146   0.00000  Uiso   1.00
C389   C     0.77755   0.01901   0.91854   0.00000  Uiso   1.00
C390   C     0.72245   0.48100   0.08146   0.00000  Uiso   1.00
C391   C     0.98100   0.22244   0.91854   0.00000  Uiso   1.00
C392   C     0.51900   0.27756   0.08146   0.00000  Uiso   1.00
C393   C     0.72245   0.48100   0.91854   0.00000  Uiso   1.00
C394   C     0.77755   0.01901   0.08146   0.00000  Uiso   1.00
C395   C     0.51900   0.27756   0.91854   0.00000  Uiso   1.00
C396   C     0.98100   0.22244   0.08146   0.00000  Uiso   1.00
C397   C     0.50000   0.25000   0.39829   0.00000  Uiso   1.00
C398   C     0.50000   0.25000   0.60171   0.00000  Uiso   1.00
C399   C     0.75000   0.00000   0.39829   0.00000  Uiso   1.00
C400   C     0.75000  -0.00000   0.60171   0.00000  Uiso   1.00
C401   C     0.75000   0.00000   0.89829   0.00000  Uiso   1.00
C402   C     0.75000   0.00000   0.10171   0.00000  Uiso   1.00
C403   C     0.50000   0.25000   0.89829   0.00000  Uiso   1.00
C404   C     0.50000   0.25000   0.10171   0.00000  Uiso   1.00
C405   C     0.94350   0.21491   0.47986   0.00000  Uiso   1.00
C406   C     0.55650   0.28508   0.52014   0.00000  Uiso   1.00
C407   C     0.78508   0.05650   0.47986   0.00000  Uiso   1.00
C408   C     0.71491   0.44350   0.52014   0.00000  Uiso   1.00
C409   C     0.55650   0.28508   0.47986   0.00000  Uiso   1.00
C410   C     0.94350   0.21491   0.52014   0.00000  Uiso   1.00
C411   C     0.71491   0.44350   0.47986   0.00000  Uiso   1.00
C412   C     0.78508   0.05650   0.52014   0.00000  Uiso   1.00
C413   C     0.69351   0.46490   0.97986   0.00000  Uiso   1.00
C414   C     0.80648   0.03511   0.02014   0.00000  Uiso   1.00
C415   C     0.53509   0.30650   0.97986   0.00000  Uiso   1.00
C416   C     0.96491   0.19350   0.02014   0.00000  Uiso   1.00
C417   C     0.80648   0.03511   0.97986   0.00000  Uiso   1.00
C418   C     0.69351   0.46490   0.02014   0.00000  Uiso   1.00
C419   C     0.96491   0.19350   0.97986   0.00000  Uiso   1.00
C420   C     0.53509   0.30650   0.02014   0.00000  Uiso   1.00
C421   C     0.75000   0.00000   0.35589   0.00000  Uiso   1.00
C422   C     0.75000  -0.00000   0.64412   0.00000  Uiso   1.00
C423   C     0.50000   0.25000   0.35589   0.00000  Uiso   1.00
C424   C     0.50000   0.25000   0.64412   0.00000  Uiso   1.00
C425   C     0.50000   0.25000   0.85589   0.00000  Uiso   1.00
C426   C     0.50000   0.25000   0.14412   0.00000  Uiso   1.00
C427   C     0.75000   0.00000   0.85589   0.00000  Uiso   1.00
C428   C     0.75000  -0.00000   0.14412   0.00000  Uiso   1.00
C429   C     0.67994   0.07006   0.25000   0.00000  Uiso   1.00
C430   C     0.82006   0.42994   0.75000   0.00000  Uiso   1.00
C431   C     0.92995   0.17995   0.25000   0.00000  Uiso   1.00
C432   C     0.57005   0.32005   0.75000   0.00000  Uiso   1.00
C433   C     0.82006   0.42994   0.25000   0.00000  Uiso   1.00
C434   C     0.67994   0.07006   0.75000   0.00000  Uiso   1.00
C435   C     0.57005   0.32005   0.25000   0.00000  Uiso   1.00
C436   C     0.92995   0.17995   0.75000   0.00000  Uiso   1.00
C437   C     0.67995   0.42995   0.75000   0.00000  Uiso   1.00
C438   C     0.82005   0.07005   0.25000   0.00000  Uiso   1.00
C439   C     0.92994   0.32006   0.75000   0.00000  Uiso   1.00
C440   C     0.57006   0.17994   0.25000   0.00000  Uiso   1.00
C441   C     0.82005   0.07005   0.75000   0.00000  Uiso   1.00
C442   C     0.67995   0.42995   0.25000   0.00000  Uiso   1.00
C443   C     0.57006   0.17994   0.75000   0.00000  Uiso   1.00
C444   C     0.92994   0.32006   0.25000   0.00000  Uiso   1.00
C445   C     0.62092   0.40583   0.22651   0.00000  Uiso   1.00
C446   C     0.87908   0.09417   0.77349   0.00000  Uiso   1.00
C447   C     0.59514   0.12187   0.22496   0.00000  Uiso   1.00
C448   C     0.90486   0.37813   0.77505   0.00000  Uiso   1.00
C449   C     0.87909   0.09416   0.22653   0.00000  Uiso   1.00
C450   C     0.62091   0.40583   0.77348   0.00000  Uiso   1.00
C451   C     0.90486   0.37813   0.22496   0.00000  Uiso   1.00
C452   C     0.59514   0.12187   0.77505   0.00000  Uiso   1.00
C453   C     0.62187   0.09514   0.77505   0.00000  Uiso   1.00
C454   C     0.87813   0.40486   0.22496   0.00000  Uiso   1.00
C455   C     0.59417   0.37908   0.77348   0.00000  Uiso   1.00
C456   C     0.90584   0.12091   0.22653   0.00000  Uiso   1.00
C457   C     0.87812   0.40486   0.77505   0.00000  Uiso   1.00
C458   C     0.62187   0.09514   0.22496   0.00000  Uiso   1.00
C459   C     0.90583   0.12092   0.77349   0.00000  Uiso   1.00
C460   C     0.59417   0.37908   0.22651   0.00000  Uiso   1.00
C461   C     0.87092   0.15583   0.72651   0.00000  Uiso   1.00
C462   C     0.62908   0.34417   0.27349   0.00000  Uiso   1.00
C463   C     0.84514   0.37187   0.72496   0.00000  Uiso   1.00
C464   C     0.65486   0.12813   0.27505   0.00000  Uiso   1.00
C465   C     0.62908   0.34417   0.72652   0.00000  Uiso   1.00
C466   C     0.87091   0.15584   0.27347   0.00000  Uiso   1.00
C467   C     0.65486   0.12813   0.72496   0.00000  Uiso   1.00
C468   C     0.84514   0.37187   0.27505   0.00000  Uiso   1.00
C469   C     0.87187   0.34514   0.27505   0.00000  Uiso   1.00
C470   C     0.62813   0.15486   0.72496   0.00000  Uiso   1.00
C471   C     0.84416   0.12909   0.27347   0.00000  Uiso   1.00
C472   C     0.65583   0.37092   0.72652   0.00000  Uiso   1.00
C473   C     0.62812   0.15486   0.27505   0.00000  Uiso   1.00
C474   C     0.87187   0.34514   0.72496   0.00000  Uiso   1.00
C475   C     0.65583   0.37092   0.27349   0.00000  Uiso   1.00
C476   C     0.84417   0.12908   0.72651   0.00000  Uiso   1.00
C477   C     0.97177   0.23199   0.45920   0.00000  Uiso   1.00
C478   C     0.52823   0.26801   0.54080   0.00000  Uiso   1.00
C479   C     0.76801   0.02823   0.45920   0.00000  Uiso   1.00
C480   C     0.73199   0.47177   0.54080   0.00000  Uiso   1.00
C481   C     0.52823   0.26801   0.45920   0.00000  Uiso   1.00
C482   C     0.97177   0.23199   0.54080   0.00000  Uiso   1.00
C483   C     0.73199   0.47177   0.45920   0.00000  Uiso   1.00
C484   C     0.76801   0.02823   0.54080   0.00000  Uiso   1.00
C485   C     0.72177   0.48198   0.95920   0.00000  Uiso   1.00
C486   C     0.77822   0.01802   0.04080   0.00000  Uiso   1.00
C487   C     0.51801   0.27823   0.95920   0.00000  Uiso   1.00
C488   C     0.98199   0.22177   0.04080   0.00000  Uiso   1.00
C489   C     0.77822   0.01802   0.95920   0.00000  Uiso   1.00
C490   C     0.72177   0.48199   0.04080   0.00000  Uiso   1.00
C491   C     0.98199   0.22177   0.95920   0.00000  Uiso   1.00
C492   C     0.51801   0.27823   0.04080   0.00000  Uiso   1.00
C493   C     0.59812   0.34812   0.25000   0.00000  Uiso   1.00
C494   C     0.90187   0.15188   0.75000   0.00000  Uiso   1.00
C495   C     0.65187   0.09813   0.25000   0.00000  Uiso   1.00
C496   C     0.84813   0.40187   0.75000   0.00000  Uiso   1.00
C497   C     0.90188   0.15187   0.25000   0.00000  Uiso   1.00
C498   C     0.59812   0.34812   0.75000   0.00000  Uiso   1.00
C499   C     0.84813   0.40187   0.25000   0.00000  Uiso   1.00
C500   C     0.65187   0.09813   0.75000   0.00000  Uiso   1.00
C501   C     0.59813   0.15187   0.75000   0.00000  Uiso   1.00
C502   C     0.90187   0.34813   0.25000   0.00000  Uiso   1.00
C503   C     0.65187   0.40188   0.75000   0.00000  Uiso   1.00
C504   C     0.84812   0.09812   0.25000   0.00000  Uiso   1.00
C505   C     0.90187   0.34813   0.75000   0.00000  Uiso   1.00
C506   C     0.59813   0.15187   0.25000   0.00000  Uiso   1.00
C507   C     0.84812   0.09812   0.75000   0.00000  Uiso   1.00
C508   C     0.65188   0.40187   0.25000   0.00000  Uiso   1.00
C509   C     0.50000   0.25000   0.47956   0.00000  Uiso   1.00
C510   C     0.50000   0.25000   0.52044   0.00000  Uiso   1.00
C511   C     0.75000   0.00000   0.47956   0.00000  Uiso   1.00
C512   C     0.75000   0.00000   0.52044   0.00000  Uiso   1.00
C513   C     0.75000   0.00000   0.97956   0.00000  Uiso   1.00
C514   C     0.75000   0.00000   0.02044   0.00000  Uiso   1.00
C515   C     0.50000   0.25000   0.97956   0.00000  Uiso   1.00
C516   C     0.50000   0.25000   0.02044   0.00000  Uiso   1.00
H517   H     0.92128   0.20131   0.46498   0.00000  Uiso   1.00
H518   H     0.57872   0.29869   0.53502   0.00000  Uiso   1.00
H519   H     0.79869   0.07872   0.46498   0.00000  Uiso   1.00
H520   H     0.70130   0.42128   0.53502   0.00000  Uiso   1.00
H521   H     0.57872   0.29869   0.46498   0.00000  Uiso   1.00
H522   H     0.92128   0.20131   0.53502   0.00000  Uiso   1.00
H523   H     0.70130   0.42128   0.46498   0.00000  Uiso   1.00
H524   H     0.79869   0.07872   0.53502   0.00000  Uiso   1.00
H525   H     0.67130   0.45128   0.96498   0.00000  Uiso   1.00
H526   H     0.82870   0.04873   0.03502   0.00000  Uiso   1.00
H527   H     0.54869   0.32872   0.96498   0.00000  Uiso   1.00
H528   H     0.95130   0.17128   0.03502   0.00000  Uiso   1.00
H529   H     0.82870   0.04873   0.96498   0.00000  Uiso   1.00
H530   H     0.67129   0.45128   0.03502   0.00000  Uiso   1.00
H531   H     0.95130   0.17128   0.96498   0.00000  Uiso   1.00
H532   H     0.54869   0.32872   0.03502   0.00000  Uiso   1.00
H533   H     0.61729   0.42957   0.20821   0.00000  Uiso   1.00
H534   H     0.88271   0.07043   0.79180   0.00000  Uiso   1.00
H535   H     0.57220   0.11902   0.20537   0.00000  Uiso   1.00
H536   H     0.92780   0.38098   0.79463   0.00000  Uiso   1.00
H537   H     0.88273   0.07041   0.20824   0.00000  Uiso   1.00
H538   H     0.61728   0.42958   0.79179   0.00000  Uiso   1.00
H539   H     0.92780   0.38098   0.20537   0.00000  Uiso   1.00
H540   H     0.57220   0.11902   0.79463   0.00000  Uiso   1.00
H541   H     0.61902   0.07220   0.79463   0.00000  Uiso   1.00
H542   H     0.88098   0.42780   0.20537   0.00000  Uiso   1.00
H543   H     0.57042   0.38272   0.79179   0.00000  Uiso   1.00
H544   H     0.92959   0.11727   0.20823   0.00000  Uiso   1.00
H545   H     0.88098   0.42780   0.79463   0.00000  Uiso   1.00
H546   H     0.61902   0.07220   0.20537   0.00000  Uiso   1.00
H547   H     0.92957   0.11729   0.79180   0.00000  Uiso   1.00
H548   H     0.57043   0.38271   0.20821   0.00000  Uiso   1.00
H549   H     0.86729   0.17957   0.70820   0.00000  Uiso   1.00
H550   H     0.63271   0.32043   0.29179   0.00000  Uiso   1.00
H551   H     0.82220   0.36902   0.70537   0.00000  Uiso   1.00
H552   H     0.67780   0.13098   0.29463   0.00000  Uiso   1.00
H553   H     0.63271   0.32042   0.70821   0.00000  Uiso   1.00
H554   H     0.86728   0.17959   0.29177   0.00000  Uiso   1.00
H555   H     0.67780   0.13098   0.70537   0.00000  Uiso   1.00
H556   H     0.82220   0.36902   0.29463   0.00000  Uiso   1.00
H557   H     0.86902   0.32220   0.29463   0.00000  Uiso   1.00
H558   H     0.63098   0.17780   0.70537   0.00000  Uiso   1.00
H559   H     0.82041   0.13272   0.29177   0.00000  Uiso   1.00
H560   H     0.67958   0.36728   0.70821   0.00000  Uiso   1.00
H561   H     0.63098   0.17780   0.29463   0.00000  Uiso   1.00
H562   H     0.86902   0.32220   0.70537   0.00000  Uiso   1.00
H563   H     0.67957   0.36729   0.29179   0.00000  Uiso   1.00
H564   H     0.82043   0.13271   0.70820   0.00000  Uiso   1.00
O565   O     0.75000   0.00000   0.25000   0.00000  Uiso   1.00
O566   O     0.75000   0.00000   0.75000   0.00000  Uiso   1.00
O567   O     0.50000   0.25000   0.25000   0.00000  Uiso   1.00
O568   O     0.50000   0.25000   0.75000   0.00000  Uiso   1.00
O569   O     0.75000   0.46963   0.33755   0.00000  Uiso   1.00
O570   O     0.75000   0.03037   0.66245   0.00000  Uiso   1.00
O571   O     0.53036   0.25000   0.33755   0.00000  Uiso   1.00
O572   O     0.96963   0.25000   0.66245   0.00000  Uiso   1.00
O573   O     0.75000   0.03037   0.33755   0.00000  Uiso   1.00
O574   O     0.75000   0.46963   0.66245   0.00000  Uiso   1.00
O575   O     0.96963   0.25000   0.33755   0.00000  Uiso   1.00
O576   O     0.53036   0.25000   0.66245   0.00000  Uiso   1.00
O577   O     0.50000   0.21963   0.83755   0.00000  Uiso   1.00
O578   O     0.50000   0.28036   0.16245   0.00000  Uiso   1.00
O579   O     0.78036   0.00000   0.83755   0.00000  Uiso   1.00
O580   O     0.71963  -0.00000   0.16245   0.00000  Uiso   1.00
O581   O     0.50000   0.28036   0.83755   0.00000  Uiso   1.00
O582   O     0.50000   0.21963   0.16245   0.00000  Uiso   1.00
O583   O     0.71963   0.00000   0.83755   0.00000  Uiso   1.00
O584   O     0.78036  -0.00000   0.16245   0.00000  Uiso   1.00
O585   O     0.70724   0.07307   0.27302   0.00000  Uiso   1.00
O586   O     0.79275   0.42692   0.72698   0.00000  Uiso   1.00
O587   O     0.92692   0.20724   0.27302   0.00000  Uiso   1.00
O588   O     0.57307   0.29275   0.72698   0.00000  Uiso   1.00
O589   O     0.79275   0.42692   0.27302   0.00000  Uiso   1.00
O590   O     0.70724   0.07307   0.72698   0.00000  Uiso   1.00
O591   O     0.57307   0.29275   0.27302   0.00000  Uiso   1.00
O592   O     0.92692   0.20724   0.72698   0.00000  Uiso   1.00
O593   O     0.70724   0.42692   0.72698   0.00000  Uiso   1.00
O594   O     0.79275   0.07307   0.27302   0.00000  Uiso   1.00
O595   O     0.92692   0.29275   0.72698   0.00000  Uiso   1.00
O596   O     0.57307   0.20724   0.27302   0.00000  Uiso   1.00
O597   O     0.79275   0.07307   0.72698   0.00000  Uiso   1.00
O598   O     0.70724   0.42692   0.27302   0.00000  Uiso   1.00
O599   O     0.57307   0.20724   0.72698   0.00000  Uiso   1.00
O600   O     0.92692   0.29275   0.27302   0.00000  Uiso   1.00
O601   O     0.95724   0.32307   0.77302   0.00000  Uiso   1.00
O602   O     0.54275   0.17692   0.22698   0.00000  Uiso   1.00
O603   O     0.67692   0.45724   0.77302   0.00000  Uiso   1.00
O604   O     0.82307   0.04276   0.22698   0.00000  Uiso   1.00
O605   O     0.54275   0.17692   0.77302   0.00000  Uiso   1.00
O606   O     0.95724   0.32307   0.22698   0.00000  Uiso   1.00
O607   O     0.82307   0.04276   0.77302   0.00000  Uiso   1.00
O608   O     0.67692   0.45724   0.22698   0.00000  Uiso   1.00
O609   O     0.95724   0.17692   0.22698   0.00000  Uiso   1.00
O610   O     0.54275   0.32307   0.77302   0.00000  Uiso   1.00
O611   O     0.67692   0.04275   0.22698   0.00000  Uiso   1.00
O612   O     0.82307   0.45724   0.77302   0.00000  Uiso   1.00
O613   O     0.54275   0.32307   0.22698   0.00000  Uiso   1.00
O614   O     0.95724   0.17692   0.77302   0.00000  Uiso   1.00
O615   O     0.82307   0.45724   0.22698   0.00000  Uiso   1.00
O616   O     0.67692   0.04275   0.77302   0.00000  Uiso   1.00
Zn617  Zn    0.70659   0.00000   0.21735   0.00000  Uiso   1.00
Zn618  Zn    0.79340   0.00000   0.78265   0.00000  Uiso   1.00
Zn619  Zn    0.50000   0.20659   0.21735   0.00000  Uiso   1.00
Zn620  Zn    0.50000   0.29340   0.78265   0.00000  Uiso   1.00
Zn621  Zn    0.79340   0.00000   0.21735   0.00000  Uiso   1.00
Zn622  Zn    0.70659   0.00000   0.78265   0.00000  Uiso   1.00
Zn623  Zn    0.50000   0.29340   0.21735   0.00000  Uiso   1.00
Zn624  Zn    0.50000   0.20659   0.78265   0.00000  Uiso   1.00
Zn625  Zn    0.95659   0.25000   0.71735   0.00000  Uiso   1.00
Zn626  Zn    0.54340   0.25000   0.28265   0.00000  Uiso   1.00
Zn627  Zn    0.75000   0.45659   0.71735   0.00000  Uiso   1.00
Zn628  Zn    0.75000   0.04340   0.28265   0.00000  Uiso   1.00
Zn629  Zn    0.54340   0.25000   0.71735   0.00000  Uiso   1.00
Zn630  Zn    0.95659   0.25000   0.28265   0.00000  Uiso   1.00
Zn631  Zn    0.75000   0.04340   0.71735   0.00000  Uiso   1.00
Zn632  Zn    0.75000   0.45659   0.28265   0.00000  Uiso   1.00
O633   O     0.55462   0.28755   0.39850   0.00000  Uiso   1.00
C634   C     0.54280   0.32370   0.39185   0.00000  Uiso   1.00
H635   H     0.53678   0.33797   0.41967   0.00000  Uiso   1.00
H636   H     0.51796   0.32409   0.37322   0.00000  Uiso   1.00
C637   C     0.57286   0.34470   0.37109   0.00000  Uiso   1.00
H638   H     0.57918   0.33138   0.34299   0.00000  Uiso   1.00
H639   H     0.56386   0.37314   0.36551   0.00000  Uiso   1.00
H640   H     0.59790   0.34533   0.38923   0.00000  Uiso   1.00
O641   O     0.94538   0.21245   0.60150   0.00000  Uiso   1.00
C642   C     0.95720   0.17629   0.60815   0.00000  Uiso   1.00
H643   H     0.98204   0.17591   0.62678   0.00000  Uiso   1.00
H644   H     0.96322   0.16203   0.58033   0.00000  Uiso   1.00
C645   C     0.92714   0.15530   0.62891   0.00000  Uiso   1.00
H646   H     0.90210   0.15466   0.61077   0.00000  Uiso   1.00
H647   H     0.93614   0.12686   0.63450   0.00000  Uiso   1.00
H648   H     0.92081   0.16862   0.65701   0.00000  Uiso   1.00
O649   O     0.71245   0.44538   0.39850   0.00000  Uiso   1.00
C650   C     0.67629   0.45720   0.39185   0.00000  Uiso   1.00
H651   H     0.67591   0.48203   0.37321   0.00000  Uiso   1.00
H652   H     0.66203   0.46323   0.41966   0.00000  Uiso   1.00
C653   C     0.65530   0.42714   0.37110   0.00000  Uiso   1.00
H654   H     0.65466   0.40210   0.38925   0.00000  Uiso   1.00
H655   H     0.62686   0.43614   0.36550   0.00000  Uiso   1.00
H656   H     0.66862   0.42080   0.34300   0.00000  Uiso   1.00
O657   O     0.78755   0.05462   0.60150   0.00000  Uiso   1.00
C658   C     0.82370   0.04280   0.60815   0.00000  Uiso   1.00
H659   H     0.83797   0.03677   0.58034   0.00000  Uiso   1.00
H660   H     0.82409   0.01797   0.62679   0.00000  Uiso   1.00
C661   C     0.84470   0.07286   0.62890   0.00000  Uiso   1.00
H662   H     0.83138   0.07920   0.65701   0.00000  Uiso   1.00
H663   H     0.87314   0.06386   0.63449   0.00000  Uiso   1.00
H664   H     0.84534   0.09790   0.61076   0.00000  Uiso   1.00
O665   O     0.94537   0.21245   0.39850   0.00000  Uiso   1.00
C666   C     0.95720   0.17630   0.39184   0.00000  Uiso   1.00
H667   H     0.96324   0.16203   0.41965   0.00000  Uiso   1.00
H668   H     0.98202   0.17591   0.37320   0.00000  Uiso   1.00
C669   C     0.92713   0.15531   0.37110   0.00000  Uiso   1.00
H670   H     0.92078   0.16862   0.34300   0.00000  Uiso   1.00
H671   H     0.93613   0.12686   0.36550   0.00000  Uiso   1.00
H672   H     0.90210   0.15466   0.38926   0.00000  Uiso   1.00
O673   O     0.55462   0.28755   0.60150   0.00000  Uiso   1.00
C674   C     0.54280   0.32370   0.60815   0.00000  Uiso   1.00
H675   H     0.51797   0.32409   0.62679   0.00000  Uiso   1.00
H676   H     0.53677   0.33797   0.58034   0.00000  Uiso   1.00
C677   C     0.57286   0.34469   0.62891   0.00000  Uiso   1.00
H678   H     0.59790   0.34534   0.61076   0.00000  Uiso   1.00
H679   H     0.56386   0.37314   0.63450   0.00000  Uiso   1.00
H680   H     0.57919   0.33138   0.65701   0.00000  Uiso   1.00
O681   O     0.78755   0.05462   0.39850   0.00000  Uiso   1.00
C682   C     0.82370   0.04280   0.39185   0.00000  Uiso   1.00
H683   H     0.82409   0.01797   0.37322   0.00000  Uiso   1.00
H684   H     0.83797   0.03678   0.41967   0.00000  Uiso   1.00
C685   C     0.84469   0.07286   0.37109   0.00000  Uiso   1.00
H686   H     0.84532   0.09790   0.38923   0.00000  Uiso   1.00
H687   H     0.87314   0.06387   0.36551   0.00000  Uiso   1.00
H688   H     0.83138   0.07919   0.34299   0.00000  Uiso   1.00
O689   O     0.71245   0.44537   0.60150   0.00000  Uiso   1.00
C690   C     0.67630   0.45720   0.60816   0.00000  Uiso   1.00
H691   H     0.66203   0.46324   0.58035   0.00000  Uiso   1.00
H692   H     0.67592   0.48202   0.62681   0.00000  Uiso   1.00
C693   C     0.65530   0.42713   0.62890   0.00000  Uiso   1.00
H694   H     0.66862   0.42077   0.65699   0.00000  Uiso   1.00
H695   H     0.62686   0.43613   0.63451   0.00000  Uiso   1.00
H696   H     0.65465   0.40211   0.61073   0.00000  Uiso   1.00
O697   O     0.80461   0.03757   0.89850   0.00000  Uiso   1.00
C698   C     0.79277   0.07372   0.89184   0.00000  Uiso   1.00
H699   H     0.78674   0.08798   0.91965   0.00000  Uiso   1.00
H700   H     0.76794   0.07409   0.87320   0.00000  Uiso   1.00
C701   C     0.82283   0.09472   0.87109   0.00000  Uiso   1.00
H702   H     0.82918   0.08140   0.84299   0.00000  Uiso   1.00
H703   H     0.81382   0.12316   0.86549   0.00000  Uiso   1.00
H704   H     0.84786   0.09537   0.88924   0.00000  Uiso   1.00
O705   O     0.69538   0.46244   0.10150   0.00000  Uiso   1.00
C706   C     0.70722   0.42629   0.10815   0.00000  Uiso   1.00
H707   H     0.73205   0.42591   0.12679   0.00000  Uiso   1.00
H708   H     0.71325   0.41202   0.08034   0.00000  Uiso   1.00
C709   C     0.67716   0.40529   0.12891   0.00000  Uiso   1.00
H710   H     0.65212   0.40464   0.11076   0.00000  Uiso   1.00
H711   H     0.68617   0.37685   0.13450   0.00000  Uiso   1.00
H712   H     0.67082   0.41861   0.15701   0.00000  Uiso   1.00
O713   O     0.96244   0.19538   0.89850   0.00000  Uiso   1.00
C714   C     0.92629   0.20721   0.89185   0.00000  Uiso   1.00
H715   H     0.92591   0.23203   0.87321   0.00000  Uiso   1.00
H716   H     0.91203   0.21324   0.91966   0.00000  Uiso   1.00
C717   C     0.90530   0.17714   0.87109   0.00000  Uiso   1.00
H718   H     0.90465   0.15211   0.88925   0.00000  Uiso   1.00
H719   H     0.87686   0.18615   0.86550   0.00000  Uiso   1.00
H720   H     0.91862   0.17080   0.84300   0.00000  Uiso   1.00
O721   O     0.53755   0.30462   0.10150   0.00000  Uiso   1.00
C722   C     0.57370   0.29280   0.10815   0.00000  Uiso   1.00
H723   H     0.58797   0.28677   0.08034   0.00000  Uiso   1.00
H724   H     0.57409   0.26796   0.12678   0.00000  Uiso   1.00
C725   C     0.59470   0.32286   0.12891   0.00000  Uiso   1.00
H726   H     0.58138   0.32919   0.15701   0.00000  Uiso   1.00
H727   H     0.62314   0.31385   0.13450   0.00000  Uiso   1.00
H728   H     0.59534   0.34790   0.11076   0.00000  Uiso   1.00
O729   O     0.69538   0.46244   0.89850   0.00000  Uiso   1.00
C730   C     0.70722   0.42630   0.89182   0.00000  Uiso   1.00
H731   H     0.71331   0.41203   0.91962   0.00000  Uiso   1.00
H732   H     0.73202   0.42593   0.87314   0.00000  Uiso   1.00
C733   C     0.67713   0.40529   0.87112   0.00000  Uiso   1.00
H734   H     0.67071   0.41862   0.84305   0.00000  Uiso   1.00
H735   H     0.68616   0.37686   0.86548   0.00000  Uiso   1.00
H736   H     0.65214   0.40460   0.88934   0.00000  Uiso   1.00
O737   O     0.80462   0.03756   0.10150   0.00000  Uiso   1.00
C738   C     0.79279   0.07370   0.10819   0.00000  Uiso   1.00
H739   H     0.76801   0.07405   0.12691   0.00000  Uiso   1.00
H740   H     0.78668   0.08797   0.08041   0.00000  Uiso   1.00
C741   C     0.82289   0.09470   0.12887   0.00000  Uiso   1.00
H742   H     0.84786   0.09542   0.11062   0.00000  Uiso   1.00
H743   H     0.81386   0.12312   0.13455   0.00000  Uiso   1.00
H744   H     0.82935   0.08135   0.15692   0.00000  Uiso   1.00
O745   O     0.53755   0.30462   0.89850   0.00000  Uiso   1.00
C746   C     0.57370   0.29280   0.89185   0.00000  Uiso   1.00
H747   H     0.57409   0.26797   0.87321   0.00000  Uiso   1.00
H748   H     0.58797   0.28677   0.91966   0.00000  Uiso   1.00
C749   C     0.59470   0.32286   0.87110   0.00000  Uiso   1.00
H750   H     0.59534   0.34789   0.88925   0.00000  Uiso   1.00
H751   H     0.62314   0.31386   0.86550   0.00000  Uiso   1.00
H752   H     0.58138   0.32920   0.84300   0.00000  Uiso   1.00
O753   O     0.96245   0.19537   0.10150   0.00000  Uiso   1.00
C754   C     0.92630   0.20720   0.10816   0.00000  Uiso   1.00
H755   H     0.91203   0.21323   0.08035   0.00000  Uiso   1.00
H756   H     0.92592   0.23203   0.12680   0.00000  Uiso   1.00
C757   C     0.90531   0.17714   0.12891   0.00000  Uiso   1.00
H758   H     0.91863   0.17078   0.15700   0.00000  Uiso   1.00
H759   H     0.87687   0.18614   0.13452   0.00000  Uiso   1.00
H760   H     0.90465   0.15211   0.11075   0.00000  Uiso   1.00
C761   C     0.02756   0.76900   0.41854   0.00000  Uiso   1.00
C762   C     0.47244   0.73100   0.58146   0.00000  Uiso   1.00
C763   C     0.23100   0.97244   0.41854   0.00000  Uiso   1.00
C764   C     0.26900   0.52756   0.58146   0.00000  Uiso   1.00
C765   C     0.47244   0.73100   0.41854   0.00000  Uiso   1.00
C766   C     0.02756   0.76900   0.58146   0.00000  Uiso   1.00
C767   C     0.26900   0.52756   0.41854   0.00000  Uiso   1.00
C768   C     0.23100   0.97244   0.58146   0.00000  Uiso   1.00
C769   C     0.27755   0.51901   0.91854   0.00000  Uiso   1.00
C770   C     0.22245   0.98100   0.08146   0.00000  Uiso   1.00
C771   C     0.48100   0.72244   0.91854   0.00000  Uiso   1.00
C772   C     0.01900   0.77756   0.08146   0.00000  Uiso   1.00
C773   C     0.22245   0.98100   0.91854   0.00000  Uiso   1.00
C774   C     0.27755   0.51901   0.08146   0.00000  Uiso   1.00
C775   C     0.01900   0.77756   0.91854   0.00000  Uiso   1.00
C776   C     0.48100   0.72244   0.08146   0.00000  Uiso   1.00
C777   C    -0.00000   0.75000   0.39829   0.00000  Uiso   1.00
C778   C     0.00000   0.75000   0.60171   0.00000  Uiso   1.00
C779   C     0.25000   0.50000   0.39829   0.00000  Uiso   1.00
C780   C     0.25000   0.50000   0.60171   0.00000  Uiso   1.00
C781   C     0.25000   0.50000   0.89829   0.00000  Uiso   1.00
C782   C     0.25000   0.50000   0.10171   0.00000  Uiso   1.00
C783   C    -0.00000   0.75000   0.89829   0.00000  Uiso   1.00
C784   C    -0.00000   0.75000   0.10171   0.00000  Uiso   1.00
C785   C     0.44350   0.71491   0.47986   0.00000  Uiso   1.00
C786   C     0.05650   0.78508   0.52014   0.00000  Uiso   1.00
C787   C     0.28508   0.55650   0.47986   0.00000  Uiso   1.00
C788   C     0.21491   0.94350   0.52014   0.00000  Uiso   1.00
C789   C     0.05650   0.78508   0.47986   0.00000  Uiso   1.00
C790   C     0.44350   0.71491   0.52014   0.00000  Uiso   1.00
C791   C     0.21491   0.94350   0.47986   0.00000  Uiso   1.00
C792   C     0.28508   0.55650   0.52014   0.00000  Uiso   1.00
C793   C     0.19351   0.96490   0.97986   0.00000  Uiso   1.00
C794   C     0.30648   0.53511   0.02014   0.00000  Uiso   1.00
C795   C     0.03509   0.80650   0.97986   0.00000  Uiso   1.00
C796   C     0.46491   0.69350   0.02014   0.00000  Uiso   1.00
C797   C     0.30648   0.53511   0.97986   0.00000  Uiso   1.00
C798   C     0.19351   0.96490   0.02014   0.00000  Uiso   1.00
C799   C     0.46491   0.69350   0.97986   0.00000  Uiso   1.00
C800   C     0.03509   0.80650   0.02014   0.00000  Uiso   1.00
C801   C     0.25000   0.50000   0.35589   0.00000  Uiso   1.00
C802   C     0.25000   0.50000   0.64412   0.00000  Uiso   1.00
C803   C    -0.00000   0.75000   0.35589   0.00000  Uiso   1.00
C804   C     0.00000   0.75000   0.64412   0.00000  Uiso   1.00
C805   C    -0.00000   0.75000   0.85589   0.00000  Uiso   1.00
C806   C     0.00000   0.75000   0.14412   0.00000  Uiso   1.00
C807   C     0.25000   0.50000   0.85589   0.00000  Uiso   1.00
C808   C     0.25000   0.50000   0.14412   0.00000  Uiso   1.00
C809   C     0.17994   0.57006   0.25000   0.00000  Uiso   1.00
C810   C     0.32006   0.92994   0.75000   0.00000  Uiso   1.00
C811   C     0.42995   0.67995   0.25000   0.00000  Uiso   1.00
C812   C     0.07005   0.82005   0.75000   0.00000  Uiso   1.00
C813   C     0.32006   0.92994   0.25000   0.00000  Uiso   1.00
C814   C     0.17994   0.57006   0.75000   0.00000  Uiso   1.00
C815   C     0.07005   0.82005   0.25000   0.00000  Uiso   1.00
C816   C     0.42995   0.67995   0.75000   0.00000  Uiso   1.00
C817   C     0.17995   0.92995   0.75000   0.00000  Uiso   1.00
C818   C     0.32005   0.57005   0.25000   0.00000  Uiso   1.00
C819   C     0.42994   0.82006   0.75000   0.00000  Uiso   1.00
C820   C     0.07006   0.67994   0.25000   0.00000  Uiso   1.00
C821   C     0.32005   0.57005   0.75000   0.00000  Uiso   1.00
C822   C     0.17995   0.92995   0.25000   0.00000  Uiso   1.00
C823   C     0.07006   0.67994   0.75000   0.00000  Uiso   1.00
C824   C     0.42994   0.82006   0.25000   0.00000  Uiso   1.00
C825   C     0.12092   0.90583   0.22651   0.00000  Uiso   1.00
C826   C     0.37908   0.59417   0.77349   0.00000  Uiso   1.00
C827   C     0.09514   0.62187   0.22496   0.00000  Uiso   1.00
C828   C     0.40486   0.87813   0.77505   0.00000  Uiso   1.00
C829   C     0.37909   0.59416   0.22653   0.00000  Uiso   1.00
C830   C     0.12091   0.90583   0.77348   0.00000  Uiso   1.00
C831   C     0.40486   0.87813   0.22496   0.00000  Uiso   1.00
C832   C     0.09514   0.62187   0.77505   0.00000  Uiso   1.00
C833   C     0.12187   0.59514   0.77505   0.00000  Uiso   1.00
C834   C     0.37813   0.90486   0.22496   0.00000  Uiso   1.00
C835   C     0.09417   0.87908   0.77348   0.00000  Uiso   1.00
C836   C     0.40584   0.62091   0.22653   0.00000  Uiso   1.00
C837   C     0.37812   0.90486   0.77505   0.00000  Uiso   1.00
C838   C     0.12187   0.59514   0.22496   0.00000  Uiso   1.00
C839   C     0.40583   0.62092   0.77349   0.00000  Uiso   1.00
C840   C     0.09417   0.87908   0.22651   0.00000  Uiso   1.00
C841   C     0.37092   0.65583   0.72651   0.00000  Uiso   1.00
C842   C     0.12908   0.84417   0.27349   0.00000  Uiso   1.00
C843   C     0.34514   0.87187   0.72496   0.00000  Uiso   1.00
C844   C     0.15486   0.62813   0.27505   0.00000  Uiso   1.00
C845   C     0.12908   0.84417   0.72652   0.00000  Uiso   1.00
C846   C     0.37091   0.65584   0.27347   0.00000  Uiso   1.00
C847   C     0.15486   0.62813   0.72496   0.00000  Uiso   1.00
C848   C     0.34514   0.87187   0.27505   0.00000  Uiso   1.00
C849   C     0.37187   0.84514   0.27505   0.00000  Uiso   1.00
C850   C     0.12813   0.65486   0.72496   0.00000  Uiso   1.00
C851   C     0.34416   0.62909   0.27347   0.00000  Uiso   1.00
C852   C     0.15583   0.87092   0.72652   0.00000  Uiso   1.00
C853   C     0.12812   0.65486   0.27505   0.00000  Uiso   1.00
C854   C     0.37187   0.84514   0.72496   0.00000  Uiso   1.00
C855   C     0.15583   0.87092   0.27349   0.00000  Uiso   1.00
C856   C     0.34417   0.62908   0.72651   0.00000  Uiso   1.00
C857   C     0.47177   0.73199   0.45920   0.00000  Uiso   1.00
C858   C     0.02823   0.76801   0.54080   0.00000  Uiso   1.00
C859   C     0.26801   0.52823   0.45920   0.00000  Uiso   1.00
C860   C     0.23199   0.97177   0.54080   0.00000  Uiso   1.00
C861   C     0.02823   0.76801   0.45920   0.00000  Uiso   1.00
C862   C     0.47177   0.73199   0.54080   0.00000  Uiso   1.00
C863   C     0.23199   0.97177   0.45920   0.00000  Uiso   1.00
C864   C     0.26801   0.52823   0.54080   0.00000  Uiso   1.00
C865   C     0.22177   0.98198   0.95920   0.00000  Uiso   1.00
C866   C     0.27822   0.51802   0.04080   0.00000  Uiso   1.00
C867   C     0.01801   0.77823   0.95920   0.00000  Uiso   1.00
C868   C     0.48199   0.72177   0.04080   0.00000  Uiso   1.00
C869   C     0.27822   0.51802   0.95920   0.00000  Uiso   1.00
C870   C     0.22177   0.98199   0.04080   0.00000  Uiso   1.00
C871   C     0.48199   0.72177   0.95920   0.00000  Uiso   1.00
C872   C     0.01801   0.77823   0.04080   0.00000  Uiso   1.00
C873   C     0.09812   0.84812   0.25000   0.00000  Uiso   1.00
C874   C     0.40187   0.65188   0.75000   0.00000  Uiso   1.00
C875   C     0.15187   0.59813   0.25000   0.00000  Uiso   1.00
C876   C     0.34813   0.90187   0.75000   0.00000  Uiso   1.00
C877   C     0.40188   0.65187   0.25000   0.00000  Uiso   1.00
C878   C     0.09812   0.84812   0.75000   0.00000  Uiso   1.00
C879   C     0.34813   0.90187   0.25000   0.00000  Uiso   1.00
C880   C     0.15187   0.59813   0.75000   0.00000  Uiso   1.00
C881   C     0.09813   0.65187   0.75000   0.00000  Uiso   1.00
C882   C     0.40187   0.84813   0.25000   0.00000  Uiso   1.00
C883   C     0.15187   0.90188   0.75000   0.00000  Uiso   1.00
C884   C     0.34812   0.59812   0.25000   0.00000  Uiso   1.00
C885   C     0.40187   0.84813   0.75000   0.00000  Uiso   1.00
C886   C     0.09813   0.65187   0.25000   0.00000  Uiso   1.00
C887   C     0.34812   0.59812   0.75000   0.00000  Uiso   1.00
C888   C     0.15188   0.90187   0.25000   0.00000  Uiso   1.00
C889   C     0.00000   0.75000   0.47956   0.00000  Uiso   1.00
C890   C     0.00000   0.75000   0.52044   0.00000  Uiso   1.00
C891   C     0.25000   0.50000   0.47956   0.00000  Uiso   1.00
C892   C     0.25000   0.50000   0.52044   0.00000  Uiso   1.00
C893   C     0.25000   0.50000   0.97956   0.00000  Uiso   1.00
C894   C     0.25000   0.50000   0.02044   0.00000  Uiso   1.00
C895   C    -0.00000   0.75000   0.97956   0.00000  Uiso   1.00
C896   C    -0.00000   0.75000   0.02044   0.00000  Uiso   1.00
H897   H     0.42128   0.70131   0.46498   0.00000  Uiso   1.00
H898   H     0.07872   0.79869   0.53502   0.00000  Uiso   1.00
H899   H     0.29869   0.57872   0.46498   0.00000  Uiso   1.00
H900   H     0.20130   0.92128   0.53502   0.00000  Uiso   1.00
H901   H     0.07872   0.79869   0.46498   0.00000  Uiso   1.00
H902   H     0.42128   0.70131   0.53502   0.00000  Uiso   1.00
H903   H     0.20130   0.92128   0.46498   0.00000  Uiso   1.00
H904   H     0.29869   0.57872   0.53502   0.00000  Uiso   1.00
H905   H     0.17130   0.95128   0.96498   0.00000  Uiso   1.00
H906   H     0.32870   0.54873   0.03502   0.00000  Uiso   1.00
H907   H     0.04869   0.82872   0.96498   0.00000  Uiso   1.00
H908   H     0.45130   0.67128   0.03502   0.00000  Uiso   1.00
H909   H     0.32870   0.54873   0.96498   0.00000  Uiso   1.00
H910   H     0.17129   0.95128   0.03502   0.00000  Uiso   1.00
H911   H     0.45130   0.67128   0.96498   0.00000  Uiso   1.00
H912   H     0.04869   0.82872   0.03502   0.00000  Uiso   1.00
H913   H     0.11729   0.92957   0.20821   0.00000  Uiso   1.00
H914   H     0.38271   0.57043   0.79180   0.00000  Uiso   1.00
H915   H     0.07220   0.61902   0.20537   0.00000  Uiso   1.00
H916   H     0.42780   0.88098   0.79463   0.00000  Uiso   1.00
H917   H     0.38273   0.57041   0.20824   0.00000  Uiso   1.00
H918   H     0.11728   0.92958   0.79179   0.00000  Uiso   1.00
H919   H     0.42780   0.88098   0.20537   0.00000  Uiso   1.00
H920   H     0.07220   0.61902   0.79463   0.00000  Uiso   1.00
H921   H     0.11902   0.57220   0.79463   0.00000  Uiso   1.00
H922   H     0.38098   0.92780   0.20537   0.00000  Uiso   1.00
H923   H     0.07042   0.88272   0.79179   0.00000  Uiso   1.00
H924   H     0.42959   0.61727   0.20823   0.00000  Uiso   1.00
H925   H     0.38098   0.92780   0.79463   0.00000  Uiso   1.00
H926   H     0.11902   0.57220   0.20537   0.00000  Uiso   1.00
H927   H     0.42957   0.61729   0.79180   0.00000  Uiso   1.00
H928   H     0.07043   0.88271   0.20821   0.00000  Uiso   1.00
H929   H     0.36729   0.67957   0.70820   0.00000  Uiso   1.00
H930   H     0.13271   0.82043   0.29179   0.00000  Uiso   1.00
H931   H     0.32220   0.86902   0.70537   0.00000  Uiso   1.00
H932   H     0.17780   0.63098   0.29463   0.00000  Uiso   1.00
H933   H     0.13271   0.82042   0.70821   0.00000  Uiso   1.00
H934   H     0.36728   0.67959   0.29177   0.00000  Uiso   1.00
H935   H     0.17780   0.63098   0.70537   0.00000  Uiso   1.00
H936   H     0.32220   0.86902   0.29463   0.00000  Uiso   1.00
H937   H     0.36902   0.82220   0.29463   0.00000  Uiso   1.00
H938   H     0.13098   0.67780   0.70537   0.00000  Uiso   1.00
H939   H     0.32041   0.63272   0.29177   0.00000  Uiso   1.00
H940   H     0.17958   0.86728   0.70821   0.00000  Uiso   1.00
H941   H     0.13098   0.67780   0.29463   0.00000  Uiso   1.00
H942   H     0.36902   0.82220   0.70537   0.00000  Uiso   1.00
H943   H     0.17957   0.86729   0.29179   0.00000  Uiso   1.00
H944   H     0.32043   0.63271   0.70820   0.00000  Uiso   1.00
O945   O     0.25000   0.50000   0.25000   0.00000  Uiso   1.00
O946   O     0.25000   0.50000   0.75000   0.00000  Uiso   1.00
O947   O     0.00000   0.75000   0.25000   0.00000  Uiso   1.00
O948   O     0.00000   0.75000   0.75000   0.00000  Uiso   1.00
O949   O     0.25000   0.96963   0.33755   0.00000  Uiso   1.00
O950   O     0.25000   0.53037   0.66245   0.00000  Uiso   1.00
O951   O     0.03036   0.75000   0.33755   0.00000  Uiso   1.00
O952   O     0.46963   0.75000   0.66245   0.00000  Uiso   1.00
O953   O     0.25000   0.53037   0.33755   0.00000  Uiso   1.00
O954   O     0.25000   0.96963   0.66245   0.00000  Uiso   1.00
O955   O     0.46963   0.75000   0.33755   0.00000  Uiso   1.00
O956   O     0.03036   0.75000   0.66245   0.00000  Uiso   1.00
O957   O     0.00000   0.71963   0.83755   0.00000  Uiso   1.00
O958   O     0.00000   0.78036   0.16245   0.00000  Uiso   1.00
O959   O     0.28036   0.50000   0.83755   0.00000  Uiso   1.00
O960   O     0.21963   0.50000   0.16245   0.00000  Uiso   1.00
O961   O    -0.00000   0.78036   0.83755   0.00000  Uiso   1.00
O962   O    -0.00000   0.71963   0.16245   0.00000  Uiso   1.00
O963   O     0.21963   0.50000   0.83755   0.00000  Uiso   1.00
O964   O     0.28036   0.50000   0.16245   0.00000  Uiso   1.00
O965   O     0.20724   0.57307   0.27302   0.00000  Uiso   1.00
O966   O     0.29275   0.92692   0.72698   0.00000  Uiso   1.00
O967   O     0.42692   0.70724   0.27302   0.00000  Uiso   1.00
O968   O     0.07307   0.79275   0.72698   0.00000  Uiso   1.00
O969   O     0.29275   0.92692   0.27302   0.00000  Uiso   1.00
O970   O     0.20724   0.57307   0.72698   0.00000  Uiso   1.00
O971   O     0.07307   0.79275   0.27302   0.00000  Uiso   1.00
O972   O     0.42692   0.70724   0.72698   0.00000  Uiso   1.00
O973   O     0.20724   0.92692   0.72698   0.00000  Uiso   1.00
O974   O     0.29275   0.57307   0.27302   0.00000  Uiso   1.00
O975   O     0.42692   0.79275   0.72698   0.00000  Uiso   1.00
O976   O     0.07307   0.70724   0.27302   0.00000  Uiso   1.00
O977   O     0.29275   0.57307   0.72698   0.00000  Uiso   1.00
O978   O     0.20724   0.92692   0.27302   0.00000  Uiso   1.00
O979   O     0.07307   0.70724   0.72698   0.00000  Uiso   1.00
O980   O     0.42692   0.79275   0.27302   0.00000  Uiso   1.00
O981   O     0.45724   0.82307   0.77302   0.00000  Uiso   1.00
O982   O     0.04275   0.67692   0.22698   0.00000  Uiso   1.00
O983   O     0.17692   0.95724   0.77302   0.00000  Uiso   1.00
O984   O     0.32307   0.54276   0.22698   0.00000  Uiso   1.00
O985   O     0.04275   0.67692   0.77302   0.00000  Uiso   1.00
O986   O     0.45724   0.82307   0.22698   0.00000  Uiso   1.00
O987   O     0.32307   0.54276   0.77302   0.00000  Uiso   1.00
O988   O     0.17692   0.95724   0.22698   0.00000  Uiso   1.00
O989   O     0.45724   0.67692   0.22698   0.00000  Uiso   1.00
O990   O     0.04275   0.82307   0.77302   0.00000  Uiso   1.00
O991   O     0.17692   0.54275   0.22698   0.00000  Uiso   1.00
O992   O     0.32307   0.95724   0.77302   0.00000  Uiso   1.00
O993   O     0.04275   0.82307   0.22698   0.00000  Uiso   1.00
O994   O     0.45724   0.67692   0.77302   0.00000  Uiso   1.00
O995   O     0.32307   0.95724   0.22698   0.00000  Uiso   1.00
O996   O     0.17692   0.54275   0.77302   0.00000  Uiso   1.00
Zn997  Zn    0.20659   0.50000   0.21735   0.00000  Uiso   1.00
Zn998  Zn    0.29340   0.50000   0.78265   0.00000  Uiso   1.00
Zn999  Zn    0.00000   0.70659   0.21735   0.00000  Uiso   1.00
Zn1000 Zn   -0.00000   0.79340   0.78265   0.00000  Uiso   1.00
Zn1001 Zn    0.29340   0.50000   0.21735   0.00000  Uiso   1.00
Zn1002 Zn    0.20659   0.50000   0.78265   0.00000  Uiso   1.00
Zn1003 Zn   -0.00000   0.79340   0.21735   0.00000  Uiso   1.00
Zn1004 Zn    0.00000   0.70659   0.78265   0.00000  Uiso   1.00
Zn1005 Zn    0.45659   0.75000   0.71735   0.00000  Uiso   1.00
Zn1006 Zn    0.04340   0.75000   0.28265   0.00000  Uiso   1.00
Zn1007 Zn    0.25000   0.95659   0.71735   0.00000  Uiso   1.00
Zn1008 Zn    0.25000   0.54340   0.28265   0.00000  Uiso   1.00
Zn1009 Zn    0.04340   0.75000   0.71735   0.00000  Uiso   1.00
Zn1010 Zn    0.45659   0.75000   0.28265   0.00000  Uiso   1.00
Zn1011 Zn    0.25000   0.54340   0.71735   0.00000  Uiso   1.00
Zn1012 Zn    0.25000   0.95659   0.28265   0.00000  Uiso   1.00
O1013  O     0.05462   0.78755   0.39850   0.00000  Uiso   1.00
C1014  C     0.04280   0.82370   0.39185   0.00000  Uiso   1.00
H1015  H     0.03678   0.83797   0.41967   0.00000  Uiso   1.00
H1016  H     0.01796   0.82409   0.37322   0.00000  Uiso   1.00
C1017  C     0.07286   0.84470   0.37109   0.00000  Uiso   1.00
H1018  H     0.07918   0.83138   0.34299   0.00000  Uiso   1.00
H1019  H     0.06386   0.87314   0.36551   0.00000  Uiso   1.00
H1020  H     0.09790   0.84533   0.38923   0.00000  Uiso   1.00
O1021  O     0.44538   0.71245   0.60150   0.00000  Uiso   1.00
C1022  C     0.45720   0.67629   0.60815   0.00000  Uiso   1.00
H1023  H     0.48204   0.67591   0.62678   0.00000  Uiso   1.00
H1024  H     0.46322   0.66203   0.58033   0.00000  Uiso   1.00
C1025  C     0.42714   0.65530   0.62891   0.00000  Uiso   1.00
H1026  H     0.40210   0.65466   0.61077   0.00000  Uiso   1.00
H1027  H     0.43614   0.62686   0.63450   0.00000  Uiso   1.00
H1028  H     0.42081   0.66862   0.65701   0.00000  Uiso   1.00
O1029  O     0.21245   0.94538   0.39850   0.00000  Uiso   1.00
C1030  C     0.17629   0.95720   0.39185   0.00000  Uiso   1.00
H1031  H     0.17591   0.98203   0.37321   0.00000  Uiso   1.00
H1032  H     0.16203   0.96323   0.41966   0.00000  Uiso   1.00
C1033  C     0.15530   0.92714   0.37110   0.00000  Uiso   1.00
H1034  H     0.15466   0.90210   0.38925   0.00000  Uiso   1.00
H1035  H     0.12686   0.93614   0.36550   0.00000  Uiso   1.00
H1036  H     0.16862   0.92080   0.34300   0.00000  Uiso   1.00
O1037  O     0.28755   0.55462   0.60150   0.00000  Uiso   1.00
C1038  C     0.32370   0.54280   0.60815   0.00000  Uiso   1.00
H1039  H     0.33797   0.53677   0.58034   0.00000  Uiso   1.00
H1040  H     0.32409   0.51797   0.62679   0.00000  Uiso   1.00
C1041  C     0.34470   0.57286   0.62890   0.00000  Uiso   1.00
H1042  H     0.33138   0.57920   0.65701   0.00000  Uiso   1.00
H1043  H     0.37314   0.56386   0.63449   0.00000  Uiso   1.00
H1044  H     0.34534   0.59790   0.61076   0.00000  Uiso   1.00
O1045  O     0.44537   0.71245   0.39850   0.00000  Uiso   1.00
C1046  C     0.45720   0.67630   0.39184   0.00000  Uiso   1.00
H1047  H     0.46324   0.66203   0.41965   0.00000  Uiso   1.00
H1048  H     0.48202   0.67591   0.37320   0.00000  Uiso   1.00
C1049  C     0.42713   0.65531   0.37110   0.00000  Uiso   1.00
H1050  H     0.42078   0.66862   0.34300   0.00000  Uiso   1.00
H1051  H     0.43613   0.62686   0.36550   0.00000  Uiso   1.00
H1052  H     0.40210   0.65466   0.38926   0.00000  Uiso   1.00
O1053  O     0.05462   0.78755   0.60150   0.00000  Uiso   1.00
C1054  C     0.04280   0.82370   0.60815   0.00000  Uiso   1.00
H1055  H     0.01797   0.82409   0.62679   0.00000  Uiso   1.00
H1056  H     0.03677   0.83797   0.58034   0.00000  Uiso   1.00
C1057  C     0.07286   0.84469   0.62891   0.00000  Uiso   1.00
H1058  H     0.09790   0.84534   0.61076   0.00000  Uiso   1.00
H1059  H     0.06386   0.87314   0.63450   0.00000  Uiso   1.00
H1060  H     0.07919   0.83138   0.65701   0.00000  Uiso   1.00
O1061  O     0.28755   0.55462   0.39850   0.00000  Uiso   1.00
C1062  C     0.32370   0.54280   0.39185   0.00000  Uiso   1.00
H1063  H     0.32409   0.51797   0.37322   0.00000  Uiso   1.00
H1064  H     0.33797   0.53678   0.41967   0.00000  Uiso   1.00
C1065  C     0.34469   0.57286   0.37109   0.00000  Uiso   1.00
H1066  H     0.34532   0.59790   0.38923   0.00000  Uiso   1.00
H1067  H     0.37314   0.56387   0.36551   0.00000  Uiso   1.00
H1068  H     0.33138   0.57919   0.34299   0.00000  Uiso   1.00
O1069  O     0.21245   0.94537   0.60150   0.00000  Uiso   1.00
C1070  C     0.17630   0.95720   0.60816   0.00000  Uiso   1.00
H1071  H     0.16203   0.96324   0.58035   0.00000  Uiso   1.00
H1072  H     0.17592   0.98202   0.62681   0.00000  Uiso   1.00
C1073  C     0.15530   0.92713   0.62890   0.00000  Uiso   1.00
H1074  H     0.16862   0.92077   0.65699   0.00000  Uiso   1.00
H1075  H     0.12686   0.93613   0.63451   0.00000  Uiso   1.00
H1076  H     0.15465   0.90211   0.61073   0.00000  Uiso   1.00
O1077  O     0.30461   0.53757   0.89850   0.00000  Uiso   1.00
C1078  C     0.29277   0.57372   0.89184   0.00000  Uiso   1.00
H1079  H     0.28674   0.58798   0.91965   0.00000  Uiso   1.00
H1080  H     0.26794   0.57409   0.87320   0.00000  Uiso   1.00
C1081  C     0.32283   0.59472   0.87109   0.00000  Uiso   1.00
H1082  H     0.32918   0.58140   0.84299   0.00000  Uiso   1.00
H1083  H     0.31382   0.62316   0.86549   0.00000  Uiso   1.00
H1084  H     0.34786   0.59537   0.88924   0.00000  Uiso   1.00
O1085  O     0.19538   0.96244   0.10150   0.00000  Uiso   1.00
C1086  C     0.20722   0.92629   0.10815   0.00000  Uiso   1.00
H1087  H     0.23205   0.92591   0.12679   0.00000  Uiso   1.00
H1088  H     0.21325   0.91202   0.08034   0.00000  Uiso   1.00
C1089  C     0.17716   0.90529   0.12891   0.00000  Uiso   1.00
H1090  H     0.15212   0.90464   0.11076   0.00000  Uiso   1.00
H1091  H     0.18617   0.87685   0.13450   0.00000  Uiso   1.00
H1092  H     0.17082   0.91861   0.15701   0.00000  Uiso   1.00
O1093  O     0.46244   0.69538   0.89850   0.00000  Uiso   1.00
C1094  C     0.42629   0.70721   0.89185   0.00000  Uiso   1.00
H1095  H     0.42591   0.73203   0.87321   0.00000  Uiso   1.00
H1096  H     0.41203   0.71324   0.91966   0.00000  Uiso   1.00
C1097  C     0.40530   0.67714   0.87109   0.00000  Uiso   1.00
H1098  H     0.40465   0.65211   0.88925   0.00000  Uiso   1.00
H1099  H     0.37686   0.68615   0.86550   0.00000  Uiso   1.00
H1100  H     0.41862   0.67080   0.84300   0.00000  Uiso   1.00
O1101  O     0.03755   0.80462   0.10150   0.00000  Uiso   1.00
C1102  C     0.07370   0.79280   0.10815   0.00000  Uiso   1.00
H1103  H     0.08797   0.78677   0.08034   0.00000  Uiso   1.00
H1104  H     0.07409   0.76796   0.12678   0.00000  Uiso   1.00
C1105  C     0.09470   0.82286   0.12891   0.00000  Uiso   1.00
H1106  H     0.08138   0.82919   0.15701   0.00000  Uiso   1.00
H1107  H     0.12314   0.81385   0.13450   0.00000  Uiso   1.00
H1108  H     0.09534   0.84790   0.11076   0.00000  Uiso   1.00
O1109  O     0.19538   0.96244   0.89850   0.00000  Uiso   1.00
C1110  C     0.20722   0.92630   0.89182   0.00000  Uiso   1.00
H1111  H     0.21331   0.91203   0.91962   0.00000  Uiso   1.00
H1112  H     0.23202   0.92593   0.87314   0.00000  Uiso   1.00
C1113  C     0.17713   0.90529   0.87112   0.00000  Uiso   1.00
H1114  H     0.17071   0.91862   0.84305   0.00000  Uiso   1.00
H1115  H     0.18616   0.87686   0.86548   0.00000  Uiso   1.00
H1116  H     0.15214   0.90460   0.88934   0.00000  Uiso   1.00
O1117  O     0.30462   0.53756   0.10150   0.00000  Uiso   1.00
C1118  C     0.29279   0.57370   0.10819   0.00000  Uiso   1.00
H1119  H     0.26801   0.57405   0.12691   0.00000  Uiso   1.00
H1120  H     0.28668   0.58797   0.08041   0.00000  Uiso   1.00
C1121  C     0.32289   0.59470   0.12887   0.00000  Uiso   1.00
H1122  H     0.34786   0.59542   0.11062   0.00000  Uiso   1.00
H1123  H     0.31386   0.62312   0.13455   0.00000  Uiso   1.00
H1124  H     0.32935   0.58135   0.15692   0.00000  Uiso   1.00
O1125  O     0.03755   0.80462   0.89850   0.00000  Uiso   1.00
C1126  C     0.07370   0.79280   0.89185   0.00000  Uiso   1.00
H1127  H     0.07409   0.76797   0.87321   0.00000  Uiso   1.00
H1128  H     0.08797   0.78677   0.91966   0.00000  Uiso   1.00
C1129  C     0.09470   0.82286   0.87110   0.00000  Uiso   1.00
H1130  H     0.09534   0.84789   0.88925   0.00000  Uiso   1.00
H1131  H     0.12314   0.81386   0.86550   0.00000  Uiso   1.00
H1132  H     0.08138   0.82920   0.84300   0.00000  Uiso   1.00
O1133  O     0.46245   0.69537   0.10150   0.00000  Uiso   1.00
C1134  C     0.42630   0.70720   0.10816   0.00000  Uiso   1.00
H1135  H     0.41203   0.71323   0.08035   0.00000  Uiso   1.00
H1136  H     0.42592   0.73203   0.12680   0.00000  Uiso   1.00
C1137  C     0.40531   0.67714   0.12891   0.00000  Uiso   1.00
H1138  H     0.41863   0.67078   0.15700   0.00000  Uiso   1.00
H1139  H     0.37687   0.68614   0.13452   0.00000  Uiso   1.00
H1140  H     0.40465   0.65211   0.11075   0.00000  Uiso   1.00
C1141  C     0.52756   0.76900   0.41854   0.00000  Uiso   1.00
C1142  C     0.97244   0.73100   0.58146   0.00000  Uiso   1.00
C1143  C     0.73100   0.97244   0.41854   0.00000  Uiso   1.00
C1144  C     0.76900   0.52756   0.58146   0.00000  Uiso   1.00
C1145  C     0.97244   0.73100   0.41854   0.00000  Uiso   1.00
C1146  C     0.52756   0.76900   0.58146   0.00000  Uiso   1.00
C1147  C     0.76900   0.52756   0.41854   0.00000  Uiso   1.00
C1148  C     0.73100   0.97244   0.58146   0.00000  Uiso   1.00
C1149  C     0.77755   0.51901   0.91854   0.00000  Uiso   1.00
C1150  C     0.72245   0.98100   0.08146   0.00000  Uiso   1.00
C1151  C     0.98100   0.72244   0.91854   0.00000  Uiso   1.00
C1152  C     0.51900   0.77756   0.08146   0.00000  Uiso   1.00
C1153  C     0.72245   0.98100   0.91854   0.00000  Uiso   1.00
C1154  C     0.77755   0.51901   0.08146   0.00000  Uiso   1.00
C1155  C     0.51900   0.77756   0.91854   0.00000  Uiso   1.00
C1156  C     0.98100   0.72244   0.08146   0.00000  Uiso   1.00
C1157  C     0.50000   0.75000   0.39829   0.00000  Uiso   1.00
C1158  C     0.50000   0.75000   0.60171   0.00000  Uiso   1.00
C1159  C     0.75000   0.50000   0.39829   0.00000  Uiso   1.00
C1160  C     0.75000   0.50000   0.60171   0.00000  Uiso   1.00
C1161  C     0.75000   0.50000   0.89829   0.00000  Uiso   1.00
C1162  C     0.75000   0.50000   0.10171   0.00000  Uiso   1.00
C1163  C     0.50000   0.75000   0.89829   0.00000  Uiso   1.00
C1164  C     0.50000   0.75000   0.10171   0.00000  Uiso   1.00
C1165  C     0.94350   0.71491   0.47986   0.00000  Uiso   1.00
C1166  C     0.55650   0.78508   0.52014   0.00000  Uiso   1.00
C1167  C     0.78508   0.55650   0.47986   0.00000  Uiso   1.00
C1168  C     0.71491   0.94350   0.52014   0.00000  Uiso   1.00
C1169  C     0.55650   0.78508   0.47986   0.00000  Uiso   1.00
C1170  C     0.94350   0.71491   0.52014   0.00000  Uiso   1.00
C1171  C     0.71491   0.94350   0.47986   0.00000  Uiso   1.00
C1172  C     0.78508   0.55650   0.52014   0.00000  Uiso   1.00
C1173  C     0.69351   0.96490   0.97986   0.00000  Uiso   1.00
C1174  C     0.80648   0.53511   0.02014   0.00000  Uiso   1.00
C1175  C     0.53509   0.80650   0.97986   0.00000  Uiso   1.00
C1176  C     0.96491   0.69350   0.02014   0.00000  Uiso   1.00
C1177  C     0.80648   0.53511   0.97986   0.00000  Uiso   1.00
C1178  C     0.69351   0.96490   0.02014   0.00000  Uiso   1.00
C1179  C     0.96491   0.69350   0.97986   0.00000  Uiso   1.00
C1180  C     0.53509   0.80650   0.02014   0.00000  Uiso   1.00
C1181  C     0.75000   0.50000   0.35589   0.00000  Uiso   1.00
C1182  C     0.75000   0.50000   0.64412   0.00000  Uiso   1.00
C1183  C     0.50000   0.75000   0.35589   0.00000  Uiso   1.00
C1184  C     0.50000   0.75000   0.64412   0.00000  Uiso   1.00
C1185  C     0.50000   0.75000   0.85589   0.00000  Uiso   1.00
C1186  C     0.50000   0.75000   0.14412   0.00000  Uiso   1.00
C1187  C     0.75000   0.50000   0.85589   0.00000  Uiso   1.00
C1188  C     0.75000   0.50000   0.14412   0.00000  Uiso   1.00
C1189  C     0.67994   0.57006   0.25000   0.00000  Uiso   1.00
C1190  C     0.82006   0.92994   0.75000   0.00000  Uiso   1.00
C1191  C     0.92995   0.67995   0.25000   0.00000  Uiso   1.00
C1192  C     0.57005   0.82005   0.75000   0.00000  Uiso   1.00
C1193  C     0.82006   0.92994   0.25000   0.00000  Uiso   1.00
C1194  C     0.67994   0.57006   0.75000   0.00000  Uiso   1.00
C1195  C     0.57005   0.82005   0.25000   0.00000  Uiso   1.00
C1196  C     0.92995   0.67995   0.75000   0.00000  Uiso   1.00
C1197  C     0.67995   0.92995   0.75000   0.00000  Uiso   1.00
C1198  C     0.82005   0.57005   0.25000   0.00000  Uiso   1.00
C1199  C     0.92994   0.82006   0.75000   0.00000  Uiso   1.00
C1200  C     0.57006   0.67994   0.25000   0.00000  Uiso   1.00
C1201  C     0.82005   0.57005   0.75000   0.00000  Uiso   1.00
C1202  C     0.67995   0.92995   0.25000   0.00000  Uiso   1.00
C1203  C     0.57006   0.67994   0.75000   0.00000  Uiso   1.00
C1204  C     0.92994   0.82006   0.25000   0.00000  Uiso   1.00
C1205  C     0.62092   0.90583   0.22651   0.00000  Uiso   1.00
C1206  C     0.87908   0.59417   0.77349   0.00000  Uiso   1.00
C1207  C     0.59514   0.62187   0.22496   0.00000  Uiso   1.00
C1208  C     0.90486   0.87813   0.77505   0.00000  Uiso   1.00
C1209  C     0.87909   0.59416   0.22653   0.00000  Uiso   1.00
C1210  C     0.62091   0.90583   0.77348   0.00000  Uiso   1.00
C1211  C     0.90486   0.87813   0.22496   0.00000  Uiso   1.00
C1212  C     0.59514   0.62187   0.77505   0.00000  Uiso   1.00
C1213  C     0.62187   0.59514   0.77505   0.00000  Uiso   1.00
C1214  C     0.87813   0.90486   0.22496   0.00000  Uiso   1.00
C1215  C     0.59417   0.87908   0.77348   0.00000  Uiso   1.00
C1216  C     0.90584   0.62091   0.22653   0.00000  Uiso   1.00
C1217  C     0.87812   0.90486   0.77505   0.00000  Uiso   1.00
C1218  C     0.62187   0.59514   0.22496   0.00000  Uiso   1.00
C1219  C     0.90583   0.62092   0.77349   0.00000  Uiso   1.00
C1220  C     0.59417   0.87908   0.22651   0.00000  Uiso   1.00
C1221  C     0.87092   0.65583   0.72651   0.00000  Uiso   1.00
C1222  C     0.62908   0.84417   0.27349   0.00000  Uiso   1.00
C1223  C     0.84514   0.87187   0.72496   0.00000  Uiso   1.00
C1224  C     0.65486   0.62813   0.27505   0.00000  Uiso   1.00
C1225  C     0.62908   0.84417   0.72652   0.00000  Uiso   1.00
C1226  C     0.87091   0.65584   0.27347   0.00000  Uiso   1.00
C1227  C     0.65486   0.62813   0.72496   0.00000  Uiso   1.00
C1228  C     0.84514   0.87187   0.27505   0.00000  Uiso   1.00
C1229  C     0.87187   0.84514   0.27505   0.00000  Uiso   1.00
C1230  C     0.62813   0.65486   0.72496   0.00000  Uiso   1.00
C1231  C     0.84416   0.62909   0.27347   0.00000  Uiso   1.00
C1232  C     0.65583   0.87092   0.72652   0.00000  Uiso   1.00
C1233  C     0.62812   0.65486   0.27505   0.00000  Uiso   1.00
C1234  C     0.87187   0.84514   0.72496   0.00000  Uiso   1.00
C1235  C     0.65583   0.87092   0.27349   0.00000  Uiso   1.00
C1236  C     0.84417   0.62908   0.72651   0.00000  Uiso   1.00
C1237  C     0.97177   0.73199   0.45920   0.00000  Uiso   1.00
C1238  C     0.52823   0.76801   0.54080   0.00000  Uiso   1.00
C1239  C     0.76801   0.52823   0.45920   0.00000  Uiso   1.00
C1240  C     0.73199   0.97177   0.54080   0.00000  Uiso   1.00
C1241  C     0.52823   0.76801   0.45920   0.00000  Uiso   1.00
C1242  C     0.97177   0.73199   0.54080   0.00000  Uiso   1.00
C1243  C     0.73199   0.97177   0.45920   0.00000  Uiso   1.00
C1244  C     0.76801   0.52823   0.54080   0.00000  Uiso   1.00
C1245  C     0.72177   0.98198   0.95920   0.00000  Uiso   1.00
C1246  C     0.77822   0.51802   0.04080   0.00000  Uiso   1.00
C1247  C     0.51801   0.77823   0.95920   0.00000  Uiso   1.00
C1248  C     0.98199   0.72177   0.04080   0.00000  Uiso   1.00
C1249  C     0.77822   0.51802   0.95920   0.00000  Uiso   1.00
C1250  C     0.72177   0.98199   0.04080   0.00000  Uiso   1.00
C1251  C     0.98199   0.72177   0.95920   0.00000  Uiso   1.00
C1252  C     0.51801   0.77823   0.04080   0.00000  Uiso   1.00
C1253  C     0.59812   0.84812   0.25000   0.00000  Uiso   1.00
C1254  C     0.90187   0.65188   0.75000   0.00000  Uiso   1.00
C1255  C     0.65187   0.59813   0.25000   0.00000  Uiso   1.00
C1256  C     0.84813   0.90187   0.75000   0.00000  Uiso   1.00
C1257  C     0.90188   0.65187   0.25000   0.00000  Uiso   1.00
C1258  C     0.59812   0.84812   0.75000   0.00000  Uiso   1.00
C1259  C     0.84813   0.90187   0.25000   0.00000  Uiso   1.00
C1260  C     0.65187   0.59813   0.75000   0.00000  Uiso   1.00
C1261  C     0.59813   0.65187   0.75000   0.00000  Uiso   1.00
C1262  C     0.90187   0.84813   0.25000   0.00000  Uiso   1.00
C1263  C     0.65187   0.90188   0.75000   0.00000  Uiso   1.00
C1264  C     0.84812   0.59812   0.25000   0.00000  Uiso   1.00
C1265  C     0.90187   0.84813   0.75000   0.00000  Uiso   1.00
C1266  C     0.59813   0.65187   0.25000   0.00000  Uiso   1.00
C1267  C     0.84812   0.59812   0.75000   0.00000  Uiso   1.00
C1268  C     0.65188   0.90187   0.25000   0.00000  Uiso   1.00
C1269  C     0.50000   0.75000   0.47956   0.00000  Uiso   1.00
C1270  C     0.50000   0.75000   0.52044   0.00000  Uiso   1.00
C1271  C     0.75000   0.50000   0.47956   0.00000  Uiso   1.00
C1272  C     0.75000   0.50000   0.52044   0.00000  Uiso   1.00
C1273  C     0.75000   0.50000   0.97956   0.00000  Uiso   1.00
C1274  C     0.75000   0.50000   0.02044   0.00000  Uiso   1.00
C1275  C     0.50000   0.75000   0.97956   0.00000  Uiso   1.00
C1276  C     0.50000   0.75000   0.02044   0.00000  Uiso   1.00
H1277  H     0.92128   0.70131   0.46498   0.00000  Uiso   1.00
H1278  H     0.57872   0.79869   0.53502   0.00000  Uiso   1.00
H1279  H     0.79869   0.57872   0.46498   0.00000  Uiso   1.00
H1280  H     0.70130   0.92128   0.53502   0.00000  Uiso   1.00
H1281  H     0.57872   0.79869   0.46498   0.00000  Uiso   1.00
H1282  H     0.92128   0.70131   0.53502   0.00000  Uiso   1.00
H1283  H     0.70130   0.92128   0.46498   0.00000  Uiso   1.00
H1284  H     0.79869   0.57872   0.53502   0.00000  Uiso   1.00
H1285  H     0.67130   0.95128   0.96498   0.00000  Uiso   1.00
H1286  H     0.82870   0.54873   0.03502   0.00000  Uiso   1.00
H1287  H     0.54869   0.82872   0.96498   0.00000  Uiso   1.00
H1288  H     0.95130   0.67128   0.03502   0.00000  Uiso   1.00
H1289  H     0.82870   0.54873   0.96498   0.00000  Uiso   1.00
H1290  H     0.67129   0.95128   0.03502   0.00000  Uiso   1.00
H1291  H     0.95130   0.67128   0.96498   0.00000  Uiso   1.00
H1292  H     0.54869   0.82872   0.03502   0.00000  Uiso   1.00
H1293  H     0.61729   0.92957   0.20821   0.00000  Uiso   1.00
H1294  H     0.88271   0.57043   0.79180   0.00000  Uiso   1.00
H1295  H     0.57220   0.61902   0.20537   0.00000  Uiso   1.00
H1296  H     0.92780   0.88098   0.79463   0.00000  Uiso   1.00
H1297  H     0.88273   0.57041   0.20824   0.00000  Uiso   1.00
H1298  H     0.61728   0.92958   0.79179   0.00000  Uiso   1.00
H1299  H     0.92780   0.88098   0.20537   0.00000  Uiso   1.00
H1300  H     0.57220   0.61902   0.79463   0.00000  Uiso   1.00
H1301  H     0.61902   0.57220   0.79463   0.00000  Uiso   1.00
H1302  H     0.88098   0.92780   0.20537   0.00000  Uiso   1.00
H1303  H     0.57042   0.88272   0.79179   0.00000  Uiso   1.00
H1304  H     0.92959   0.61727   0.20823   0.00000  Uiso   1.00
H1305  H     0.88098   0.92780   0.79463   0.00000  Uiso   1.00
H1306  H     0.61902   0.57220   0.20537   0.00000  Uiso   1.00
H1307  H     0.92957   0.61729   0.79180   0.00000  Uiso   1.00
H1308  H     0.57043   0.88271   0.20821   0.00000  Uiso   1.00
H1309  H     0.86729   0.67957   0.70820   0.00000  Uiso   1.00
H1310  H     0.63271   0.82043   0.29179   0.00000  Uiso   1.00
H1311  H     0.82220   0.86902   0.70537   0.00000  Uiso   1.00
H1312  H     0.67780   0.63098   0.29463   0.00000  Uiso   1.00
H1313  H     0.63271   0.82042   0.70821   0.00000  Uiso   1.00
H1314  H     0.86728   0.67959   0.29177   0.00000  Uiso   1.00
H1315  H     0.67780   0.63098   0.70537   0.00000  Uiso   1.00
H1316  H     0.82220   0.86902   0.29463   0.00000  Uiso   1.00
H1317  H     0.86902   0.82220   0.29463   0.00000  Uiso   1.00
H1318  H     0.63098   0.67780   0.70537   0.00000  Uiso   1.00
H1319  H     0.82041   0.63272   0.29177   0.00000  Uiso   1.00
H1320  H     0.67958   0.86728   0.70821   0.00000  Uiso   1.00
H1321  H     0.63098   0.67780   0.29463   0.00000  Uiso   1.00
H1322  H     0.86902   0.82220   0.70537   0.00000  Uiso   1.00
H1323  H     0.67957   0.86729   0.29179   0.00000  Uiso   1.00
H1324  H     0.82043   0.63271   0.70820   0.00000  Uiso   1.00
O1325  O     0.75000   0.50000   0.25000   0.00000  Uiso   1.00
O1326  O     0.75000   0.50000   0.75000   0.00000  Uiso   1.00
O1327  O     0.50000   0.75000   0.25000   0.00000  Uiso   1.00
O1328  O     0.50000   0.75000   0.75000   0.00000  Uiso   1.00
O1329  O     0.75000   0.96963   0.33755   0.00000  Uiso   1.00
O1330  O     0.75000   0.53037   0.66245   0.00000  Uiso   1.00
O1331  O     0.53036   0.75000   0.33755   0.00000  Uiso   1.00
O1332  O     0.96963   0.75000   0.66245   0.00000  Uiso   1.00
O1333  O     0.75000   0.53037   0.33755   0.00000  Uiso   1.00
O1334  O     0.75000   0.96963   0.66245   0.00000  Uiso   1.00
O1335  O     0.96963   0.75000   0.33755   0.00000  Uiso   1.00
O1336  O     0.53036   0.75000   0.66245   0.00000  Uiso   1.00
O1337  O     0.50000   0.71963   0.83755   0.00000  Uiso   1.00
O1338  O     0.50000   0.78036   0.16245   0.00000  Uiso   1.00
O1339  O     0.78036   0.50000   0.83755   0.00000  Uiso   1.00
O1340  O     0.71963   0.50000   0.16245   0.00000  Uiso   1.00
O1341  O     0.50000   0.78036   0.83755   0.00000  Uiso   1.00
O1342  O     0.50000   0.71963   0.16245   0.00000  Uiso   1.00
O1343  O     0.71963   0.50000   0.83755   0.00000  Uiso   1.00
O1344  O     0.78036   0.50000   0.16245   0.00000  Uiso   1.00
O1345  O     0.70724   0.57307   0.27302   0.00000  Uiso   1.00
O1346  O     0.79275   0.92692   0.72698   0.00000  Uiso   1.00
O1347  O     0.92692   0.70724   0.27302   0.00000  Uiso   1.00
O1348  O     0.57307   0.79275   0.72698   0.00000  Uiso   1.00
O1349  O     0.79275   0.92692   0.27302   0.00000  Uiso   1.00
O1350  O     0.70724   0.57307   0.72698   0.00000  Uiso   1.00
O1351  O     0.57307   0.79275   0.27302   0.00000  Uiso   1.00
O1352  O     0.92692   0.70724   0.72698   0.00000  Uiso   1.00
O1353  O     0.70724   0.92692   0.72698   0.00000  Uiso   1.00
O1354  O     0.79275   0.57307   0.27302   0.00000  Uiso   1.00
O1355  O     0.92692   0.79275   0.72698   0.00000  Uiso   1.00
O1356  O     0.57307   0.70724   0.27302   0.00000  Uiso   1.00
O1357  O     0.79275   0.57307   0.72698   0.00000  Uiso   1.00
O1358  O     0.70724   0.92692   0.27302   0.00000  Uiso   1.00
O1359  O     0.57307   0.70724   0.72698   0.00000  Uiso   1.00
O1360  O     0.92692   0.79275   0.27302   0.00000  Uiso   1.00
O1361  O     0.95724   0.82307   0.77302   0.00000  Uiso   1.00
O1362  O     0.54275   0.67692   0.22698   0.00000  Uiso   1.00
O1363  O     0.67692   0.95724   0.77302   0.00000  Uiso   1.00
O1364  O     0.82307   0.54276   0.22698   0.00000  Uiso   1.00
O1365  O     0.54275   0.67692   0.77302   0.00000  Uiso   1.00
O1366  O     0.95724   0.82307   0.22698   0.00000  Uiso   1.00
O1367  O     0.82307   0.54276   0.77302   0.00000  Uiso   1.00
O1368  O     0.67692   0.95724   0.22698   0.00000  Uiso   1.00
O1369  O     0.95724   0.67692   0.22698   0.00000  Uiso   1.00
O1370  O     0.54275   0.82307   0.77302   0.00000  Uiso   1.00
O1371  O     0.67692   0.54275   0.22698   0.00000  Uiso   1.00
O1372  O     0.82307   0.95724   0.77302   0.00000  Uiso   1.00
O1373  O     0.54275   0.82307   0.22698   0.00000  Uiso   1.00
O1374  O     0.95724   0.67692   0.77302   0.00000  Uiso   1.00
O1375  O     0.82307   0.95724   0.22698   0.00000  Uiso   1.00
O1376  O     0.67692   0.54275   0.77302   0.00000  Uiso   1.00
Zn1377 Zn    0.70659   0.50000   0.21735   0.00000  Uiso   1.00
Zn1378 Zn    0.79340   0.50000   0.78265   0.00000  Uiso   1.00
Zn1379 Zn    0.50000   0.70659   0.21735   0.00000  Uiso   1.00
Zn1380 Zn    0.50000   0.79340   0.78265   0.00000  Uiso   1.00
Zn1381 Zn    0.79340   0.50000   0.21735   0.00000  Uiso   1.00
Zn1382 Zn    0.70659   0.50000   0.78265   0.00000  Uiso   1.00
Zn1383 Zn    0.50000   0.79340   0.21735   0.00000  Uiso   1.00
Zn1384 Zn    0.50000   0.70659   0.78265   0.00000  Uiso   1.00
Zn1385 Zn    0.95659   0.75000   0.71735   0.00000  Uiso   1.00
Zn1386 Zn    0.54340   0.75000   0.28265   0.00000  Uiso   1.00
Zn1387 Zn    0.75000   0.95659   0.71735   0.00000  Uiso   1.00
Zn1388 Zn    0.75000   0.54340   0.28265   0.00000  Uiso   1.00
Zn1389 Zn    0.54340   0.75000   0.71735   0.00000  Uiso   1.00
Zn1390 Zn    0.95659   0.75000   0.28265   0.00000  Uiso   1.00
Zn1391 Zn    0.75000   0.54340   0.71735   0.00000  Uiso   1.00
Zn1392 Zn    0.75000   0.95659   0.28265   0.00000  Uiso   1.00
O1393  O     0.55462   0.78755   0.39850   0.00000  Uiso   1.00
C1394  C     0.54280   0.82370   0.39185   0.00000  Uiso   1.00
H1395  H     0.53678   0.83797   0.41967   0.00000  Uiso   1.00
H1396  H     0.51796   0.82409   0.37322   0.00000  Uiso   1.00
C1397  C     0.57286   0.84470   0.37109   0.00000  Uiso   1.00
H1398  H     0.57918   0.83138   0.34299   0.00000  Uiso   1.00
H1399  H     0.56386   0.87314   0.36551   0.00000  Uiso   1.00
H1400  H     0.59790   0.84533   0.38923   0.00000  Uiso   1.00
O1401  O     0.94538   0.71245   0.60150   0.00000  Uiso   1.00
C1402  C     0.95720   0.67629   0.60815   0.00000  Uiso   1.00
H1403  H     0.98204   0.67591   0.62678   0.00000  Uiso   1.00
H1404  H     0.96322   0.66203   0.58033   0.00000  Uiso   1.00
C1405  C     0.92714   0.65530   0.62891   0.00000  Uiso   1.00
H1406  H     0.90210   0.65466   0.61077   0.00000  Uiso   1.00
H1407  H     0.93614   0.62686   0.63450   0.00000  Uiso   1.00
H1408  H     0.92081   0.66862   0.65701   0.00000  Uiso   1.00
O1409  O     0.71245   0.94538   0.39850   0.00000  Uiso   1.00
C1410  C     0.67629   0.95720   0.39185   0.00000  Uiso   1.00
H1411  H     0.67591   0.98203   0.37321   0.00000  Uiso   1.00
H1412  H     0.66203   0.96323   0.41966   0.00000  Uiso   1.00
C1413  C     0.65530   0.92714   0.37110   0.00000  Uiso   1.00
H1414  H     0.65466   0.90210   0.38925   0.00000  Uiso   1.00
H1415  H     0.62686   0.93614   0.36550   0.00000  Uiso   1.00
H1416  H     0.66862   0.92080   0.34300   0.00000  Uiso   1.00
O1417  O     0.78755   0.55462   0.60150   0.00000  Uiso   1.00
C1418  C     0.82370   0.54280   0.60815   0.00000  Uiso   1.00
H1419  H     0.83797   0.53677   0.58034   0.00000  Uiso   1.00
H1420  H     0.82409   0.51797   0.62679   0.00000  Uiso   1.00
C1421  C     0.84470   0.57286   0.62890   0.00000  Uiso   1.00
H1422  H     0.83138   0.57920   0.65701   0.00000  Uiso   1.00
H1423  H     0.87314   0.56386   0.63449   0.00000  Uiso   1.00
H1424  H     0.84534   0.59790   0.61076   0.00000  Uiso   1.00
O1425  O     0.94537   0.71245   0.39850   0.00000  Uiso   1.00
C1426  C     0.95720   0.67630   0.39184   0.00000  Uiso   1.00
H1427  H     0.96324   0.66203   0.41965   0.00000  Uiso   1.00
H1428  H     0.98202   0.67591   0.37320   0.00000  Uiso   1.00
C1429  C     0.92713   0.65531   0.37110   0.00000  Uiso   1.00
H1430  H     0.92078   0.66862   0.34300   0.00000  Uiso   1.00
H1431  H     0.93613   0.62686   0.36550   0.00000  Uiso   1.00
H1432  H     0.90210   0.65466   0.38926   0.00000  Uiso   1.00
O1433  O     0.55462   0.78755   0.60150   0.00000  Uiso   1.00
C1434  C     0.54280   0.82370   0.60815   0.00000  Uiso   1.00
H1435  H     0.51797   0.82409   0.62679   0.00000  Uiso   1.00
H1436  H     0.53677   0.83797   0.58034   0.00000  Uiso   1.00
C1437  C     0.57286   0.84469   0.62891   0.00000  Uiso   1.00
H1438  H     0.59790   0.84534   0.61076   0.00000  Uiso   1.00
H1439  H     0.56386   0.87314   0.63450   0.00000  Uiso   1.00
H1440  H     0.57919   0.83138   0.65701   0.00000  Uiso   1.00
O1441  O     0.78755   0.55462   0.39850   0.00000  Uiso   1.00
C1442  C     0.82370   0.54280   0.39185   0.00000  Uiso   1.00
H1443  H     0.82409   0.51797   0.37322   0.00000  Uiso   1.00
H1444  H     0.83797   0.53678   0.41967   0.00000  Uiso   1.00
C1445  C     0.84469   0.57286   0.37109   0.00000  Uiso   1.00
H1446  H     0.84532   0.59790   0.38923   0.00000  Uiso   1.00
H1447  H     0.87314   0.56387   0.36551   0.00000  Uiso   1.00
H1448  H     0.83138   0.57919   0.34299   0.00000  Uiso   1.00
O1449  O     0.71245   0.94537   0.60150   0.00000  Uiso   1.00
C1450  C     0.67630   0.95720   0.60816   0.00000  Uiso   1.00
H1451  H     0.66203   0.96324   0.58035   0.00000  Uiso   1.00
H1452  H     0.67592   0.98202   0.62681   0.00000  Uiso   1.00
C1453  C     0.65530   0.92713   0.62890   0.00000  Uiso   1.00
H1454  H     0.66862   0.92077   0.65699   0.00000  Uiso   1.00
H1455  H     0.62686   0.93613   0.63451   0.00000  Uiso   1.00
H1456  H     0.65465   0.90211   0.61073   0.00000  Uiso   1.00
O1457  O     0.80461   0.53757   0.89850   0.00000  Uiso   1.00
C1458  C     0.79277   0.57372   0.89184   0.00000  Uiso   1.00
H1459  H     0.78674   0.58798   0.91965   0.00000  Uiso   1.00
H1460  H     0.76794   0.57409   0.87320   0.00000  Uiso   1.00
C1461  C     0.82283   0.59472   0.87109   0.00000  Uiso   1.00
H1462  H     0.82918   0.58140   0.84299   0.00000  Uiso   1.00
H1463  H     0.81382   0.62316   0.86549   0.00000  Uiso   1.00
H1464  H     0.84786   0.59537   0.88924   0.00000  Uiso   1.00
O1465  O     0.69538   0.96244   0.10150   0.00000  Uiso   1.00
C1466  C     0.70722   0.92629   0.10815   0.00000  Uiso   1.00
H1467  H     0.73205   0.92591   0.12679   0.00000  Uiso   1.00
H1468  H     0.71325   0.91202   0.08034   0.00000  Uiso   1.00
C1469  C     0.67716   0.90529   0.12891   0.00000  Uiso   1.00
H1470  H     0.65212   0.90464   0.11076   0.00000  Uiso   1.00
H1471  H     0.68617   0.87685   0.13450   0.00000  Uiso   1.00
H1472  H     0.67082   0.91861   0.15701   0.00000  Uiso   1.00
O1473  O     0.96244   0.69538   0.89850   0.00000  Uiso   1.00
C1474  C     0.92629   0.70721   0.89185   0.00000  Uiso   1.00
H1475  H     0.92591   0.73203   0.87321   0.00000  Uiso   1.00
H1476  H     0.91203   0.71324   0.91966   0.00000  Uiso   1.00
C1477  C     0.90530   0.67714   0.87109   0.00000  Uiso   1.00
H1478  H     0.90465   0.65211   0.88925   0.00000  Uiso   1.00
H1479  H     0.87686   0.68615   0.86550   0.00000  Uiso   1.00
H1480  H     0.91862   0.67080   0.84300   0.00000  Uiso   1.00
O1481  O     0.53755   0.80462   0.10150   0.00000  Uiso   1.00
C1482  C     0.57370   0.79280   0.10815   0.00000  Uiso   1.00
H1483  H     0.58797   0.78677   0.08034   0.00000  Uiso   1.00
H1484  H     0.57409   0.76796   0.12678   0.00000  Uiso   1.00
C1485  C     0.59470   0.82286   0.12891   0.00000  Uiso   1.00
H1486  H     0.58138   0.82919   0.15701   0.00000  Uiso   1.00
H1487  H     0.62314   0.81385   0.13450   0.00000  Uiso   1.00
H1488  H     0.59534   0.84790   0.11076   0.00000  Uiso   1.00
O1489  O     0.69538   0.96244   0.89850   0.00000  Uiso   1.00
C1490  C     0.70722   0.92630   0.89182   0.00000  Uiso   1.00
H1491  H     0.71331   0.91203   0.91962   0.00000  Uiso   1.00
H1492  H     0.73202   0.92593   0.87314   0.00000  Uiso   1.00
C1493  C     0.67713   0.90529   0.87112   0.00000  Uiso   1.00
H1494  H     0.67071   0.91862   0.84305   0.00000  Uiso   1.00
H1495  H     0.68616   0.87686   0.86548   0.00000  Uiso   1.00
H1496  H     0.65214   0.90460   0.88934   0.00000  Uiso   1.00
O1497  O     0.80462   0.53756   0.10150   0.00000  Uiso   1.00
C1498  C     0.79279   0.57370   0.10819   0.00000  Uiso   1.00
H1499  H     0.76801   0.57405   0.12691   0.00000  Uiso   1.00
H1500  H     0.78668   0.58797   0.08041   0.00000  Uiso   1.00
C1501  C     0.82289   0.59470   0.12887   0.00000  Uiso   1.00
H1502  H     0.84786   0.59542   0.11062   0.00000  Uiso   1.00
H1503  H     0.81386   0.62312   0.13455   0.00000  Uiso   1.00
H1504  H     0.82935   0.58135   0.15692   0.00000  Uiso   1.00
O1505  O     0.53755   0.80462   0.89850   0.00000  Uiso   1.00
C1506  C     0.57370   0.79280   0.89185   0.00000  Uiso   1.00
H1507  H     0.57409   0.76797   0.87321   0.00000  Uiso   1.00
H1508  H     0.58797   0.78677   0.91966   0.00000  Uiso   1.00
C1509  C     0.59470   0.82286   0.87110   0.00000  Uiso   1.00
H1510  H     0.59534   0.84789   0.88925   0.00000  Uiso   1.00
H1511  H     0.62314   0.81386   0.86550   0.00000  Uiso   1.00
H1512  H     0.58138   0.82920   0.84300   0.00000  Uiso   1.00
O1513  O     0.96245   0.69537   0.10150   0.00000  Uiso   1.00
C1514  C     0.92630   0.70720   0.10816   0.00000  Uiso   1.00
H1515  H     0.91203   0.71323   0.08035   0.00000  Uiso   1.00
H1516  H     0.92592   0.73203   0.12680   0.00000  Uiso   1.00
C1517  C     0.90531   0.67714   0.12891   0.00000  Uiso   1.00
H1518  H     0.91863   0.67078   0.15700   0.00000  Uiso   1.00
H1519  H     0.87687   0.68614   0.13452   0.00000  Uiso   1.00
H1520  H     0.90465   0.65211   0.11075   0.00000  Uiso   1.00
loop_
_geom_bond_atom_site_label_1
_geom_bond_atom_site_label_2
_geom_bond_distance
_geom_bond_site_symmetry_2
_ccdc_geom_bond_type
C1     C101    1.402   .     A
C1     O253    1.386   .     S
C1     C17     1.410   .     S
C2     C102    1.402   .     A
C2     O261    1.386   .     S
C2     C398    1.410   .     S
C3     C103    1.402   .     A
C3     O269    1.386   .     S
C3     C779    1.410   .     S
C4     C104    1.402   .     A
C4     O277    1.386   .     S
C4     C20     1.410   .     S
C5     C97     1.402   .     A
C5     O285    1.386   .     S
C5     C397    1.410   .     A
C6     O293    1.386   .     S
C6     C98     1.402   .     A
C6     C18     1.410   .     A
C7     C99     1.402   .     A
C7     C19     1.410   .     A
C7     O301    1.386   .     S
C8     C100    1.402   .     A
C8     C780    1.410   .     A
C8     O309    1.386   .     S
C9     C21     1.410   .     A
C9     C109    1.402   .     A
C9     O317    1.386   .     S
C10    O325    1.386   .     S
C10    C110    1.402   .     A
C10    C782    1.410   .     S
C11    C403    1.410   .     A
C11    C111    1.402   .     A
C11    O333    1.386   .     S
C12    O341    1.386   .     S
C12    C112    1.402   .     A
C12    C24     1.410   .     S
C13    O349    1.386   .     S
C13    C105    1.402   .     A
C13    C781    1.410   .     S
C14    O357    1.386   .     S
C14    C106    1.402   .     A
C14    C22     1.410   .     A
C15    C107    1.402   .     A
C15    O365    1.386   .     S
C15    C23     1.410   .     S
C16    O373    1.386   .     S
C16    C404    1.410   .     A
C16    C108    1.402   .     A
C17    C43     1.462   .     S
C17    C385    1.410   1_455 A
C18    C44     1.462   .     S
C18    C382    1.410   1_455 S
C19    C41     1.462   .     S
C19    C763    1.410   1_545 S
C20    C42     1.462   .     S
C20    C768    1.410   1_545 A
C21    C47     1.462   .     S
C21    C773    1.410   1_545 S
C22    C770    1.410   1_545 S
C22    C48     1.462   .     S
C23    C391    1.410   1_455 A
C23    C45     1.462   .     S
C24    C396    1.410   1_455 A
C24    C46     1.462   .     S
C25    H137    1.083   .     S
C25    C97     1.403   .     A
C25    C30     1.389   .     A
C26    H138    1.083   .     S
C26    C98     1.403   .     A
C26    C29     1.389   .     A
C27    C99     1.403   .     A
C27    H139    1.083   .     S
C27    C32     1.389   .     A
C28    C31     1.389   .     A
C28    H140    1.083   .     S
C28    C100    1.403   .     A
C29    H141    1.083   .     S
C29    C101    1.403   .     A
C30    C102    1.403   .     A
C30    H142    1.083   .     S
C31    H143    1.083   .     S
C31    C103    1.403   .     A
C32    C104    1.403   .     A
C32    H144    1.083   .     S
C33    C105    1.403   .     A
C33    H145    1.083   .     S
C33    C38     1.389   1_556 S
C34    C106    1.403   .     A
C34    H146    1.083   .     S
C34    C37     1.389   1_554 S
C35    C107    1.403   .     A
C35    H147    1.083   .     S
C35    C40     1.389   1_556 S
C36    C108    1.403   .     A
C36    H148    1.083   .     S
C36    C39     1.389   1_554 S
C37    C109    1.403   .     A
C37    H149    1.083   .     S
C37    C34     1.389   1_556 S
C38    C110    1.403   .     A
C38    H150    1.083   .     S
C38    C33     1.389   1_554 S
C39    C111    1.403   .     A
C39    H151    1.083   .     S
C39    C36     1.389   1_556 S
C40    C112    1.403   .     A
C40    H152    1.083   .     S
C40    C35     1.389   1_554 S
C41    O193    1.280   .     A
C41    O949    1.280   1_545 S
C42    O954    1.280   1_545 A
C42    O190    1.280   .     S
C43    O575    1.280   1_455 A
C43    O191    1.280   .     S
C44    O196    1.280   .     A
C44    O572    1.280   1_455 S
C45    O201    1.280   .     A
C45    O197    1.280   .     S
C46    O198    1.280   .     A
C46    O202    1.280   .     S
C47    O199    1.280   .     A
C47    O203    1.280   .     A
C48    O204    1.280   .     A
C48    O200    1.280   .     A
C49    C115    1.456   .     S
C49    O231    1.282   .     A
C49    O205    1.282   .     A
C50    O232    1.282   .     A
C50    O206    1.282   .     A
C50    C116    1.456   .     S
C51    O207    1.282   .     A
C51    C117    1.453   .     S
C51    O229    1.282   .     A
C52    O230    1.282   .     A
C52    C118    1.453   .     S
C52    O208    1.282   .     A
C53    O209    1.282   .     A
C53    O235    1.282   .     A
C53    C119    1.456   .     S
C54    O236    1.282   .     A
C54    O210    1.282   .     A
C54    C120    1.456   .     S
C55    O233    1.282   .     A
C55    C113    1.453   .     S
C55    O211    1.282   .     A
C56    O234    1.282   .     A
C56    O212    1.282   .     A
C56    C114    1.453   .     S
C57    C123    1.453   .     S
C57    O223    1.282   .     A
C57    O213    1.282   .     A
C58    O214    1.282   .     A
C58    O224    1.282   .     A
C58    C124    1.453   .     S
C59    O215    1.282   .     A
C59    C125    1.456   .     S
C59    O221    1.282   .     A
C60    O216    1.282   .     A
C60    O222    1.282   .     A
C60    C126    1.456   .     S
C61    O227    1.282   .     A
C61    O217    1.282   .     A
C61    C127    1.453   .     S
C62    O228    1.282   .     A
C62    O218    1.282   .     A
C62    C128    1.453   .     S
C63    O219    1.282   .     A
C63    O225    1.282   .     A
C63    C121    1.456   .     S
C64    O226    1.282   .     A
C64    O220    1.282   .     A
C64    C122    1.456   .     S
C65    C128    1.401   .     A
C65    H153    1.083   .     S
C65    C80     1.385   .     A
C66    C79     1.385   .     A
C66    H154    1.083   .     S
C66    C127    1.401   .     A
C67    H155    1.083   .     S
C67    C126    1.402   .     A
C67    C78     1.386   .     A
C68    C77     1.386   .     A
C68    C125    1.402   .     A
C68    H156    1.083   .     S
C69    H157    1.083   .     S
C69    C76     1.385   .     A
C69    C124    1.401   .     A
C70    C75     1.385   .     A
C70    H158    1.083   .     S
C70    C123    1.401   .     A
C71    C122    1.402   .     A
C71    C74     1.386   .     A
C71    H159    1.083   .     S
C72    C73     1.386   .     A
C72    C121    1.402   .     A
C72    H160    1.083   .     S
C73    H161    1.083   .     S
C73    C120    1.402   .     A
C74    H162    1.083   .     S
C74    C119    1.402   .     A
C75    C118    1.401   .     A
C75    H163    1.083   .     S
C76    C117    1.401   .     A
C76    H164    1.083   .     S
C77    H165    1.083   .     S
C77    C116    1.402   .     A
C78    C115    1.402   .     A
C78    H166    1.083   .     S
C79    H167    1.083   .     S
C79    C114    1.401   .     A
C80    H168    1.083   .     S
C80    C113    1.401   .     A
C81    H169    1.083   .     S
C81    C114    1.401   .     A
C81    C96     1.385   .     A
C82    C95     1.385   .     A
C82    C113    1.401   .     A
C82    H170    1.083   .     S
C83    H171    1.083   .     S
C83    C94     1.386   .     A
C83    C116    1.402   .     A
C84    C93     1.386   .     A
C84    H172    1.083   .     S
C84    C115    1.402   .     A
C85    H173    1.083   .     S
C85    C118    1.401   .     A
C85    C92     1.385   .     A
C86    H174    1.083   .     S
C86    C117    1.401   .     A
C86    C91     1.385   .     A
C87    H175    1.083   .     S
C87    C90     1.386   .     A
C87    C120    1.402   .     A
C88    C89     1.386   .     A
C88    H176    1.083   .     S
C88    C119    1.402   .     A
C89    C122    1.402   .     A
C89    H177    1.083   .     S
C90    C121    1.402   .     A
C90    H178    1.083   .     S
C91    H179    1.083   .     S
C91    C124    1.401   .     A
C92    H180    1.083   .     S
C92    C123    1.401   .     A
C93    H181    1.083   .     S
C93    C126    1.402   .     A
C94    C125    1.402   .     A
C94    H182    1.083   .     S
C95    H183    1.083   .     S
C95    C128    1.401   .     A
C96    C127    1.401   .     A
C96    H184    1.083   .     S
C97    C509    1.413   .     S
C98    C130    1.413   .     A
C99    C131    1.413   .     A
C100   C892    1.413   .     S
C101   C129    1.413   .     A
C102   C510    1.413   .     S
C103   C891    1.413   .     S
C104   C132    1.413   .     A
C105   C893    1.413   .     S
C106   C134    1.413   .     A
C107   C135    1.413   .     S
C108   C516    1.413   .     A
C109   C133    1.413   .     A
C110   C894    1.413   .     S
C111   C515    1.413   .     A
C112   C136    1.413   .     S
C129   C130    1.409   .     A
C129   C477    1.413   1_455 S
C130   C482    1.413   1_455 S
C131   C132    1.409   .     A
C131   C863    1.413   1_545 S
C132   C860    1.413   1_545 S
C133   C865    1.413   1_545 S
C133   C134    1.409   1_556 S
C134   C870    1.413   1_545 S
C134   C133    1.409   1_554 S
C135   C491    1.413   1_455 A
C135   C136    1.409   1_556 S
C136   C488    1.413   1_455 A
C136   C135    1.409   1_554 S
O185   Zn237   1.948   .     S
O185   Zn241   1.948   .     S
O185   Zn248   1.948   .     S
O185   Zn1012  1.948   1_545 S
O186   Zn242   1.948   .     S
O186   Zn251   1.948   .     S
O186   Zn238   1.948   .     S
O186   Zn1007  1.948   1_545 S
O187   Zn246   1.948   .     S
O187   Zn239   1.948   .     S
O187   Zn243   1.948   .     S
O187   Zn630   1.948   1_455 S
O188   Zn249   1.948   .     S
O188   Zn244   1.948   .     S
O188   Zn240   1.948   .     S
O188   Zn625   1.948   1_455 S
O189   Zn252   1.952   .     S
O189   C801    1.280   .     S
O190   Zn251   1.952   .     S
O191   Zn246   1.952   .     S
O192   Zn245   1.952   .     S
O192   C424    1.280   .     S
O193   Zn248   1.952   .     S
O194   Zn247   1.952   .     S
O194   C802    1.280   .     A
O195   C423    1.280   .     A
O195   Zn250   1.952   .     S
O196   Zn249   1.952   .     S
O197   Zn244   1.952   .     S
O198   Zn243   1.952   .     S
O199   Zn238   1.952   .     S
O200   Zn237   1.952   .     S
O201   Zn240   1.952   .     S
O202   Zn239   1.952   .     S
O203   Zn242   1.952   .     S
O204   Zn241   1.952   .     S
O205   Zn248   1.937   .     S
O206   Zn247   1.937   .     S
O207   Zn250   1.934   .     S
O208   Zn249   1.934   .     S
O209   Zn252   1.937   .     S
O210   Zn251   1.937   .     S
O211   Zn246   1.934   .     S
O212   Zn245   1.934   .     S
O213   Zn247   1.934   .     S
O214   Zn248   1.934   .     S
O215   Zn245   1.937   .     S
O216   Zn246   1.937   .     S
O217   Zn251   1.934   .     S
O218   Zn252   1.934   .     S
O219   Zn249   1.937   .     S
O220   Zn250   1.937   .     S
O221   Zn620   1.937   .     S
O222   Zn239   1.937   .     S
O223   Zn1002  1.934   .     S
O224   Zn241   1.934   .     S
O225   Zn244   1.937   .     S
O226   Zn623   1.937   .     S
O227   Zn238   1.934   .     S
O228   Zn997   1.934   .     S
O229   Zn619   1.934   .     S
O230   Zn240   1.934   .     S
O231   Zn237   1.937   .     S
O232   Zn998   1.937   .     S
O233   Zn243   1.934   .     S
O234   Zn624   1.934   .     S
O235   Zn1001  1.937   .     S
O236   Zn242   1.937   .     S
Zn237  O988    1.934   1_545 S
Zn238  O992    1.937   1_545 S
Zn239  O609    1.934   1_455 S
Zn240  O601    1.937   1_455 S
Zn241  O995    1.937   1_545 S
Zn242  O983    1.934   1_545 S
Zn243  O606    1.937   1_455 S
Zn244  O614    1.934   1_455 S
Zn245  O568    1.948   .     S
Zn247  O946    1.948   .     S
Zn250  O567    1.948   .     S
Zn252  O945    1.948   .     S
O253   C254    1.413   .     S
C254   C257    1.521   .     S
C254   H255    1.114   .     S
C254   H256    1.114   .     S
C257   H258    1.109   .     S
C257   H260    1.111   .     S
C257   H259    1.110   .     S
O261   C262    1.413   .     S
C262   H263    1.114   .     S
C262   C265    1.521   .     S
C262   H264    1.114   .     S
C265   H267    1.110   .     S
C265   H266    1.111   .     S
C265   H268    1.109   .     S
O269   C270    1.413   .     S
C270   H272    1.114   .     S
C270   C273    1.521   .     S
C270   H271    1.114   .     S
C273   H276    1.109   .     S
C273   H275    1.110   .     S
C273   H274    1.111   .     S
O277   C278    1.413   .     S
C278   H279    1.114   .     S
C278   C281    1.521   .     S
C278   H280    1.114   .     S
C281   H284    1.111   .     S
C281   H283    1.110   .     S
C281   H282    1.110   .     S
O285   C286    1.413   .     S
C286   C289    1.521   .     S
C286   H288    1.114   .     S
C286   H287    1.114   .     S
C289   H290    1.109   .     S
C289   H292    1.111   .     S
C289   H291    1.110   .     S
O293   C294    1.413   .     S
C294   H295    1.114   .     S
C294   C297    1.521   .     S
C294   H296    1.114   .     S
C297   H299    1.110   .     S
C297   H298    1.111   .     S
C297   H300    1.109   .     S
O301   C302    1.413   .     S
C302   H304    1.114   .     S
C302   C305    1.521   .     S
C302   H303    1.114   .     S
C305   H307    1.110   .     S
C305   H306    1.111   .     S
C305   H308    1.109   .     S
O309   C310    1.413   .     S
C310   H312    1.114   .     S
C310   H311    1.114   .     S
C310   C313    1.521   .     S
C313   H315    1.110   .     S
C313   H314    1.109   .     S
C313   H316    1.111   .     S
O317   C318    1.413   .     S
C318   C321    1.521   .     S
C318   H320    1.114   .     S
C318   H319    1.114   .     S
C321   H322    1.109   .     S
C321   H324    1.111   .     S
C321   H323    1.110   .     S
O325   C326    1.413   .     S
C326   H327    1.114   .     S
C326   C329    1.521   .     S
C326   H328    1.114   .     S
C329   H331    1.110   .     S
C329   H330    1.111   .     S
C329   H332    1.109   .     S
O333   C334    1.413   .     S
C334   C337    1.521   .     S
C334   H335    1.114   .     S
C334   H336    1.114   .     S
C337   H338    1.111   .     S
C337   H340    1.110   .     S
C337   H339    1.110   .     S
O341   C342    1.413   .     S
C342   H343    1.114   .     S
C342   C345    1.521   .     S
C342   H344    1.114   .     S
C345   H348    1.111   .     S
C345   H347    1.110   .     S
C345   H346    1.110   .     S
O349   C350    1.413   .     S
C350   H351    1.114   .     S
C350   H352    1.114   .     S
C350   C353    1.521   .     S
C353   H355    1.110   .     S
C353   H354    1.110   .     S
C353   H356    1.111   .     S
O357   C358    1.413   .     S
C358   C361    1.521   .     S
C358   H360    1.114   .     S
C358   H359    1.114   .     S
C361   H364    1.109   .     S
C361   H363    1.110   .     S
C361   H362    1.111   .     S
O365   C366    1.413   .     S
C366   C369    1.521   .     S
C366   H367    1.114   .     S
C366   H368    1.114   .     S
C369   H372    1.109   .     S
C369   H371    1.110   .     S
C369   H370    1.111   .     S
O373   C374    1.413   .     S
C374   H375    1.114   .     S
C374   C377    1.521   .     S
C374   H376    1.114   .     S
C377   H380    1.111   .     S
C377   H379    1.110   .     S
C377   H378    1.109   .     S
C381   C481    1.402   .     A
C381   O633    1.386   .     S
C381   C397    1.410   .     S
C382   C482    1.402   .     A
C382   O641    1.386   .     S
C382   C18     1.410   1_655 S
C383   C483    1.402   .     A
C383   O649    1.386   .     S
C383   C1159   1.410   .     S
C384   C484    1.402   .     A
C384   O657    1.386   .     S
C384   C400    1.410   .     S
C385   C477    1.402   .     A
C385   O665    1.386   .     S
C385   C17     1.410   1_655 A
C386   O673    1.386   .     S
C386   C478    1.402   .     A
C386   C398    1.410   .     A
C387   C479    1.402   .     A
C387   C399    1.410   .     A
C387   O681    1.386   .     S
C388   C480    1.402   .     A
C388   C1160   1.410   .     A
C388   O689    1.386   .     S
C389   C401    1.410   .     A
C389   C489    1.402   .     A
C389   O697    1.386   .     S
C390   O705    1.386   .     S
C390   C490    1.402   .     A
C390   C1162   1.410   .     S
C391   C23     1.410   1_655 A
C391   C491    1.402   .     A
C391   O713    1.386   .     S
C392   O721    1.386   .     S
C392   C492    1.402   .     A
C392   C404    1.410   .     S
C393   O729    1.386   .     S
C393   C485    1.402   .     A
C393   C1161   1.410   .     S
C394   O737    1.386   .     S
C394   C486    1.402   .     A
C394   C402    1.410   .     A
C395   C487    1.402   .     A
C395   O745    1.386   .     S
C395   C403    1.410   .     S
C396   O753    1.386   .     S
C396   C24     1.410   1_655 A
C396   C488    1.402   .     A
C397   C423    1.462   .     S
C398   C424    1.462   .     S
C399   C421    1.462   .     S
C399   C1143   1.410   1_545 S
C400   C422    1.462   .     S
C400   C1148   1.410   1_545 A
C401   C427    1.462   .     S
C401   C1153   1.410   1_545 S
C402   C1150   1.410   1_545 S
C402   C428    1.462   .     S
C403   C425    1.462   .     S
C404   C426    1.462   .     S
C405   H517    1.083   .     S
C405   C477    1.403   .     A
C405   C410    1.389   .     A
C406   H518    1.083   .     S
C406   C478    1.403   .     A
C406   C409    1.389   .     A
C407   C479    1.403   .     A
C407   H519    1.083   .     S
C407   C412    1.389   .     A
C408   C411    1.389   .     A
C408   H520    1.083   .     S
C408   C480    1.403   .     A
C409   H521    1.083   .     S
C409   C481    1.403   .     A
C410   C482    1.403   .     A
C410   H522    1.083   .     S
C411   H523    1.083   .     S
C411   C483    1.403   .     A
C412   C484    1.403   .     A
C412   H524    1.083   .     S
C413   C485    1.403   .     A
C413   H525    1.083   .     S
C413   C418    1.389   1_556 S
C414   C486    1.403   .     A
C414   H526    1.083   .     S
C414   C417    1.389   1_554 S
C415   C487    1.403   .     A
C415   H527    1.083   .     S
C415   C420    1.389   1_556 S
C416   C488    1.403   .     A
C416   H528    1.083   .     S
C416   C419    1.389   1_554 S
C417   C489    1.403   .     A
C417   H529    1.083   .     S
C417   C414    1.389   1_556 S
C418   C490    1.403   .     A
C418   H530    1.083   .     S
C418   C413    1.389   1_554 S
C419   C491    1.403   .     A
C419   H531    1.083   .     S
C419   C416    1.389   1_556 S
C420   C492    1.403   .     A
C420   H532    1.083   .     S
C420   C415    1.389   1_554 S
C421   O573    1.280   .     A
C421   O1329   1.280   1_545 S
C422   O1334   1.280   1_545 A
C422   O570    1.280   .     S
C423   O571    1.280   .     S
C424   O576    1.280   .     A
C425   O581    1.280   .     A
C425   O577    1.280   .     S
C426   O578    1.280   .     A
C426   O582    1.280   .     S
C427   O579    1.280   .     A
C427   O583    1.280   .     A
C428   O584    1.280   .     A
C428   O580    1.280   .     A
C429   C495    1.456   .     S
C429   O611    1.282   .     A
C429   O585    1.282   .     A
C430   O612    1.282   .     A
C430   O586    1.282   .     A
C430   C496    1.456   .     S
C431   O587    1.282   .     A
C431   C497    1.453   .     S
C431   O609    1.282   .     A
C432   O610    1.282   .     A
C432   C498    1.453   .     S
C432   O588    1.282   .     A
C433   O589    1.282   .     A
C433   O615    1.282   .     A
C433   C499    1.456   .     S
C434   O616    1.282   .     A
C434   O590    1.282   .     A
C434   C500    1.456   .     S
C435   O613    1.282   .     A
C435   C493    1.453   .     S
C435   O591    1.282   .     A
C436   O614    1.282   .     A
C436   O592    1.282   .     A
C436   C494    1.453   .     S
C437   C503    1.453   .     S
C437   O603    1.282   .     A
C437   O593    1.282   .     A
C438   O594    1.282   .     A
C438   O604    1.282   .     A
C438   C504    1.453   .     S
C439   O595    1.282   .     A
C439   C505    1.456   .     S
C439   O601    1.282   .     A
C440   O596    1.282   .     A
C440   O602    1.282   .     A
C440   C506    1.456   .     S
C441   O607    1.282   .     A
C441   O597    1.282   .     A
C441   C507    1.453   .     S
C442   O608    1.282   .     A
C442   O598    1.282   .     A
C442   C508    1.453   .     S
C443   O599    1.282   .     A
C443   O605    1.282   .     A
C443   C501    1.456   .     S
C444   O606    1.282   .     A
C444   O600    1.282   .     A
C444   C502    1.456   .     S
C445   C508    1.401   .     A
C445   H533    1.083   .     S
C445   C460    1.385   .     A
C446   C459    1.385   .     A
C446   H534    1.083   .     S
C446   C507    1.401   .     A
C447   H535    1.083   .     S
C447   C506    1.402   .     A
C447   C458    1.386   .     A
C448   C457    1.386   .     A
C448   C505    1.402   .     A
C448   H536    1.083   .     S
C449   H537    1.083   .     S
C449   C456    1.385   .     A
C449   C504    1.401   .     A
C450   C455    1.385   .     A
C450   H538    1.083   .     S
C450   C503    1.401   .     A
C451   C502    1.402   .     A
C451   C454    1.386   .     A
C451   H539    1.083   .     S
C452   C453    1.386   .     A
C452   C501    1.402   .     A
C452   H540    1.083   .     S
C453   H541    1.083   .     S
C453   C500    1.402   .     A
C454   H542    1.083   .     S
C454   C499    1.402   .     A
C455   C498    1.401   .     A
C455   H543    1.083   .     S
C456   C497    1.401   .     A
C456   H544    1.083   .     S
C457   H545    1.083   .     S
C457   C496    1.402   .     A
C458   C495    1.402   .     A
C458   H546    1.083   .     S
C459   H547    1.083   .     S
C459   C494    1.401   .     A
C460   H548    1.083   .     S
C460   C493    1.401   .     A
C461   H549    1.083   .     S
C461   C494    1.401   .     A
C461   C476    1.385   .     A
C462   C475    1.385   .     A
C462   C493    1.401   .     A
C462   H550    1.083   .     S
C463   H551    1.083   .     S
C463   C474    1.386   .     A
C463   C496    1.402   .     A
C464   C473    1.386   .     A
C464   H552    1.083   .     S
C464   C495    1.402   .     A
C465   H553    1.083   .     S
C465   C498    1.401   .     A
C465   C472    1.385   .     A
C466   H554    1.083   .     S
C466   C497    1.401   .     A
C466   C471    1.385   .     A
C467   H555    1.083   .     S
C467   C470    1.386   .     A
C467   C500    1.402   .     A
C468   C469    1.386   .     A
C468   H556    1.083   .     S
C468   C499    1.402   .     A
C469   C502    1.402   .     A
C469   H557    1.083   .     S
C470   C501    1.402   .     A
C470   H558    1.083   .     S
C471   H559    1.083   .     S
C471   C504    1.401   .     A
C472   H560    1.083   .     S
C472   C503    1.401   .     A
C473   H561    1.083   .     S
C473   C506    1.402   .     A
C474   C505    1.402   .     A
C474   H562    1.083   .     S
C475   H563    1.083   .     S
C475   C508    1.401   .     A
C476   C507    1.401   .     A
C476   H564    1.083   .     S
C477   C129    1.413   1_655 S
C478   C510    1.413   .     A
C479   C511    1.413   .     A
C480   C1272   1.413   .     S
C481   C509    1.413   .     A
C482   C130    1.413   1_655 S
C483   C1271   1.413   .     S
C484   C512    1.413   .     A
C485   C1273   1.413   .     S
C486   C514    1.413   .     A
C487   C515    1.413   .     S
C488   C136    1.413   1_655 A
C489   C513    1.413   .     A
C490   C1274   1.413   .     S
C491   C135    1.413   1_655 A
C492   C516    1.413   .     S
C509   C510    1.409   .     A
C511   C512    1.409   .     A
C511   C1243   1.413   1_545 S
C512   C1240   1.413   1_545 S
C513   C1245   1.413   1_545 S
C513   C514    1.409   1_556 S
C514   C1250   1.413   1_545 S
C514   C513    1.409   1_554 S
C515   C516    1.409   1_556 S
C516   C515    1.409   1_554 S
O565   Zn617   1.948   .     S
O565   Zn621   1.948   .     S
O565   Zn628   1.948   .     S
O565   Zn1392  1.948   1_545 S
O566   Zn622   1.948   .     S
O566   Zn631   1.948   .     S
O566   Zn618   1.948   .     S
O566   Zn1387  1.948   1_545 S
O567   Zn626   1.948   .     S
O567   Zn619   1.948   .     S
O567   Zn623   1.948   .     S
O568   Zn629   1.948   .     S
O568   Zn624   1.948   .     S
O568   Zn620   1.948   .     S
O569   Zn632   1.952   .     S
O569   C1181   1.280   .     S
O570   Zn631   1.952   .     S
O571   Zn626   1.952   .     S
O572   Zn625   1.952   .     S
O572   C44     1.280   1_655 S
O573   Zn628   1.952   .     S
O574   Zn627   1.952   .     S
O574   C1182   1.280   .     A
O575   C43     1.280   1_655 A
O575   Zn630   1.952   .     S
O576   Zn629   1.952   .     S
O577   Zn624   1.952   .     S
O578   Zn623   1.952   .     S
O579   Zn618   1.952   .     S
O580   Zn617   1.952   .     S
O581   Zn620   1.952   .     S
O582   Zn619   1.952   .     S
O583   Zn622   1.952   .     S
O584   Zn621   1.952   .     S
O585   Zn628   1.937   .     S
O586   Zn627   1.937   .     S
O587   Zn630   1.934   .     S
O588   Zn629   1.934   .     S
O589   Zn632   1.937   .     S
O590   Zn631   1.937   .     S
O591   Zn626   1.934   .     S
O592   Zn625   1.934   .     S
O593   Zn627   1.934   .     S
O594   Zn628   1.934   .     S
O595   Zn625   1.937   .     S
O596   Zn626   1.937   .     S
O597   Zn631   1.934   .     S
O598   Zn632   1.934   .     S
O599   Zn629   1.937   .     S
O600   Zn630   1.937   .     S
O601   Zn240   1.937   1_655 S
O602   Zn619   1.937   .     S
O603   Zn1382  1.934   .     S
O604   Zn621   1.934   .     S
O605   Zn624   1.937   .     S
O606   Zn243   1.937   1_655 S
O607   Zn618   1.934   .     S
O608   Zn1377  1.934   .     S
O609   Zn239   1.934   1_655 S
O610   Zn620   1.934   .     S
O611   Zn617   1.937   .     S
O612   Zn1378  1.937   .     S
O613   Zn623   1.934   .     S
O614   Zn244   1.934   1_655 S
O615   Zn1381  1.937   .     S
O616   Zn622   1.937   .     S
Zn617  O1368   1.934   1_545 S
Zn618  O1372   1.937   1_545 S
Zn621  O1375   1.937   1_545 S
Zn622  O1363   1.934   1_545 S
Zn625  O188    1.948   1_655 S
Zn627  O1326   1.948   .     S
Zn630  O187    1.948   1_655 S
Zn632  O1325   1.948   .     S
O633   C634    1.413   .     S
C634   C637    1.521   .     S
C634   H635    1.114   .     S
C634   H636    1.114   .     S
C637   H638    1.109   .     S
C637   H640    1.111   .     S
C637   H639    1.110   .     S
O641   C642    1.413   .     S
C642   H643    1.114   .     S
C642   C645    1.521   .     S
C642   H644    1.114   .     S
C645   H647    1.110   .     S
C645   H646    1.111   .     S
C645   H648    1.109   .     S
O649   C650    1.413   .     S
C650   H652    1.114   .     S
C650   C653    1.521   .     S
C650   H651    1.114   .     S
C653   H656    1.109   .     S
C653   H655    1.110   .     S
C653   H654    1.111   .     S
O657   C658    1.413   .     S
C658   H659    1.114   .     S
C658   C661    1.521   .     S
C658   H660    1.114   .     S
C661   H664    1.111   .     S
C661   H663    1.110   .     S
C661   H662    1.110   .     S
O665   C666    1.413   .     S
C666   C669    1.521   .     S
C666   H668    1.114   .     S
C666   H667    1.114   .     S
C669   H670    1.109   .     S
C669   H672    1.111   .     S
C669   H671    1.110   .     S
O673   C674    1.413   .     S
C674   H675    1.114   .     S
C674   C677    1.521   .     S
C674   H676    1.114   .     S
C677   H679    1.110   .     S
C677   H678    1.111   .     S
C677   H680    1.109   .     S
O681   C682    1.413   .     S
C682   H684    1.114   .     S
C682   C685    1.521   .     S
C682   H683    1.114   .     S
C685   H687    1.110   .     S
C685   H686    1.111   .     S
C685   H688    1.109   .     S
O689   C690    1.413   .     S
C690   H692    1.114   .     S
C690   H691    1.114   .     S
C690   C693    1.521   .     S
C693   H695    1.110   .     S
C693   H694    1.109   .     S
C693   H696    1.111   .     S
O697   C698    1.413   .     S
C698   C701    1.521   .     S
C698   H700    1.114   .     S
C698   H699    1.114   .     S
C701   H702    1.109   .     S
C701   H704    1.111   .     S
C701   H703    1.110   .     S
O705   C706    1.413   .     S
C706   H707    1.114   .     S
C706   C709    1.521   .     S
C706   H708    1.114   .     S
C709   H711    1.110   .     S
C709   H710    1.111   .     S
C709   H712    1.109   .     S
O713   C714    1.413   .     S
C714   C717    1.521   .     S
C714   H715    1.114   .     S
C714   H716    1.114   .     S
C717   H718    1.111   .     S
C717   H720    1.110   .     S
C717   H719    1.110   .     S
O721   C722    1.413   .     S
C722   H723    1.114   .     S
C722   C725    1.521   .     S
C722   H724    1.114   .     S
C725   H728    1.111   .     S
C725   H727    1.110   .     S
C725   H726    1.110   .     S
O729   C730    1.413   .     S
C730   H731    1.114   .     S
C730   H732    1.114   .     S
C730   C733    1.521   .     S
C733   H735    1.110   .     S
C733   H734    1.110   .     S
C733   H736    1.111   .     S
O737   C738    1.413   .     S
C738   C741    1.521   .     S
C738   H740    1.114   .     S
C738   H739    1.114   .     S
C741   H744    1.109   .     S
C741   H743    1.110   .     S
C741   H742    1.111   .     S
O745   C746    1.413   .     S
C746   C749    1.521   .     S
C746   H747    1.114   .     S
C746   H748    1.114   .     S
C749   H752    1.109   .     S
C749   H751    1.110   .     S
C749   H750    1.111   .     S
O753   C754    1.413   .     S
C754   H755    1.114   .     S
C754   C757    1.521   .     S
C754   H756    1.114   .     S
C757   H760    1.111   .     S
C757   H759    1.110   .     S
C757   H758    1.109   .     S
C761   C861    1.402   .     A
C761   O1013   1.386   .     S
C761   C777    1.410   .     S
C762   C862    1.402   .     A
C762   O1021   1.386   .     S
C762   C1158   1.410   .     S
C763   C863    1.402   .     A
C763   O1029   1.386   .     S
C763   C19     1.410   1_565 S
C764   C864    1.402   .     A
C764   O1037   1.386   .     S
C764   C780    1.410   .     S
C765   C857    1.402   .     A
C765   O1045   1.386   .     S
C765   C1157   1.410   .     A
C766   O1053   1.386   .     S
C766   C858    1.402   .     A
C766   C778    1.410   .     A
C767   C859    1.402   .     A
C767   C779    1.410   .     A
C767   O1061   1.386   .     S
C768   C860    1.402   .     A
C768   C20     1.410   1_565 A
C768   O1069   1.386   .     S
C769   C781    1.410   .     A
C769   C869    1.402   .     A
C769   O1077   1.386   .     S
C770   O1085   1.386   .     S
C770   C870    1.402   .     A
C770   C22     1.410   1_565 S
C771   C1163   1.410   .     A
C771   C871    1.402   .     A
C771   O1093   1.386   .     S
C772   O1101   1.386   .     S
C772   C872    1.402   .     A
C772   C784    1.410   .     S
C773   O1109   1.386   .     S
C773   C865    1.402   .     A
C773   C21     1.410   1_565 S
C774   O1117   1.386   .     S
C774   C866    1.402   .     A
C774   C782    1.410   .     A
C775   C867    1.402   .     A
C775   O1125   1.386   .     S
C775   C783    1.410   .     S
C776   O1133   1.386   .     S
C776   C1164   1.410   .     A
C776   C868    1.402   .     A
C777   C803    1.462   .     S
C777   C1145   1.410   1_455 A
C778   C804    1.462   .     S
C778   C1142   1.410   1_455 S
C779   C801    1.462   .     S
C780   C802    1.462   .     S
C781   C807    1.462   .     S
C782   C808    1.462   .     S
C783   C1151   1.410   1_455 A
C783   C805    1.462   .     S
C784   C1156   1.410   1_455 A
C784   C806    1.462   .     S
C785   H897    1.083   .     S
C785   C857    1.403   .     A
C785   C790    1.389   .     A
C786   H898    1.083   .     S
C786   C858    1.403   .     A
C786   C789    1.389   .     A
C787   C859    1.403   .     A
C787   H899    1.083   .     S
C787   C792    1.389   .     A
C788   C791    1.389   .     A
C788   H900    1.083   .     S
C788   C860    1.403   .     A
C789   H901    1.083   .     S
C789   C861    1.403   .     A
C790   C862    1.403   .     A
C790   H902    1.083   .     S
C791   H903    1.083   .     S
C791   C863    1.403   .     A
C792   C864    1.403   .     A
C792   H904    1.083   .     S
C793   C865    1.403   .     A
C793   H905    1.083   .     S
C793   C798    1.389   1_556 S
C794   C866    1.403   .     A
C794   H906    1.083   .     S
C794   C797    1.389   1_554 S
C795   C867    1.403   .     A
C795   H907    1.083   .     S
C795   C800    1.389   1_556 S
C796   C868    1.403   .     A
C796   H908    1.083   .     S
C796   C799    1.389   1_554 S
C797   C869    1.403   .     A
C797   H909    1.083   .     S
C797   C794    1.389   1_556 S
C798   C870    1.403   .     A
C798   H910    1.083   .     S
C798   C793    1.389   1_554 S
C799   C871    1.403   .     A
C799   H911    1.083   .     S
C799   C796    1.389   1_556 S
C800   C872    1.403   .     A
C800   H912    1.083   .     S
C800   C795    1.389   1_554 S
C801   O953    1.280   .     A
C802   O950    1.280   .     S
C803   O1335   1.280   1_455 A
C803   O951    1.280   .     S
C804   O956    1.280   .     A
C804   O1332   1.280   1_455 S
C805   O961    1.280   .     A
C805   O957    1.280   .     S
C806   O958    1.280   .     A
C806   O962    1.280   .     S
C807   O959    1.280   .     A
C807   O963    1.280   .     A
C808   O964    1.280   .     A
C808   O960    1.280   .     A
C809   C875    1.456   .     S
C809   O991    1.282   .     A
C809   O965    1.282   .     A
C810   O992    1.282   .     A
C810   O966    1.282   .     A
C810   C876    1.456   .     S
C811   O967    1.282   .     A
C811   C877    1.453   .     S
C811   O989    1.282   .     A
C812   O990    1.282   .     A
C812   C878    1.453   .     S
C812   O968    1.282   .     A
C813   O969    1.282   .     A
C813   O995    1.282   .     A
C813   C879    1.456   .     S
C814   O996    1.282   .     A
C814   O970    1.282   .     A
C814   C880    1.456   .     S
C815   O993    1.282   .     A
C815   C873    1.453   .     S
C815   O971    1.282   .     A
C816   O994    1.282   .     A
C816   O972    1.282   .     A
C816   C874    1.453   .     S
C817   C883    1.453   .     S
C817   O983    1.282   .     A
C817   O973    1.282   .     A
C818   O974    1.282   .     A
C818   O984    1.282   .     A
C818   C884    1.453   .     S
C819   O975    1.282   .     A
C819   C885    1.456   .     S
C819   O981    1.282   .     A
C820   O976    1.282   .     A
C820   O982    1.282   .     A
C820   C886    1.456   .     S
C821   O987    1.282   .     A
C821   O977    1.282   .     A
C821   C887    1.453   .     S
C822   O988    1.282   .     A
C822   O978    1.282   .     A
C822   C888    1.453   .     S
C823   O979    1.282   .     A
C823   O985    1.282   .     A
C823   C881    1.456   .     S
C824   O986    1.282   .     A
C824   O980    1.282   .     A
C824   C882    1.456   .     S
C825   C888    1.401   .     A
C825   H913    1.083   .     S
C825   C840    1.385   .     A
C826   C839    1.385   .     A
C826   H914    1.083   .     S
C826   C887    1.401   .     A
C827   H915    1.083   .     S
C827   C886    1.402   .     A
C827   C838    1.386   .     A
C828   C837    1.386   .     A
C828   C885    1.402   .     A
C828   H916    1.083   .     S
C829   H917    1.083   .     S
C829   C836    1.385   .     A
C829   C884    1.401   .     A
C830   C835    1.385   .     A
C830   H918    1.083   .     S
C830   C883    1.401   .     A
C831   C882    1.402   .     A
C831   C834    1.386   .     A
C831   H919    1.083   .     S
C832   C833    1.386   .     A
C832   C881    1.402   .     A
C832   H920    1.083   .     S
C833   H921    1.083   .     S
C833   C880    1.402   .     A
C834   H922    1.083   .     S
C834   C879    1.402   .     A
C835   C878    1.401   .     A
C835   H923    1.083   .     S
C836   C877    1.401   .     A
C836   H924    1.083   .     S
C837   H925    1.083   .     S
C837   C876    1.402   .     A
C838   C875    1.402   .     A
C838   H926    1.083   .     S
C839   H927    1.083   .     S
C839   C874    1.401   .     A
C840   H928    1.083   .     S
C840   C873    1.401   .     A
C841   H929    1.083   .     S
C841   C874    1.401   .     A
C841   C856    1.385   .     A
C842   C855    1.385   .     A
C842   C873    1.401   .     A
C842   H930    1.083   .     S
C843   H931    1.083   .     S
C843   C854    1.386   .     A
C843   C876    1.402   .     A
C844   C853    1.386   .     A
C844   H932    1.083   .     S
C844   C875    1.402   .     A
C845   H933    1.083   .     S
C845   C878    1.401   .     A
C845   C852    1.385   .     A
C846   H934    1.083   .     S
C846   C877    1.401   .     A
C846   C851    1.385   .     A
C847   H935    1.083   .     S
C847   C850    1.386   .     A
C847   C880    1.402   .     A
C848   C849    1.386   .     A
C848   H936    1.083   .     S
C848   C879    1.402   .     A
C849   C882    1.402   .     A
C849   H937    1.083   .     S
C850   C881    1.402   .     A
C850   H938    1.083   .     S
C851   H939    1.083   .     S
C851   C884    1.401   .     A
C852   H940    1.083   .     S
C852   C883    1.401   .     A
C853   H941    1.083   .     S
C853   C886    1.402   .     A
C854   C885    1.402   .     A
C854   H942    1.083   .     S
C855   H943    1.083   .     S
C855   C888    1.401   .     A
C856   C887    1.401   .     A
C856   H944    1.083   .     S
C857   C1269   1.413   .     S
C858   C890    1.413   .     A
C859   C891    1.413   .     A
C860   C132    1.413   1_565 S
C861   C889    1.413   .     A
C862   C1270   1.413   .     S
C863   C131    1.413   1_565 S
C864   C892    1.413   .     A
C865   C133    1.413   1_565 S
C866   C894    1.413   .     A
C867   C895    1.413   .     S
C868   C1276   1.413   .     A
C869   C893    1.413   .     A
C870   C134    1.413   1_565 S
C871   C1275   1.413   .     A
C872   C896    1.413   .     S
C889   C890    1.409   .     A
C889   C1237   1.413   1_455 S
C890   C1242   1.413   1_455 S
C891   C892    1.409   .     A
C893   C894    1.409   1_556 S
C894   C893    1.409   1_554 S
C895   C1251   1.413   1_455 A
C895   C896    1.409   1_556 S
C896   C1248   1.413   1_455 A
C896   C895    1.409   1_554 S
O945   Zn997   1.948   .     S
O945   Zn1001  1.948   .     S
O945   Zn1008  1.948   .     S
O946   Zn1002  1.948   .     S
O946   Zn1011  1.948   .     S
O946   Zn998   1.948   .     S
O947   Zn1006  1.948   .     S
O947   Zn999   1.948   .     S
O947   Zn1003  1.948   .     S
O947   Zn1390  1.948   1_455 S
O948   Zn1009  1.948   .     S
O948   Zn1004  1.948   .     S
O948   Zn1000  1.948   .     S
O948   Zn1385  1.948   1_455 S
O949   Zn1012  1.952   .     S
O949   C41     1.280   1_565 S
O950   Zn1011  1.952   .     S
O951   Zn1006  1.952   .     S
O952   Zn1005  1.952   .     S
O952   C1184   1.280   .     S
O953   Zn1008  1.952   .     S
O954   Zn1007  1.952   .     S
O954   C42     1.280   1_565 A
O955   C1183   1.280   .     A
O955   Zn1010  1.952   .     S
O956   Zn1009  1.952   .     S
O957   Zn1004  1.952   .     S
O958   Zn1003  1.952   .     S
O959   Zn998   1.952   .     S
O960   Zn997   1.952   .     S
O961   Zn1000  1.952   .     S
O962   Zn999   1.952   .     S
O963   Zn1002  1.952   .     S
O964   Zn1001  1.952   .     S
O965   Zn1008  1.937   .     S
O966   Zn1007  1.937   .     S
O967   Zn1010  1.934   .     S
O968   Zn1009  1.934   .     S
O969   Zn1012  1.937   .     S
O970   Zn1011  1.937   .     S
O971   Zn1006  1.934   .     S
O972   Zn1005  1.934   .     S
O973   Zn1007  1.934   .     S
O974   Zn1008  1.934   .     S
O975   Zn1005  1.937   .     S
O976   Zn1006  1.937   .     S
O977   Zn1011  1.934   .     S
O978   Zn1012  1.934   .     S
O979   Zn1009  1.937   .     S
O980   Zn1010  1.937   .     S
O981   Zn1380  1.937   .     S
O982   Zn999   1.937   .     S
O983   Zn242   1.934   1_565 S
O984   Zn1001  1.934   .     S
O985   Zn1004  1.937   .     S
O986   Zn1383  1.937   .     S
O987   Zn998   1.934   .     S
O988   Zn237   1.934   1_565 S
O989   Zn1379  1.934   .     S
O990   Zn1000  1.934   .     S
O991   Zn997   1.937   .     S
O992   Zn238   1.937   1_565 S
O993   Zn1003  1.934   .     S
O994   Zn1384  1.934   .     S
O995   Zn241   1.937   1_565 S
O996   Zn1002  1.937   .     S
Zn999  O1369   1.934   1_455 S
Zn1000 O1361   1.937   1_455 S
Zn1003 O1366   1.937   1_455 S
Zn1004 O1374   1.934   1_455 S
Zn1005 O1328   1.948   .     S
Zn1007 O186    1.948   1_565 S
Zn1010 O1327   1.948   .     S
Zn1012 O185    1.948   1_565 S
O1013  C1014   1.413   .     S
C1014  C1017   1.521   .     S
C1014  H1015   1.114   .     S
C1014  H1016   1.114   .     S
C1017  H1018   1.109   .     S
C1017  H1020   1.111   .     S
C1017  H1019   1.110   .     S
O1021  C1022   1.413   .     S
C1022  H1023   1.114   .     S
C1022  C1025   1.521   .     S
C1022  H1024   1.114   .     S
C1025  H1027   1.110   .     S
C1025  H1026   1.111   .     S
C1025  H1028   1.109   .     S
O1029  C1030   1.413   .     S
C1030  H1032   1.114   .     S
C1030  C1033   1.521   .     S
C1030  H1031   1.114   .     S
C1033  H1036   1.109   .     S
C1033  H1035   1.110   .     S
C1033  H1034   1.111   .     S
O1037  C1038   1.413   .     S
C1038  H1039   1.114   .     S
C1038  C1041   1.521   .     S
C1038  H1040   1.114   .     S
C1041  H1044   1.111   .     S
C1041  H1043   1.110   .     S
C1041  H1042   1.110   .     S
O1045  C1046   1.413   .     S
C1046  C1049   1.521   .     S
C1046  H1048   1.114   .     S
C1046  H1047   1.114   .     S
C1049  H1050   1.109   .     S
C1049  H1052   1.111   .     S
C1049  H1051   1.110   .     S
O1053  C1054   1.413   .     S
C1054  H1055   1.114   .     S
C1054  C1057   1.521   .     S
C1054  H1056   1.114   .     S
C1057  H1059   1.110   .     S
C1057  H1058   1.111   .     S
C1057  H1060   1.109   .     S
O1061  C1062   1.413   .     S
C1062  H1064   1.114   .     S
C1062  C1065   1.521   .     S
C1062  H1063   1.114   .     S
C1065  H1067   1.110   .     S
C1065  H1066   1.111   .     S
C1065  H1068   1.109   .     S
O1069  C1070   1.413   .     S
C1070  H1072   1.114   .     S
C1070  H1071   1.114   .     S
C1070  C1073   1.521   .     S
C1073  H1075   1.110   .     S
C1073  H1074   1.109   .     S
C1073  H1076   1.111   .     S
O1077  C1078   1.413   .     S
C1078  C1081   1.521   .     S
C1078  H1080   1.114   .     S
C1078  H1079   1.114   .     S
C1081  H1082   1.109   .     S
C1081  H1084   1.111   .     S
C1081  H1083   1.110   .     S
O1085  C1086   1.413   .     S
C1086  H1087   1.114   .     S
C1086  C1089   1.521   .     S
C1086  H1088   1.114   .     S
C1089  H1091   1.110   .     S
C1089  H1090   1.111   .     S
C1089  H1092   1.109   .     S
O1093  C1094   1.413   .     S
C1094  C1097   1.521   .     S
C1094  H1095   1.114   .     S
C1094  H1096   1.114   .     S
C1097  H1098   1.111   .     S
C1097  H1100   1.110   .     S
C1097  H1099   1.110   .     S
O1101  C1102   1.413   .     S
C1102  H1103   1.114   .     S
C1102  C1105   1.521   .     S
C1102  H1104   1.114   .     S
C1105  H1108   1.111   .     S
C1105  H1107   1.110   .     S
C1105  H1106   1.110   .     S
O1109  C1110   1.413   .     S
C1110  H1111   1.114   .     S
C1110  H1112   1.114   .     S
C1110  C1113   1.521   .     S
C1113  H1115   1.110   .     S
C1113  H1114   1.110   .     S
C1113  H1116   1.111   .     S
O1117  C1118   1.413   .     S
C1118  C1121   1.521   .     S
C1118  H1120   1.114   .     S
C1118  H1119   1.114   .     S
C1121  H1124   1.109   .     S
C1121  H1123   1.110   .     S
C1121  H1122   1.111   .     S
O1125  C1126   1.413   .     S
C1126  C1129   1.521   .     S
C1126  H1127   1.114   .     S
C1126  H1128   1.114   .     S
C1129  H1132   1.109   .     S
C1129  H1131   1.110   .     S
C1129  H1130   1.111   .     S
O1133  C1134   1.413   .     S
C1134  H1135   1.114   .     S
C1134  C1137   1.521   .     S
C1134  H1136   1.114   .     S
C1137  H1140   1.111   .     S
C1137  H1139   1.110   .     S
C1137  H1138   1.109   .     S
C1141  C1241   1.402   .     A
C1141  O1393   1.386   .     S
C1141  C1157   1.410   .     S
C1142  C1242   1.402   .     A
C1142  O1401   1.386   .     S
C1142  C778    1.410   1_655 S
C1143  C1243   1.402   .     A
C1143  O1409   1.386   .     S
C1143  C399    1.410   1_565 S
C1144  C1244   1.402   .     A
C1144  O1417   1.386   .     S
C1144  C1160   1.410   .     S
C1145  C1237   1.402   .     A
C1145  O1425   1.386   .     S
C1145  C777    1.410   1_655 A
C1146  O1433   1.386   .     S
C1146  C1238   1.402   .     A
C1146  C1158   1.410   .     A
C1147  C1239   1.402   .     A
C1147  C1159   1.410   .     A
C1147  O1441   1.386   .     S
C1148  C1240   1.402   .     A
C1148  C400    1.410   1_565 A
C1148  O1449   1.386   .     S
C1149  C1161   1.410   .     A
C1149  C1249   1.402   .     A
C1149  O1457   1.386   .     S
C1150  O1465   1.386   .     S
C1150  C1250   1.402   .     A
C1150  C402    1.410   1_565 S
C1151  C783    1.410   1_655 A
C1151  C1251   1.402   .     A
C1151  O1473   1.386   .     S
C1152  O1481   1.386   .     S
C1152  C1252   1.402   .     A
C1152  C1164   1.410   .     S
C1153  O1489   1.386   .     S
C1153  C1245   1.402   .     A
C1153  C401    1.410   1_565 S
C1154  O1497   1.386   .     S
C1154  C1246   1.402   .     A
C1154  C1162   1.410   .     A
C1155  C1247   1.402   .     A
C1155  O1505   1.386   .     S
C1155  C1163   1.410   .     S
C1156  O1513   1.386   .     S
C1156  C784    1.410   1_655 A
C1156  C1248   1.402   .     A
C1157  C1183   1.462   .     S
C1158  C1184   1.462   .     S
C1159  C1181   1.462   .     S
C1160  C1182   1.462   .     S
C1161  C1187   1.462   .     S
C1162  C1188   1.462   .     S
C1163  C1185   1.462   .     S
C1164  C1186   1.462   .     S
C1165  H1277   1.083   .     S
C1165  C1237   1.403   .     A
C1165  C1170   1.389   .     A
C1166  H1278   1.083   .     S
C1166  C1238   1.403   .     A
C1166  C1169   1.389   .     A
C1167  C1239   1.403   .     A
C1167  H1279   1.083   .     S
C1167  C1172   1.389   .     A
C1168  C1171   1.389   .     A
C1168  H1280   1.083   .     S
C1168  C1240   1.403   .     A
C1169  H1281   1.083   .     S
C1169  C1241   1.403   .     A
C1170  C1242   1.403   .     A
C1170  H1282   1.083   .     S
C1171  H1283   1.083   .     S
C1171  C1243   1.403   .     A
C1172  C1244   1.403   .     A
C1172  H1284   1.083   .     S
C1173  C1245   1.403   .     A
C1173  H1285   1.083   .     S
C1173  C1178   1.389   1_556 S
C1174  C1246   1.403   .     A
C1174  H1286   1.083   .     S
C1174  C1177   1.389   1_554 S
C1175  C1247   1.403   .     A
C1175  H1287   1.083   .     S
C1175  C1180   1.389   1_556 S
C1176  C1248   1.403   .     A
C1176  H1288   1.083   .     S
C1176  C1179   1.389   1_554 S
C1177  C1249   1.403   .     A
C1177  H1289   1.083   .     S
C1177  C1174   1.389   1_556 S
C1178  C1250   1.403   .     A
C1178  H1290   1.083   .     S
C1178  C1173   1.389   1_554 S
C1179  C1251   1.403   .     A
C1179  H1291   1.083   .     S
C1179  C1176   1.389   1_556 S
C1180  C1252   1.403   .     A
C1180  H1292   1.083   .     S
C1180  C1175   1.389   1_554 S
C1181  O1333   1.280   .     A
C1182  O1330   1.280   .     S
C1183  O1331   1.280   .     S
C1184  O1336   1.280   .     A
C1185  O1341   1.280   .     A
C1185  O1337   1.280   .     S
C1186  O1338   1.280   .     A
C1186  O1342   1.280   .     S
C1187  O1339   1.280   .     A
C1187  O1343   1.280   .     A
C1188  O1344   1.280   .     A
C1188  O1340   1.280   .     A
C1189  C1255   1.456   .     S
C1189  O1371   1.282   .     A
C1189  O1345   1.282   .     A
C1190  O1372   1.282   .     A
C1190  O1346   1.282   .     A
C1190  C1256   1.456   .     S
C1191  O1347   1.282   .     A
C1191  C1257   1.453   .     S
C1191  O1369   1.282   .     A
C1192  O1370   1.282   .     A
C1192  C1258   1.453   .     S
C1192  O1348   1.282   .     A
C1193  O1349   1.282   .     A
C1193  O1375   1.282   .     A
C1193  C1259   1.456   .     S
C1194  O1376   1.282   .     A
C1194  O1350   1.282   .     A
C1194  C1260   1.456   .     S
C1195  O1373   1.282   .     A
C1195  C1253   1.453   .     S
C1195  O1351   1.282   .     A
C1196  O1374   1.282   .     A
C1196  O1352   1.282   .     A
C1196  C1254   1.453   .     S
C1197  C1263   1.453   .     S
C1197  O1363   1.282   .     A
C1197  O1353   1.282   .     A
C1198  O1354   1.282   .     A
C1198  O1364   1.282   .     A
C1198  C1264   1.453   .     S
C1199  O1355   1.282   .     A
C1199  C1265   1.456   .     S
C1199  O1361   1.282   .     A
C1200  O1356   1.282   .     A
C1200  O1362   1.282   .     A
C1200  C1266   1.456   .     S
C1201  O1367   1.282   .     A
C1201  O1357   1.282   .     A
C1201  C1267   1.453   .     S
C1202  O1368   1.282   .     A
C1202  O1358   1.282   .     A
C1202  C1268   1.453   .     S
C1203  O1359   1.282   .     A
C1203  O1365   1.282   .     A
C1203  C1261   1.456   .     S
C1204  O1366   1.282   .     A
C1204  O1360   1.282   .     A
C1204  C1262   1.456   .     S
C1205  C1268   1.401   .     A
C1205  H1293   1.083   .     S
C1205  C1220   1.385   .     A
C1206  C1219   1.385   .     A
C1206  H1294   1.083   .     S
C1206  C1267   1.401   .     A
C1207  H1295   1.083   .     S
C1207  C1266   1.402   .     A
C1207  C1218   1.386   .     A
C1208  C1217   1.386   .     A
C1208  C1265   1.402   .     A
C1208  H1296   1.083   .     S
C1209  H1297   1.083   .     S
C1209  C1216   1.385   .     A
C1209  C1264   1.401   .     A
C1210  C1215   1.385   .     A
C1210  H1298   1.083   .     S
C1210  C1263   1.401   .     A
C1211  C1262   1.402   .     A
C1211  C1214   1.386   .     A
C1211  H1299   1.083   .     S
C1212  C1213   1.386   .     A
C1212  C1261   1.402   .     A
C1212  H1300   1.083   .     S
C1213  H1301   1.083   .     S
C1213  C1260   1.402   .     A
C1214  H1302   1.083   .     S
C1214  C1259   1.402   .     A
C1215  C1258   1.401   .     A
C1215  H1303   1.083   .     S
C1216  C1257   1.401   .     A
C1216  H1304   1.083   .     S
C1217  H1305   1.083   .     S
C1217  C1256   1.402   .     A
C1218  C1255   1.402   .     A
C1218  H1306   1.083   .     S
C1219  H1307   1.083   .     S
C1219  C1254   1.401   .     A
C1220  H1308   1.083   .     S
C1220  C1253   1.401   .     A
C1221  H1309   1.083   .     S
C1221  C1254   1.401   .     A
C1221  C1236   1.385   .     A
C1222  C1235   1.385   .     A
C1222  C1253   1.401   .     A
C1222  H1310   1.083   .     S
C1223  H1311   1.083   .     S
C1223  C1234   1.386   .     A
C1223  C1256   1.402   .     A
C1224  C1233   1.386   .     A
C1224  H1312   1.083   .     S
C1224  C1255   1.402   .     A
C1225  H1313   1.083   .     S
C1225  C1258   1.401   .     A
C1225  C1232   1.385   .     A
C1226  H1314   1.083   .     S
C1226  C1257   1.401   .     A
C1226  C1231   1.385   .     A
C1227  H1315   1.083   .     S
C1227  C1230   1.386   .     A
C1227  C1260   1.402   .     A
C1228  C1229   1.386   .     A
C1228  H1316   1.083   .     S
C1228  C1259   1.402   .     A
C1229  C1262   1.402   .     A
C1229  H1317   1.083   .     S
C1230  C1261   1.402   .     A
C1230  H1318   1.083   .     S
C1231  H1319   1.083   .     S
C1231  C1264   1.401   .     A
C1232  H1320   1.083   .     S
C1232  C1263   1.401   .     A
C1233  H1321   1.083   .     S
C1233  C1266   1.402   .     A
C1234  C1265   1.402   .     A
C1234  H1322   1.083   .     S
C1235  H1323   1.083   .     S
C1235  C1268   1.401   .     A
C1236  C1267   1.401   .     A
C1236  H1324   1.083   .     S
C1237  C889    1.413   1_655 S
C1238  C1270   1.413   .     A
C1239  C1271   1.413   .     A
C1240  C512    1.413   1_565 S
C1241  C1269   1.413   .     A
C1242  C890    1.413   1_655 S
C1243  C511    1.413   1_565 S
C1244  C1272   1.413   .     A
C1245  C513    1.413   1_565 S
C1246  C1274   1.413   .     A
C1247  C1275   1.413   .     S
C1248  C896    1.413   1_655 A
C1249  C1273   1.413   .     A
C1250  C514    1.413   1_565 S
C1251  C895    1.413   1_655 A
C1252  C1276   1.413   .     S
C1269  C1270   1.409   .     A
C1271  C1272   1.409   .     A
C1273  C1274   1.409   1_556 S
C1274  C1273   1.409   1_554 S
C1275  C1276   1.409   1_556 S
C1276  C1275   1.409   1_554 S
O1325  Zn1377  1.948   .     S
O1325  Zn1381  1.948   .     S
O1325  Zn1388  1.948   .     S
O1326  Zn1382  1.948   .     S
O1326  Zn1391  1.948   .     S
O1326  Zn1378  1.948   .     S
O1327  Zn1386  1.948   .     S
O1327  Zn1379  1.948   .     S
O1327  Zn1383  1.948   .     S
O1328  Zn1389  1.948   .     S
O1328  Zn1384  1.948   .     S
O1328  Zn1380  1.948   .     S
O1329  Zn1392  1.952   .     S
O1329  C421    1.280   1_565 S
O1330  Zn1391  1.952   .     S
O1331  Zn1386  1.952   .     S
O1332  Zn1385  1.952   .     S
O1332  C804    1.280   1_655 S
O1333  Zn1388  1.952   .     S
O1334  Zn1387  1.952   .     S
O1334  C422    1.280   1_565 A
O1335  C803    1.280   1_655 A
O1335  Zn1390  1.952   .     S
O1336  Zn1389  1.952   .     S
O1337  Zn1384  1.952   .     S
O1338  Zn1383  1.952   .     S
O1339  Zn1378  1.952   .     S
O1340  Zn1377  1.952   .     S
O1341  Zn1380  1.952   .     S
O1342  Zn1379  1.952   .     S
O1343  Zn1382  1.952   .     S
O1344  Zn1381  1.952   .     S
O1345  Zn1388  1.937   .     S
O1346  Zn1387  1.937   .     S
O1347  Zn1390  1.934   .     S
O1348  Zn1389  1.934   .     S
O1349  Zn1392  1.937   .     S
O1350  Zn1391  1.937   .     S
O1351  Zn1386  1.934   .     S
O1352  Zn1385  1.934   .     S
O1353  Zn1387  1.934   .     S
O1354  Zn1388  1.934   .     S
O1355  Zn1385  1.937   .     S
O1356  Zn1386  1.937   .     S
O1357  Zn1391  1.934   .     S
O1358  Zn1392  1.934   .     S
O1359  Zn1389  1.937   .     S
O1360  Zn1390  1.937   .     S
O1361  Zn1000  1.937   1_655 S
O1362  Zn1379  1.937   .     S
O1363  Zn622   1.934   1_565 S
O1364  Zn1381  1.934   .     S
O1365  Zn1384  1.937   .     S
O1366  Zn1003  1.937   1_655 S
O1367  Zn1378  1.934   .     S
O1368  Zn617   1.934   1_565 S
O1369  Zn999   1.934   1_655 S
O1370  Zn1380  1.934   .     S
O1371  Zn1377  1.937   .     S
O1372  Zn618   1.937   1_565 S
O1373  Zn1383  1.934   .     S
O1374  Zn1004  1.934   1_655 S
O1375  Zn621   1.937   1_565 S
O1376  Zn1382  1.937   .     S
Zn1385 O948    1.948   1_655 S
Zn1387 O566    1.948   1_565 S
Zn1390 O947    1.948   1_655 S
Zn1392 O565    1.948   1_565 S
O1393  C1394   1.413   .     S
C1394  C1397   1.521   .     S
C1394  H1395   1.114   .     S
C1394  H1396   1.114   .     S
C1397  H1398   1.109   .     S
C1397  H1400   1.111   .     S
C1397  H1399   1.110   .     S
O1401  C1402   1.413   .     S
C1402  H1403   1.114   .     S
C1402  C1405   1.521   .     S
C1402  H1404   1.114   .     S
C1405  H1407   1.110   .     S
C1405  H1406   1.111   .     S
C1405  H1408   1.109   .     S
O1409  C1410   1.413   .     S
C1410  H1412   1.114   .     S
C1410  C1413   1.521   .     S
C1410  H1411   1.114   .     S
C1413  H1416   1.109   .     S
C1413  H1415   1.110   .     S
C1413  H1414   1.111   .     S
O1417  C1418   1.413   .     S
C1418  H1419   1.114   .     S
C1418  C1421   1.521   .     S
C1418  H1420   1.114   .     S
C1421  H1424   1.111   .     S
C1421  H1423   1.110   .     S
C1421  H1422   1.110   .     S
O1425  C1426   1.413   .     S
C1426  C1429   1.521   .     S
C1426  H1428   1.114   .     S
C1426  H1427   1.114   .     S
C1429  H1430   1.109   .     S
C1429  H1432   1.111   .     S
C1429  H1431   1.110   .     S
O1433  C1434   1.413   .     S
C1434  H1435   1.114   .     S
C1434  C1437   1.521   .     S
C1434  H1436   1.114   .     S
C1437  H1439   1.110   .     S
C1437  H1438   1.111   .     S
C1437  H1440   1.109   .     S
O1441  C1442   1.413   .     S
C1442  H1444   1.114   .     S
C1442  C1445   1.521   .     S
C1442  H1443   1.114   .     S
C1445  H1447   1.110   .     S
C1445  H1446   1.111   .     S
C1445  H1448   1.109   .     S
O1449  C1450   1.413   .     S
C1450  H1452   1.114   .     S
C1450  H1451   1.114   .     S
C1450  C1453   1.521   .     S
C1453  H1455   1.110   .     S
C1453  H1454   1.109   .     S
C1453  H1456   1.111   .     S
O1457  C1458   1.413   .     S
C1458  C1461   1.521   .     S
C1458  H1460   1.114   .     S
C1458  H1459   1.114   .     S
C1461  H1462   1.109   .     S
C1461  H1464   1.111   .     S
C1461  H1463   1.110   .     S
O1465  C1466   1.413   .     S
C1466  H1467   1.114   .     S
C1466  C1469   1.521   .     S
C1466  H1468   1.114   .     S
C1469  H1471   1.110   .     S
C1469  H1470   1.111   .     S
C1469  H1472   1.109   .     S
O1473  C1474   1.413   .     S
C1474  C1477   1.521   .     S
C1474  H1475   1.114   .     S
C1474  H1476   1.114   .     S
C1477  H1478   1.111   .     S
C1477  H1480   1.110   .     S
C1477  H1479   1.110   .     S
O1481  C1482   1.413   .     S
C1482  H1483   1.114   .     S
C1482  C1485   1.521   .     S
C1482  H1484   1.114   .     S
C1485  H1488   1.111   .     S
C1485  H1487   1.110   .     S
C1485  H1486   1.110   .     S
O1489  C1490   1.413   .     S
C1490  H1491   1.114   .     S
C1490  H1492   1.114   .     S
C1490  C1493   1.521   .     S
C1493  H1495   1.110   .     S
C1493  H1494   1.110   .     S
C1493  H1496   1.111   .     S
O1497  C1498   1.413   .     S
C1498  C1501   1.521   .     S
C1498  H1500   1.114   .     S
C1498  H1499   1.114   .     S
C1501  H1504   1.109   .     S
C1501  H1503   1.110   .     S
C1501  H1502   1.111   .     S
O1505  C1506   1.413   .     S
C1506  C1509   1.521   .     S
C1506  H1507   1.114   .     S
C1506  H1508   1.114   .     S
C1509  H1512   1.109   .     S
C1509  H1511   1.110   .     S
C1509  H1510   1.111   .     S
O1513  C1514   1.413   .     S
C1514  H1515   1.114   .     S
C1514  C1517   1.521   .     S
C1514  H1516   1.114   .     S
C1517  H1520   1.111   .     S
C1517  H1519   1.110   .     S
C1517  H1518   1.109   .     S
