data_str_m1_o1_o5_pcu_sym.13
_audit_creation_date              2020-01-03
_audit_creation_method            'Materials Studio'
_symmetry_space_group_name_H-M    'P1'
_symmetry_Int_Tables_number       1
_symmetry_cell_setting            triclinic
loop_
_symmetry_equiv_pos_as_xyz
  x,y,z
_cell_length_a                    36.7010
_cell_length_b                    36.6929
_cell_length_c                    22.4152
_cell_angle_alpha                 89.9647
_cell_angle_beta                  89.9617
_cell_angle_gamma                 90.0013
loop_
_atom_site_label
_atom_site_type_symbol
_atom_site_fract_x
_atom_site_fract_y
_atom_site_fract_z
_atom_site_U_iso_or_equiv
_atom_site_adp_type
_atom_site_occupancy
Zn1    Zn    0.04333   0.25000   0.20067   0.00000  Uiso   1.00
Zn2    Zn    0.45667   0.25000   0.79933   0.00000  Uiso   1.00
Zn3    Zn    0.25000   0.45667   0.20067   0.00000  Uiso   1.00
Zn4    Zn    0.25000   0.04333   0.79933   0.00000  Uiso   1.00
Zn5    Zn    0.45667   0.25000   0.20067   0.00000  Uiso   1.00
Zn6    Zn    0.04333   0.25000   0.79933   0.00000  Uiso   1.00
Zn7    Zn    0.25000   0.04333   0.20067   0.00000  Uiso   1.00
Zn8    Zn    0.25000   0.45667   0.79933   0.00000  Uiso   1.00
Zn9    Zn    0.29333   0.00000   0.70067   0.00000  Uiso   1.00
Zn10   Zn    0.20667   0.00000   0.29933   0.00000  Uiso   1.00
Zn11   Zn    0.00000   0.20667   0.70067   0.00000  Uiso   1.00
Zn12   Zn    0.00000   0.29333   0.29933   0.00000  Uiso   1.00
Zn13   Zn    0.20667   0.00000   0.70067   0.00000  Uiso   1.00
Zn14   Zn    0.29333   0.00000   0.29933   0.00000  Uiso   1.00
Zn15   Zn    0.00000   0.29333   0.70067   0.00000  Uiso   1.00
Zn16   Zn    0.00000   0.20667   0.29933   0.00000  Uiso   1.00
C17    C     0.00001   0.25000   0.02667   0.00000  Uiso   1.00
C18    C     0.49999   0.25000   0.97333   0.00000  Uiso   1.00
C19    C     0.25000   0.00001   0.02667   0.00000  Uiso   1.00
C20    C     0.25000   0.49999   0.97333   0.00000  Uiso   1.00
C21    C     0.25001  -0.00000   0.52667   0.00000  Uiso   1.00
C22    C     0.24999   0.00000   0.47333   0.00000  Uiso   1.00
C23    C    -0.00000   0.25001   0.52667   0.00000  Uiso   1.00
C24    C     0.00000   0.24999   0.47333   0.00000  Uiso   1.00
O25    O     0.00000   0.25000   0.25000   0.00000  Uiso   1.00
O26    O     0.00000   0.25000   0.75000   0.00000  Uiso   1.00
O27    O     0.25000   0.00000   0.25000   0.00000  Uiso   1.00
O28    O     0.25000   0.00000   0.75000   0.00000  Uiso   1.00
O29    O     0.00000   0.28035   0.38219   0.00000  Uiso   1.00
O30    O     0.00000   0.21964   0.61781   0.00000  Uiso   1.00
O31    O     0.28036   0.00000   0.38219   0.00000  Uiso   1.00
O32    O     0.21965   0.00000   0.61781   0.00000  Uiso   1.00
O33    O     0.00000   0.21964   0.38219   0.00000  Uiso   1.00
O34    O     0.00000   0.28035   0.61781   0.00000  Uiso   1.00
O35    O     0.21965   0.00000   0.38219   0.00000  Uiso   1.00
O36    O     0.28036   0.00000   0.61781   0.00000  Uiso   1.00
O37    O     0.25000   0.03036   0.88219   0.00000  Uiso   1.00
O38    O     0.25000   0.46965   0.11781   0.00000  Uiso   1.00
O39    O     0.03036   0.25000   0.88219   0.00000  Uiso   1.00
O40    O     0.46965   0.25000   0.11781   0.00000  Uiso   1.00
O41    O     0.25000   0.46965   0.88219   0.00000  Uiso   1.00
O42    O     0.25000   0.03036   0.11781   0.00000  Uiso   1.00
O43    O     0.46965   0.25000   0.88219   0.00000  Uiso   1.00
O44    O     0.03036   0.25000   0.11781   0.00000  Uiso   1.00
O45    O     0.04268   0.17693   0.28474   0.00000  Uiso   1.00
O46    O     0.45733   0.32308   0.71526   0.00000  Uiso   1.00
O47    O     0.17693   0.45733   0.28474   0.00000  Uiso   1.00
O48    O     0.32308   0.04268   0.71526   0.00000  Uiso   1.00
O49    O     0.45733   0.32308   0.28474   0.00000  Uiso   1.00
O50    O     0.04268   0.17693   0.71526   0.00000  Uiso   1.00
O51    O     0.32308   0.04268   0.28474   0.00000  Uiso   1.00
O52    O     0.17693   0.45733   0.71526   0.00000  Uiso   1.00
O53    O     0.04268   0.32307   0.71526   0.00000  Uiso   1.00
O54    O     0.45733   0.17693   0.28474   0.00000  Uiso   1.00
O55    O     0.17693   0.04268   0.71526   0.00000  Uiso   1.00
O56    O     0.32308   0.45733   0.28474   0.00000  Uiso   1.00
O57    O     0.45733   0.17693   0.71526   0.00000  Uiso   1.00
O58    O     0.04268   0.32307   0.28474   0.00000  Uiso   1.00
O59    O     0.32308   0.45733   0.71526   0.00000  Uiso   1.00
O60    O     0.17693   0.04268   0.28474   0.00000  Uiso   1.00
O61    O     0.29268   0.42693   0.78474   0.00000  Uiso   1.00
O62    O     0.20733   0.07308   0.21526   0.00000  Uiso   1.00
O63    O     0.42693   0.20733   0.78474   0.00000  Uiso   1.00
O64    O     0.07308   0.29268   0.21526   0.00000  Uiso   1.00
O65    O     0.20733   0.07308   0.78474   0.00000  Uiso   1.00
O66    O     0.29268   0.42693   0.21526   0.00000  Uiso   1.00
O67    O     0.07308   0.29268   0.78474   0.00000  Uiso   1.00
O68    O     0.42693   0.20733   0.21526   0.00000  Uiso   1.00
O69    O     0.29268   0.07308   0.21526   0.00000  Uiso   1.00
O70    O     0.20733   0.42693   0.78474   0.00000  Uiso   1.00
O71    O     0.42693   0.29268   0.21526   0.00000  Uiso   1.00
O72    O     0.07308   0.20733   0.78474   0.00000  Uiso   1.00
O73    O     0.20733   0.42693   0.21526   0.00000  Uiso   1.00
O74    O     0.29268   0.07308   0.78474   0.00000  Uiso   1.00
O75    O     0.07308   0.20733   0.21526   0.00000  Uiso   1.00
O76    O     0.42693   0.29268   0.78474   0.00000  Uiso   1.00
C77    C     0.00000   0.24999   0.41007   0.00000  Uiso   1.00
C78    C    -0.00000   0.25001   0.58993   0.00000  Uiso   1.00
C79    C     0.24999   0.00000   0.41007   0.00000  Uiso   1.00
C80    C     0.25001  -0.00000   0.58993   0.00000  Uiso   1.00
C81    C     0.25000   0.49999   0.91007   0.00000  Uiso   1.00
C82    C     0.25000   0.00001   0.08993   0.00000  Uiso   1.00
C83    C     0.49999   0.25000   0.91007   0.00000  Uiso   1.00
C84    C     0.00001   0.25000   0.08993   0.00000  Uiso   1.00
C85    C     0.07000   0.17995   0.24998   0.00000  Uiso   1.00
C86    C     0.43000   0.32005   0.75002   0.00000  Uiso   1.00
C87    C     0.17995   0.43001   0.24998   0.00000  Uiso   1.00
C88    C     0.32008   0.06995   0.75005   0.00000  Uiso   1.00
C89    C     0.43001   0.32005   0.24998   0.00000  Uiso   1.00
C90    C     0.06999   0.17995   0.75002   0.00000  Uiso   1.00
C91    C     0.31999   0.07006   0.25002   0.00000  Uiso   1.00
C92    C     0.18000   0.42995   0.74999   0.00000  Uiso   1.00
C93    C     0.06999   0.32005   0.75001   0.00000  Uiso   1.00
C94    C     0.43001   0.17994   0.24998   0.00000  Uiso   1.00
C95    C     0.18001   0.07005   0.74998   0.00000  Uiso   1.00
C96    C     0.31999   0.42995   0.25002   0.00000  Uiso   1.00
C97    C     0.42997   0.17997   0.75016   0.00000  Uiso   1.00
C98    C     0.07005   0.31999   0.25002   0.00000  Uiso   1.00
C99    C     0.32000   0.42995   0.74998   0.00000  Uiso   1.00
C100   C     0.18000   0.07005   0.25002   0.00000  Uiso   1.00
C101   C     0.11203   0.36102   0.19541   0.00000  Uiso   1.00
C102   C     0.38858   0.13832   0.80467   0.00000  Uiso   1.00
C103   C     0.36102   0.38802   0.19541   0.00000  Uiso   1.00
C104   C     0.13900   0.11199   0.80458   0.00000  Uiso   1.00
C105   C     0.38825   0.13872   0.19522   0.00000  Uiso   1.00
C106   C     0.11181   0.36121   0.80476   0.00000  Uiso   1.00
C107   C     0.13902   0.11202   0.19541   0.00000  Uiso   1.00
C108   C     0.36099   0.38799   0.80459   0.00000  Uiso   1.00
C109   C     0.11179   0.13871   0.80478   0.00000  Uiso   1.00
C110   C     0.38821   0.36128   0.19523   0.00000  Uiso   1.00
C111   C     0.36223   0.11074   0.80494   0.00000  Uiso   1.00
C112   C     0.13875   0.38822   0.19523   0.00000  Uiso   1.00
C113   C     0.38817   0.36125   0.80477   0.00000  Uiso   1.00
C114   C     0.11183   0.13875   0.19523   0.00000  Uiso   1.00
C115   C     0.13900   0.38795   0.80461   0.00000  Uiso   1.00
C116   C     0.36103   0.11202   0.19541   0.00000  Uiso   1.00
C117   C     0.36149   0.11152   0.69557   0.00000  Uiso   1.00
C118   C     0.13797   0.38898   0.30459   0.00000  Uiso   1.00
C119   C     0.11101   0.13801   0.69542   0.00000  Uiso   1.00
C120   C     0.38898   0.36198   0.30458   0.00000  Uiso   1.00
C121   C     0.13815   0.38883   0.69527   0.00000  Uiso   1.00
C122   C     0.36175   0.11128   0.30477   0.00000  Uiso   1.00
C123   C     0.38901   0.36201   0.69541   0.00000  Uiso   1.00
C124   C     0.11098   0.13798   0.30459   0.00000  Uiso   1.00
C125   C     0.36179   0.38872   0.30477   0.00000  Uiso   1.00
C126   C     0.13821   0.11129   0.69522   0.00000  Uiso   1.00
C127   C     0.11125   0.36178   0.30477   0.00000  Uiso   1.00
C128   C     0.38799   0.13898   0.69535   0.00000  Uiso   1.00
C129   C     0.13817   0.11125   0.30477   0.00000  Uiso   1.00
C130   C     0.36182   0.38875   0.69523   0.00000  Uiso   1.00
C131   C     0.38898   0.13798   0.30458   0.00000  Uiso   1.00
C132   C     0.11101   0.36204   0.69539   0.00000  Uiso   1.00
C133   C     0.15174   0.40205   0.24989   0.00000  Uiso   1.00
C134   C     0.34848   0.09770   0.75027   0.00000  Uiso   1.00
C135   C     0.40204   0.34826   0.24989   0.00000  Uiso   1.00
C136   C     0.09795   0.15174   0.75012   0.00000  Uiso   1.00
C137   C     0.34794   0.09828   0.25011   0.00000  Uiso   1.00
C138   C     0.15202   0.40176   0.74993   0.00000  Uiso   1.00
C139   C     0.09796   0.15174   0.24989   0.00000  Uiso   1.00
C140   C     0.40204   0.34826   0.75011   0.00000  Uiso   1.00
C141   C     0.15205   0.09826   0.74988   0.00000  Uiso   1.00
C142   C     0.34796   0.40174   0.25011   0.00000  Uiso   1.00
C143   C     0.40151   0.15226   0.75002   0.00000  Uiso   1.00
C144   C     0.09827   0.34795   0.25011   0.00000  Uiso   1.00
C145   C     0.34796   0.40174   0.74989   0.00000  Uiso   1.00
C146   C     0.15204   0.09826   0.25011   0.00000  Uiso   1.00
C147   C     0.09797   0.34824   0.75009   0.00000  Uiso   1.00
C148   C     0.40207   0.15172   0.24989   0.00000  Uiso   1.00
N149   N     0.09689   0.34868   0.13999   0.00000  Uiso   1.00
O150   O     0.11554   0.32697   0.10578   0.00000  Uiso   1.00
O151   O     0.06301   0.35557   0.12724   0.00000  Uiso   1.00
N152   N     0.40421   0.15015   0.85995   0.00000  Uiso   1.00
O153   O     0.39207   0.17946   0.88581   0.00000  Uiso   1.00
O154   O     0.42668   0.12896   0.88841   0.00000  Uiso   1.00
N155   N     0.34869   0.40319   0.14000   0.00000  Uiso   1.00
O156   O     0.32699   0.38456   0.10577   0.00000  Uiso   1.00
O157   O     0.35555   0.43710   0.12725   0.00000  Uiso   1.00
N158   N     0.15135   0.09683   0.85999   0.00000  Uiso   1.00
O159   O     0.17331   0.11535   0.89392   0.00000  Uiso   1.00
O160   O     0.14429   0.06299   0.87292   0.00000  Uiso   1.00
N161   N     0.40364   0.15067   0.13958   0.00000  Uiso   1.00
O162   O     0.38313   0.16571   0.09918   0.00000  Uiso   1.00
O163   O     0.43844   0.14741   0.12981   0.00000  Uiso   1.00
N164   N     0.09646   0.34920   0.86040   0.00000  Uiso   1.00
O165   O     0.11693   0.33376   0.90044   0.00000  Uiso   1.00
O166   O     0.06170   0.35264   0.87037   0.00000  Uiso   1.00
N167   N     0.15139   0.09688   0.14000   0.00000  Uiso   1.00
O168   O     0.17311   0.11554   0.10576   0.00000  Uiso   1.00
O169   O     0.14454   0.06298   0.12726   0.00000  Uiso   1.00
N170   N     0.34862   0.40314   0.86000   0.00000  Uiso   1.00
O171   O     0.32693   0.38447   0.89428   0.00000  Uiso   1.00
O172   O     0.35546   0.43704   0.87271   0.00000  Uiso   1.00
N173   N     0.09643   0.15065   0.86043   0.00000  Uiso   1.00
O174   O     0.11700   0.16555   0.90087   0.00000  Uiso   1.00
O175   O     0.06163   0.14745   0.87024   0.00000  Uiso   1.00
N176   N     0.40357   0.34934   0.13958   0.00000  Uiso   1.00
O177   O     0.38306   0.33415   0.09936   0.00000  Uiso   1.00
O178   O     0.43835   0.35268   0.12970   0.00000  Uiso   1.00
N179   N     0.35049   0.09521   0.86068   0.00000  Uiso   1.00
O180   O     0.34057   0.11618   0.90458   0.00000  Uiso   1.00
O181   O     0.35120   0.06008   0.86864   0.00000  Uiso   1.00
N182   N     0.15073   0.40358   0.13958   0.00000  Uiso   1.00
O183   O     0.16593   0.38307   0.09934   0.00000  Uiso   1.00
O184   O     0.14742   0.43838   0.12972   0.00000  Uiso   1.00
N185   N     0.40349   0.34927   0.86041   0.00000  Uiso   1.00
O186   O     0.38297   0.33402   0.90062   0.00000  Uiso   1.00
O187   O     0.43827   0.35262   0.87029   0.00000  Uiso   1.00
N188   N     0.09651   0.15073   0.13958   0.00000  Uiso   1.00
O189   O     0.11705   0.16596   0.09936   0.00000  Uiso   1.00
O190   O     0.06174   0.14740   0.12970   0.00000  Uiso   1.00
N191   N     0.15135   0.40304   0.86004   0.00000  Uiso   1.00
O192   O     0.17290   0.38428   0.89438   0.00000  Uiso   1.00
O193   O     0.14463   0.43697   0.87277   0.00000  Uiso   1.00
N194   N     0.34870   0.09687   0.14000   0.00000  Uiso   1.00
O195   O     0.32687   0.11546   0.10589   0.00000  Uiso   1.00
O196   O     0.35566   0.06300   0.12719   0.00000  Uiso   1.00
N197   N     0.34578   0.09970   0.64031   0.00000  Uiso   1.00
O198   O     0.36352   0.07719   0.60617   0.00000  Uiso   1.00
O199   O     0.31205   0.10756   0.62802   0.00000  Uiso   1.00
N200   N     0.15311   0.40132   0.36000   0.00000  Uiso   1.00
O201   O     0.13446   0.42304   0.39422   0.00000  Uiso   1.00
O202   O     0.18699   0.39443   0.37276   0.00000  Uiso   1.00
N203   N     0.09868   0.15319   0.64000   0.00000  Uiso   1.00
O204   O     0.07695   0.13457   0.60581   0.00000  Uiso   1.00
O205   O     0.10557   0.18709   0.62723   0.00000  Uiso   1.00
N206   N     0.40131   0.34681   0.36000   0.00000  Uiso   1.00
O207   O     0.42301   0.36544   0.39423   0.00000  Uiso   1.00
O208   O     0.39445   0.31290   0.37275   0.00000  Uiso   1.00
N209   N     0.15346   0.40089   0.63966   0.00000  Uiso   1.00
O210   O     0.13318   0.41744   0.60054   0.00000  Uiso   1.00
O211   O     0.18812   0.39696   0.62928   0.00000  Uiso   1.00
N212   N     0.34637   0.09933   0.36042   0.00000  Uiso   1.00
O213   O     0.36687   0.08427   0.40080   0.00000  Uiso   1.00
O214   O     0.31156   0.10259   0.37019   0.00000  Uiso   1.00
N215   N     0.40138   0.34686   0.64000   0.00000  Uiso   1.00
O216   O     0.42308   0.36552   0.60573   0.00000  Uiso   1.00
O217   O     0.39453   0.31296   0.62728   0.00000  Uiso   1.00
N218   N     0.09861   0.15312   0.36000   0.00000  Uiso   1.00
O219   O     0.07689   0.13446   0.39424   0.00000  Uiso   1.00
O220   O     0.10546   0.18702   0.37274   0.00000  Uiso   1.00
N221   N     0.34643   0.40066   0.36042   0.00000  Uiso   1.00
O222   O     0.36694   0.41585   0.40064   0.00000  Uiso   1.00
O223   O     0.31165   0.39733   0.37029   0.00000  Uiso   1.00
N224   N     0.15357   0.09934   0.63958   0.00000  Uiso   1.00
O225   O     0.13305   0.08419   0.59933   0.00000  Uiso   1.00
O226   O     0.18835   0.10266   0.62970   0.00000  Uiso   1.00
N227   N     0.09927   0.34642   0.36042   0.00000  Uiso   1.00
O228   O     0.08407   0.36693   0.40066   0.00000  Uiso   1.00
O229   O     0.10258   0.31162   0.37028   0.00000  Uiso   1.00
N230   N     0.39929   0.15501   0.63980   0.00000  Uiso   1.00
O231   O     0.41254   0.13477   0.59740   0.00000  Uiso   1.00
O232   O     0.39680   0.19005   0.63174   0.00000  Uiso   1.00
N233   N     0.15349   0.09927   0.36042   0.00000  Uiso   1.00
O234   O     0.13295   0.08404   0.40064   0.00000  Uiso   1.00
O235   O     0.18826   0.10260   0.37029   0.00000  Uiso   1.00
N236   N     0.34650   0.40072   0.63958   0.00000  Uiso   1.00
O237   O     0.36703   0.41596   0.59936   0.00000  Uiso   1.00
O238   O     0.31173   0.39738   0.62971   0.00000  Uiso   1.00
N239   N     0.40130   0.15313   0.35999   0.00000  Uiso   1.00
O240   O     0.42312   0.13453   0.39411   0.00000  Uiso   1.00
O241   O     0.39435   0.18700   0.37280   0.00000  Uiso   1.00
N242   N     0.09873   0.34689   0.63993   0.00000  Uiso   1.00
O243   O     0.07816   0.36604   0.60457   0.00000  Uiso   1.00
O244   O     0.10484   0.31277   0.62778   0.00000  Uiso   1.00
Zn245  Zn    0.54333   0.25000   0.20067   0.00000  Uiso   1.00
Zn246  Zn    0.95667   0.25000   0.79933   0.00000  Uiso   1.00
Zn247  Zn    0.75000   0.45667   0.20067   0.00000  Uiso   1.00
Zn248  Zn    0.75000   0.04333   0.79933   0.00000  Uiso   1.00
Zn249  Zn    0.95667   0.25000   0.20067   0.00000  Uiso   1.00
Zn250  Zn    0.54333   0.25000   0.79933   0.00000  Uiso   1.00
Zn251  Zn    0.75000   0.04333   0.20067   0.00000  Uiso   1.00
Zn252  Zn    0.75000   0.45667   0.79933   0.00000  Uiso   1.00
Zn253  Zn    0.79333   0.00000   0.70067   0.00000  Uiso   1.00
Zn254  Zn    0.70667   0.00000   0.29933   0.00000  Uiso   1.00
Zn255  Zn    0.50000   0.20667   0.70067   0.00000  Uiso   1.00
Zn256  Zn    0.50000   0.29333   0.29933   0.00000  Uiso   1.00
Zn257  Zn    0.70667   0.00000   0.70067   0.00000  Uiso   1.00
Zn258  Zn    0.79333   0.00000   0.29933   0.00000  Uiso   1.00
Zn259  Zn    0.50000   0.29333   0.70067   0.00000  Uiso   1.00
Zn260  Zn    0.50000   0.20667   0.29933   0.00000  Uiso   1.00
C261   C     0.50001   0.25000   0.02667   0.00000  Uiso   1.00
C262   C     0.99999   0.25000   0.97333   0.00000  Uiso   1.00
C263   C     0.75000   0.00001   0.02667   0.00000  Uiso   1.00
C264   C     0.75000   0.49999   0.97333   0.00000  Uiso   1.00
C265   C     0.75001  -0.00000   0.52667   0.00000  Uiso   1.00
C266   C     0.74999   0.00000   0.47333   0.00000  Uiso   1.00
C267   C     0.50000   0.25001   0.52667   0.00000  Uiso   1.00
C268   C     0.50000   0.24999   0.47333   0.00000  Uiso   1.00
O269   O     0.50000   0.25000   0.25000   0.00000  Uiso   1.00
O270   O     0.50000   0.25000   0.75000   0.00000  Uiso   1.00
O271   O     0.75000   0.00000   0.25000   0.00000  Uiso   1.00
O272   O     0.75000   0.00000   0.75000   0.00000  Uiso   1.00
O273   O     0.50000   0.28035   0.38219   0.00000  Uiso   1.00
O274   O     0.50000   0.21964   0.61781   0.00000  Uiso   1.00
O275   O     0.78036   0.00000   0.38219   0.00000  Uiso   1.00
O276   O     0.71965   0.00000   0.61781   0.00000  Uiso   1.00
O277   O     0.50000   0.21964   0.38219   0.00000  Uiso   1.00
O278   O     0.50000   0.28035   0.61781   0.00000  Uiso   1.00
O279   O     0.71965   0.00000   0.38219   0.00000  Uiso   1.00
O280   O     0.78036   0.00000   0.61781   0.00000  Uiso   1.00
O281   O     0.75000   0.03036   0.88219   0.00000  Uiso   1.00
O282   O     0.75000   0.46965   0.11781   0.00000  Uiso   1.00
O283   O     0.53036   0.25000   0.88219   0.00000  Uiso   1.00
O284   O     0.96965   0.25000   0.11781   0.00000  Uiso   1.00
O285   O     0.75000   0.46965   0.88219   0.00000  Uiso   1.00
O286   O     0.75000   0.03036   0.11781   0.00000  Uiso   1.00
O287   O     0.96965   0.25000   0.88219   0.00000  Uiso   1.00
O288   O     0.53036   0.25000   0.11781   0.00000  Uiso   1.00
O289   O     0.54268   0.17693   0.28474   0.00000  Uiso   1.00
O290   O     0.95733   0.32308   0.71526   0.00000  Uiso   1.00
O291   O     0.67693   0.45733   0.28474   0.00000  Uiso   1.00
O292   O     0.82308   0.04268   0.71526   0.00000  Uiso   1.00
O293   O     0.95733   0.32308   0.28474   0.00000  Uiso   1.00
O294   O     0.54268   0.17693   0.71526   0.00000  Uiso   1.00
O295   O     0.82308   0.04268   0.28474   0.00000  Uiso   1.00
O296   O     0.67693   0.45733   0.71526   0.00000  Uiso   1.00
O297   O     0.54268   0.32307   0.71526   0.00000  Uiso   1.00
O298   O     0.95733   0.17693   0.28474   0.00000  Uiso   1.00
O299   O     0.67693   0.04268   0.71526   0.00000  Uiso   1.00
O300   O     0.82308   0.45733   0.28474   0.00000  Uiso   1.00
O301   O     0.95733   0.17693   0.71526   0.00000  Uiso   1.00
O302   O     0.54268   0.32307   0.28474   0.00000  Uiso   1.00
O303   O     0.82308   0.45733   0.71526   0.00000  Uiso   1.00
O304   O     0.67693   0.04268   0.28474   0.00000  Uiso   1.00
O305   O     0.79268   0.42693   0.78474   0.00000  Uiso   1.00
O306   O     0.70733   0.07308   0.21526   0.00000  Uiso   1.00
O307   O     0.92693   0.20733   0.78474   0.00000  Uiso   1.00
O308   O     0.57308   0.29268   0.21526   0.00000  Uiso   1.00
O309   O     0.70733   0.07308   0.78474   0.00000  Uiso   1.00
O310   O     0.79268   0.42693   0.21526   0.00000  Uiso   1.00
O311   O     0.57308   0.29268   0.78474   0.00000  Uiso   1.00
O312   O     0.92693   0.20733   0.21526   0.00000  Uiso   1.00
O313   O     0.79268   0.07308   0.21526   0.00000  Uiso   1.00
O314   O     0.70733   0.42693   0.78474   0.00000  Uiso   1.00
O315   O     0.92693   0.29268   0.21526   0.00000  Uiso   1.00
O316   O     0.57308   0.20733   0.78474   0.00000  Uiso   1.00
O317   O     0.70733   0.42693   0.21526   0.00000  Uiso   1.00
O318   O     0.79268   0.07308   0.78474   0.00000  Uiso   1.00
O319   O     0.57308   0.20733   0.21526   0.00000  Uiso   1.00
O320   O     0.92693   0.29268   0.78474   0.00000  Uiso   1.00
C321   C     0.50000   0.24999   0.41007   0.00000  Uiso   1.00
C322   C     0.50000   0.25001   0.58993   0.00000  Uiso   1.00
C323   C     0.74999   0.00000   0.41007   0.00000  Uiso   1.00
C324   C     0.75001  -0.00000   0.58993   0.00000  Uiso   1.00
C325   C     0.75000   0.49999   0.91007   0.00000  Uiso   1.00
C326   C     0.75000   0.00001   0.08993   0.00000  Uiso   1.00
C327   C     0.99999   0.25000   0.91007   0.00000  Uiso   1.00
C328   C     0.50001   0.25000   0.08993   0.00000  Uiso   1.00
C329   C     0.57000   0.17995   0.24998   0.00000  Uiso   1.00
C330   C     0.93000   0.32005   0.75002   0.00000  Uiso   1.00
C331   C     0.67995   0.43001   0.24998   0.00000  Uiso   1.00
C332   C     0.82008   0.06995   0.75005   0.00000  Uiso   1.00
C333   C     0.93001   0.32005   0.24998   0.00000  Uiso   1.00
C334   C     0.56999   0.17995   0.75002   0.00000  Uiso   1.00
C335   C     0.81999   0.07006   0.25002   0.00000  Uiso   1.00
C336   C     0.68000   0.42995   0.74999   0.00000  Uiso   1.00
C337   C     0.56999   0.32005   0.75001   0.00000  Uiso   1.00
C338   C     0.93001   0.17994   0.24998   0.00000  Uiso   1.00
C339   C     0.68001   0.07005   0.74998   0.00000  Uiso   1.00
C340   C     0.81999   0.42995   0.25002   0.00000  Uiso   1.00
C341   C     0.92997   0.17997   0.75016   0.00000  Uiso   1.00
C342   C     0.57005   0.31999   0.25002   0.00000  Uiso   1.00
C343   C     0.82000   0.42995   0.74998   0.00000  Uiso   1.00
C344   C     0.68000   0.07005   0.25002   0.00000  Uiso   1.00
C345   C     0.61203   0.36102   0.19541   0.00000  Uiso   1.00
C346   C     0.88858   0.13832   0.80467   0.00000  Uiso   1.00
C347   C     0.86102   0.38802   0.19541   0.00000  Uiso   1.00
C348   C     0.63900   0.11199   0.80458   0.00000  Uiso   1.00
C349   C     0.88825   0.13872   0.19522   0.00000  Uiso   1.00
C350   C     0.61181   0.36121   0.80476   0.00000  Uiso   1.00
C351   C     0.63902   0.11202   0.19541   0.00000  Uiso   1.00
C352   C     0.86099   0.38799   0.80459   0.00000  Uiso   1.00
C353   C     0.61179   0.13871   0.80478   0.00000  Uiso   1.00
C354   C     0.88821   0.36128   0.19523   0.00000  Uiso   1.00
C355   C     0.86223   0.11074   0.80494   0.00000  Uiso   1.00
C356   C     0.63875   0.38822   0.19523   0.00000  Uiso   1.00
C357   C     0.88817   0.36125   0.80477   0.00000  Uiso   1.00
C358   C     0.61183   0.13875   0.19523   0.00000  Uiso   1.00
C359   C     0.63900   0.38795   0.80461   0.00000  Uiso   1.00
C360   C     0.86103   0.11202   0.19541   0.00000  Uiso   1.00
C361   C     0.86149   0.11152   0.69557   0.00000  Uiso   1.00
C362   C     0.63797   0.38898   0.30459   0.00000  Uiso   1.00
C363   C     0.61101   0.13801   0.69542   0.00000  Uiso   1.00
C364   C     0.88898   0.36198   0.30458   0.00000  Uiso   1.00
C365   C     0.63815   0.38883   0.69527   0.00000  Uiso   1.00
C366   C     0.86175   0.11128   0.30477   0.00000  Uiso   1.00
C367   C     0.88901   0.36201   0.69541   0.00000  Uiso   1.00
C368   C     0.61098   0.13798   0.30459   0.00000  Uiso   1.00
C369   C     0.86179   0.38872   0.30477   0.00000  Uiso   1.00
C370   C     0.63821   0.11129   0.69522   0.00000  Uiso   1.00
C371   C     0.61125   0.36178   0.30477   0.00000  Uiso   1.00
C372   C     0.88799   0.13898   0.69535   0.00000  Uiso   1.00
C373   C     0.63817   0.11125   0.30477   0.00000  Uiso   1.00
C374   C     0.86182   0.38875   0.69523   0.00000  Uiso   1.00
C375   C     0.88898   0.13798   0.30458   0.00000  Uiso   1.00
C376   C     0.61101   0.36204   0.69539   0.00000  Uiso   1.00
C377   C     0.65174   0.40205   0.24989   0.00000  Uiso   1.00
C378   C     0.84848   0.09770   0.75027   0.00000  Uiso   1.00
C379   C     0.90204   0.34826   0.24989   0.00000  Uiso   1.00
C380   C     0.59795   0.15174   0.75012   0.00000  Uiso   1.00
C381   C     0.84794   0.09828   0.25011   0.00000  Uiso   1.00
C382   C     0.65202   0.40176   0.74993   0.00000  Uiso   1.00
C383   C     0.59796   0.15174   0.24989   0.00000  Uiso   1.00
C384   C     0.90204   0.34826   0.75011   0.00000  Uiso   1.00
C385   C     0.65205   0.09826   0.74988   0.00000  Uiso   1.00
C386   C     0.84796   0.40174   0.25011   0.00000  Uiso   1.00
C387   C     0.90151   0.15226   0.75002   0.00000  Uiso   1.00
C388   C     0.59827   0.34795   0.25011   0.00000  Uiso   1.00
C389   C     0.84796   0.40174   0.74989   0.00000  Uiso   1.00
C390   C     0.65204   0.09826   0.25011   0.00000  Uiso   1.00
C391   C     0.59797   0.34824   0.75009   0.00000  Uiso   1.00
C392   C     0.90207   0.15172   0.24989   0.00000  Uiso   1.00
N393   N     0.59689   0.34868   0.13999   0.00000  Uiso   1.00
O394   O     0.61554   0.32697   0.10578   0.00000  Uiso   1.00
O395   O     0.56301   0.35557   0.12724   0.00000  Uiso   1.00
N396   N     0.90421   0.15015   0.85995   0.00000  Uiso   1.00
O397   O     0.89207   0.17946   0.88581   0.00000  Uiso   1.00
O398   O     0.92668   0.12896   0.88841   0.00000  Uiso   1.00
N399   N     0.84869   0.40319   0.14000   0.00000  Uiso   1.00
O400   O     0.82699   0.38456   0.10577   0.00000  Uiso   1.00
O401   O     0.85555   0.43710   0.12725   0.00000  Uiso   1.00
N402   N     0.65135   0.09683   0.85999   0.00000  Uiso   1.00
O403   O     0.67331   0.11535   0.89392   0.00000  Uiso   1.00
O404   O     0.64429   0.06299   0.87292   0.00000  Uiso   1.00
N405   N     0.90364   0.15067   0.13958   0.00000  Uiso   1.00
O406   O     0.88313   0.16571   0.09918   0.00000  Uiso   1.00
O407   O     0.93844   0.14741   0.12981   0.00000  Uiso   1.00
N408   N     0.59646   0.34920   0.86040   0.00000  Uiso   1.00
O409   O     0.61693   0.33376   0.90044   0.00000  Uiso   1.00
O410   O     0.56170   0.35264   0.87037   0.00000  Uiso   1.00
N411   N     0.65139   0.09688   0.14000   0.00000  Uiso   1.00
O412   O     0.67311   0.11554   0.10576   0.00000  Uiso   1.00
O413   O     0.64454   0.06298   0.12726   0.00000  Uiso   1.00
N414   N     0.84862   0.40314   0.86000   0.00000  Uiso   1.00
O415   O     0.82693   0.38447   0.89428   0.00000  Uiso   1.00
O416   O     0.85546   0.43704   0.87271   0.00000  Uiso   1.00
N417   N     0.59643   0.15065   0.86043   0.00000  Uiso   1.00
O418   O     0.61700   0.16555   0.90087   0.00000  Uiso   1.00
O419   O     0.56163   0.14745   0.87024   0.00000  Uiso   1.00
N420   N     0.90357   0.34934   0.13958   0.00000  Uiso   1.00
O421   O     0.88306   0.33415   0.09936   0.00000  Uiso   1.00
O422   O     0.93835   0.35268   0.12970   0.00000  Uiso   1.00
N423   N     0.85049   0.09521   0.86068   0.00000  Uiso   1.00
O424   O     0.84057   0.11618   0.90458   0.00000  Uiso   1.00
O425   O     0.85120   0.06008   0.86864   0.00000  Uiso   1.00
N426   N     0.65073   0.40358   0.13958   0.00000  Uiso   1.00
O427   O     0.66593   0.38307   0.09934   0.00000  Uiso   1.00
O428   O     0.64742   0.43838   0.12972   0.00000  Uiso   1.00
N429   N     0.90349   0.34927   0.86041   0.00000  Uiso   1.00
O430   O     0.88297   0.33402   0.90062   0.00000  Uiso   1.00
O431   O     0.93827   0.35262   0.87029   0.00000  Uiso   1.00
N432   N     0.59651   0.15073   0.13958   0.00000  Uiso   1.00
O433   O     0.61705   0.16596   0.09936   0.00000  Uiso   1.00
O434   O     0.56174   0.14740   0.12970   0.00000  Uiso   1.00
N435   N     0.65135   0.40304   0.86004   0.00000  Uiso   1.00
O436   O     0.67290   0.38428   0.89438   0.00000  Uiso   1.00
O437   O     0.64463   0.43697   0.87277   0.00000  Uiso   1.00
N438   N     0.84870   0.09687   0.14000   0.00000  Uiso   1.00
O439   O     0.82687   0.11546   0.10589   0.00000  Uiso   1.00
O440   O     0.85566   0.06300   0.12719   0.00000  Uiso   1.00
N441   N     0.84578   0.09970   0.64031   0.00000  Uiso   1.00
O442   O     0.86352   0.07719   0.60617   0.00000  Uiso   1.00
O443   O     0.81205   0.10756   0.62802   0.00000  Uiso   1.00
N444   N     0.65311   0.40132   0.36000   0.00000  Uiso   1.00
O445   O     0.63446   0.42304   0.39422   0.00000  Uiso   1.00
O446   O     0.68699   0.39443   0.37276   0.00000  Uiso   1.00
N447   N     0.59868   0.15319   0.64000   0.00000  Uiso   1.00
O448   O     0.57695   0.13457   0.60581   0.00000  Uiso   1.00
O449   O     0.60557   0.18709   0.62723   0.00000  Uiso   1.00
N450   N     0.90131   0.34681   0.36000   0.00000  Uiso   1.00
O451   O     0.92301   0.36544   0.39423   0.00000  Uiso   1.00
O452   O     0.89445   0.31290   0.37275   0.00000  Uiso   1.00
N453   N     0.65346   0.40089   0.63966   0.00000  Uiso   1.00
O454   O     0.63318   0.41744   0.60054   0.00000  Uiso   1.00
O455   O     0.68812   0.39696   0.62928   0.00000  Uiso   1.00
N456   N     0.84637   0.09933   0.36042   0.00000  Uiso   1.00
O457   O     0.86687   0.08427   0.40080   0.00000  Uiso   1.00
O458   O     0.81156   0.10259   0.37019   0.00000  Uiso   1.00
N459   N     0.90138   0.34686   0.64000   0.00000  Uiso   1.00
O460   O     0.92308   0.36552   0.60573   0.00000  Uiso   1.00
O461   O     0.89453   0.31296   0.62728   0.00000  Uiso   1.00
N462   N     0.59861   0.15312   0.36000   0.00000  Uiso   1.00
O463   O     0.57689   0.13446   0.39424   0.00000  Uiso   1.00
O464   O     0.60546   0.18702   0.37274   0.00000  Uiso   1.00
N465   N     0.84643   0.40066   0.36042   0.00000  Uiso   1.00
O466   O     0.86694   0.41585   0.40064   0.00000  Uiso   1.00
O467   O     0.81165   0.39733   0.37029   0.00000  Uiso   1.00
N468   N     0.65357   0.09934   0.63958   0.00000  Uiso   1.00
O469   O     0.63305   0.08419   0.59933   0.00000  Uiso   1.00
O470   O     0.68835   0.10266   0.62970   0.00000  Uiso   1.00
N471   N     0.59927   0.34642   0.36042   0.00000  Uiso   1.00
O472   O     0.58407   0.36693   0.40066   0.00000  Uiso   1.00
O473   O     0.60258   0.31162   0.37028   0.00000  Uiso   1.00
N474   N     0.89929   0.15501   0.63980   0.00000  Uiso   1.00
O475   O     0.91254   0.13477   0.59740   0.00000  Uiso   1.00
O476   O     0.89680   0.19005   0.63174   0.00000  Uiso   1.00
N477   N     0.65349   0.09927   0.36042   0.00000  Uiso   1.00
O478   O     0.63295   0.08404   0.40064   0.00000  Uiso   1.00
O479   O     0.68826   0.10260   0.37029   0.00000  Uiso   1.00
N480   N     0.84650   0.40072   0.63958   0.00000  Uiso   1.00
O481   O     0.86703   0.41596   0.59936   0.00000  Uiso   1.00
O482   O     0.81173   0.39738   0.62971   0.00000  Uiso   1.00
N483   N     0.90130   0.15313   0.35999   0.00000  Uiso   1.00
O484   O     0.92312   0.13453   0.39411   0.00000  Uiso   1.00
O485   O     0.89435   0.18700   0.37280   0.00000  Uiso   1.00
N486   N     0.59873   0.34689   0.63993   0.00000  Uiso   1.00
O487   O     0.57816   0.36604   0.60457   0.00000  Uiso   1.00
O488   O     0.60484   0.31277   0.62778   0.00000  Uiso   1.00
Zn489  Zn    0.04333   0.75000   0.20067   0.00000  Uiso   1.00
Zn490  Zn    0.45667   0.75000   0.79933   0.00000  Uiso   1.00
Zn491  Zn    0.25000   0.95667   0.20067   0.00000  Uiso   1.00
Zn492  Zn    0.25000   0.54333   0.79933   0.00000  Uiso   1.00
Zn493  Zn    0.45667   0.75000   0.20067   0.00000  Uiso   1.00
Zn494  Zn    0.04333   0.75000   0.79933   0.00000  Uiso   1.00
Zn495  Zn    0.25000   0.54333   0.20067   0.00000  Uiso   1.00
Zn496  Zn    0.25000   0.95667   0.79933   0.00000  Uiso   1.00
Zn497  Zn    0.29333   0.50000   0.70067   0.00000  Uiso   1.00
Zn498  Zn    0.20667   0.50000   0.29933   0.00000  Uiso   1.00
Zn499  Zn    0.00000   0.70667   0.70067   0.00000  Uiso   1.00
Zn500  Zn    0.00000   0.79333   0.29933   0.00000  Uiso   1.00
Zn501  Zn    0.20667   0.50000   0.70067   0.00000  Uiso   1.00
Zn502  Zn    0.29333   0.50000   0.29933   0.00000  Uiso   1.00
Zn503  Zn    0.00000   0.79333   0.70067   0.00000  Uiso   1.00
Zn504  Zn    0.00000   0.70667   0.29933   0.00000  Uiso   1.00
C505   C     0.00001   0.75000   0.02667   0.00000  Uiso   1.00
C506   C     0.49999   0.75000   0.97333   0.00000  Uiso   1.00
C507   C     0.25000   0.50001   0.02667   0.00000  Uiso   1.00
C508   C     0.25000   0.99999   0.97333   0.00000  Uiso   1.00
C509   C     0.25001   0.50000   0.52667   0.00000  Uiso   1.00
C510   C     0.24999   0.50000   0.47333   0.00000  Uiso   1.00
C511   C    -0.00000   0.75001   0.52667   0.00000  Uiso   1.00
C512   C     0.00000   0.74999   0.47333   0.00000  Uiso   1.00
O513   O     0.00000   0.75000   0.25000   0.00000  Uiso   1.00
O514   O     0.00000   0.75000   0.75000   0.00000  Uiso   1.00
O515   O     0.25000   0.50000   0.25000   0.00000  Uiso   1.00
O516   O     0.25000   0.50000   0.75000   0.00000  Uiso   1.00
O517   O     0.00000   0.78035   0.38219   0.00000  Uiso   1.00
O518   O     0.00000   0.71964   0.61781   0.00000  Uiso   1.00
O519   O     0.28036   0.50000   0.38219   0.00000  Uiso   1.00
O520   O     0.21965   0.50000   0.61781   0.00000  Uiso   1.00
O521   O     0.00000   0.71964   0.38219   0.00000  Uiso   1.00
O522   O     0.00000   0.78035   0.61781   0.00000  Uiso   1.00
O523   O     0.21965   0.50000   0.38219   0.00000  Uiso   1.00
O524   O     0.28036   0.50000   0.61781   0.00000  Uiso   1.00
O525   O     0.25000   0.53036   0.88219   0.00000  Uiso   1.00
O526   O     0.25000   0.96965   0.11781   0.00000  Uiso   1.00
O527   O     0.03036   0.75000   0.88219   0.00000  Uiso   1.00
O528   O     0.46965   0.75000   0.11781   0.00000  Uiso   1.00
O529   O     0.25000   0.96965   0.88219   0.00000  Uiso   1.00
O530   O     0.25000   0.53036   0.11781   0.00000  Uiso   1.00
O531   O     0.46965   0.75000   0.88219   0.00000  Uiso   1.00
O532   O     0.03036   0.75000   0.11781   0.00000  Uiso   1.00
O533   O     0.04268   0.67693   0.28474   0.00000  Uiso   1.00
O534   O     0.45733   0.82308   0.71526   0.00000  Uiso   1.00
O535   O     0.17693   0.95733   0.28474   0.00000  Uiso   1.00
O536   O     0.32308   0.54268   0.71526   0.00000  Uiso   1.00
O537   O     0.45733   0.82308   0.28474   0.00000  Uiso   1.00
O538   O     0.04268   0.67693   0.71526   0.00000  Uiso   1.00
O539   O     0.32308   0.54268   0.28474   0.00000  Uiso   1.00
O540   O     0.17693   0.95733   0.71526   0.00000  Uiso   1.00
O541   O     0.04268   0.82307   0.71526   0.00000  Uiso   1.00
O542   O     0.45733   0.67693   0.28474   0.00000  Uiso   1.00
O543   O     0.17693   0.54268   0.71526   0.00000  Uiso   1.00
O544   O     0.32308   0.95733   0.28474   0.00000  Uiso   1.00
O545   O     0.45733   0.67693   0.71526   0.00000  Uiso   1.00
O546   O     0.04268   0.82307   0.28474   0.00000  Uiso   1.00
O547   O     0.32308   0.95733   0.71526   0.00000  Uiso   1.00
O548   O     0.17693   0.54268   0.28474   0.00000  Uiso   1.00
O549   O     0.29268   0.92693   0.78474   0.00000  Uiso   1.00
O550   O     0.20733   0.57308   0.21526   0.00000  Uiso   1.00
O551   O     0.42693   0.70733   0.78474   0.00000  Uiso   1.00
O552   O     0.07308   0.79268   0.21526   0.00000  Uiso   1.00
O553   O     0.20733   0.57308   0.78474   0.00000  Uiso   1.00
O554   O     0.29268   0.92693   0.21526   0.00000  Uiso   1.00
O555   O     0.07308   0.79268   0.78474   0.00000  Uiso   1.00
O556   O     0.42693   0.70733   0.21526   0.00000  Uiso   1.00
O557   O     0.29268   0.57308   0.21526   0.00000  Uiso   1.00
O558   O     0.20733   0.92693   0.78474   0.00000  Uiso   1.00
O559   O     0.42693   0.79268   0.21526   0.00000  Uiso   1.00
O560   O     0.07308   0.70733   0.78474   0.00000  Uiso   1.00
O561   O     0.20733   0.92693   0.21526   0.00000  Uiso   1.00
O562   O     0.29268   0.57308   0.78474   0.00000  Uiso   1.00
O563   O     0.07308   0.70733   0.21526   0.00000  Uiso   1.00
O564   O     0.42693   0.79268   0.78474   0.00000  Uiso   1.00
C565   C     0.00000   0.74999   0.41007   0.00000  Uiso   1.00
C566   C    -0.00000   0.75001   0.58993   0.00000  Uiso   1.00
C567   C     0.24999   0.50000   0.41007   0.00000  Uiso   1.00
C568   C     0.25001   0.50000   0.58993   0.00000  Uiso   1.00
C569   C     0.25000   0.99999   0.91007   0.00000  Uiso   1.00
C570   C     0.25000   0.50001   0.08993   0.00000  Uiso   1.00
C571   C     0.49999   0.75000   0.91007   0.00000  Uiso   1.00
C572   C     0.00001   0.75000   0.08993   0.00000  Uiso   1.00
C573   C     0.07000   0.67995   0.24998   0.00000  Uiso   1.00
C574   C     0.43000   0.82005   0.75002   0.00000  Uiso   1.00
C575   C     0.17995   0.93001   0.24998   0.00000  Uiso   1.00
C576   C     0.32008   0.56995   0.75005   0.00000  Uiso   1.00
C577   C     0.43001   0.82005   0.24998   0.00000  Uiso   1.00
C578   C     0.06999   0.67995   0.75002   0.00000  Uiso   1.00
C579   C     0.31999   0.57006   0.25002   0.00000  Uiso   1.00
C580   C     0.18000   0.92995   0.74999   0.00000  Uiso   1.00
C581   C     0.06999   0.82005   0.75001   0.00000  Uiso   1.00
C582   C     0.43001   0.67994   0.24998   0.00000  Uiso   1.00
C583   C     0.18001   0.57005   0.74998   0.00000  Uiso   1.00
C584   C     0.31999   0.92995   0.25002   0.00000  Uiso   1.00
C585   C     0.42997   0.67997   0.75016   0.00000  Uiso   1.00
C586   C     0.07005   0.81999   0.25002   0.00000  Uiso   1.00
C587   C     0.32000   0.92995   0.74998   0.00000  Uiso   1.00
C588   C     0.18000   0.57005   0.25002   0.00000  Uiso   1.00
C589   C     0.11203   0.86102   0.19541   0.00000  Uiso   1.00
C590   C     0.38858   0.63832   0.80467   0.00000  Uiso   1.00
C591   C     0.36102   0.88802   0.19541   0.00000  Uiso   1.00
C592   C     0.13900   0.61199   0.80458   0.00000  Uiso   1.00
C593   C     0.38825   0.63872   0.19522   0.00000  Uiso   1.00
C594   C     0.11181   0.86121   0.80476   0.00000  Uiso   1.00
C595   C     0.13902   0.61202   0.19541   0.00000  Uiso   1.00
C596   C     0.36099   0.88799   0.80459   0.00000  Uiso   1.00
C597   C     0.11179   0.63871   0.80478   0.00000  Uiso   1.00
C598   C     0.38821   0.86128   0.19523   0.00000  Uiso   1.00
C599   C     0.36223   0.61074   0.80494   0.00000  Uiso   1.00
C600   C     0.13875   0.88822   0.19523   0.00000  Uiso   1.00
C601   C     0.38817   0.86125   0.80477   0.00000  Uiso   1.00
C602   C     0.11183   0.63875   0.19523   0.00000  Uiso   1.00
C603   C     0.13900   0.88795   0.80461   0.00000  Uiso   1.00
C604   C     0.36103   0.61202   0.19541   0.00000  Uiso   1.00
C605   C     0.36149   0.61152   0.69557   0.00000  Uiso   1.00
C606   C     0.13797   0.88898   0.30459   0.00000  Uiso   1.00
C607   C     0.11101   0.63801   0.69542   0.00000  Uiso   1.00
C608   C     0.38898   0.86198   0.30458   0.00000  Uiso   1.00
C609   C     0.13815   0.88883   0.69527   0.00000  Uiso   1.00
C610   C     0.36175   0.61128   0.30477   0.00000  Uiso   1.00
C611   C     0.38901   0.86201   0.69541   0.00000  Uiso   1.00
C612   C     0.11098   0.63798   0.30459   0.00000  Uiso   1.00
C613   C     0.36179   0.88872   0.30477   0.00000  Uiso   1.00
C614   C     0.13821   0.61129   0.69522   0.00000  Uiso   1.00
C615   C     0.11125   0.86178   0.30477   0.00000  Uiso   1.00
C616   C     0.38799   0.63898   0.69535   0.00000  Uiso   1.00
C617   C     0.13817   0.61125   0.30477   0.00000  Uiso   1.00
C618   C     0.36182   0.88875   0.69523   0.00000  Uiso   1.00
C619   C     0.38898   0.63798   0.30458   0.00000  Uiso   1.00
C620   C     0.11101   0.86204   0.69539   0.00000  Uiso   1.00
C621   C     0.15174   0.90205   0.24989   0.00000  Uiso   1.00
C622   C     0.34848   0.59770   0.75027   0.00000  Uiso   1.00
C623   C     0.40204   0.84826   0.24989   0.00000  Uiso   1.00
C624   C     0.09795   0.65174   0.75012   0.00000  Uiso   1.00
C625   C     0.34794   0.59828   0.25011   0.00000  Uiso   1.00
C626   C     0.15202   0.90176   0.74993   0.00000  Uiso   1.00
C627   C     0.09796   0.65174   0.24989   0.00000  Uiso   1.00
C628   C     0.40204   0.84826   0.75011   0.00000  Uiso   1.00
C629   C     0.15205   0.59826   0.74988   0.00000  Uiso   1.00
C630   C     0.34796   0.90174   0.25011   0.00000  Uiso   1.00
C631   C     0.40151   0.65226   0.75002   0.00000  Uiso   1.00
C632   C     0.09827   0.84795   0.25011   0.00000  Uiso   1.00
C633   C     0.34796   0.90174   0.74989   0.00000  Uiso   1.00
C634   C     0.15204   0.59826   0.25011   0.00000  Uiso   1.00
C635   C     0.09797   0.84824   0.75009   0.00000  Uiso   1.00
C636   C     0.40207   0.65172   0.24989   0.00000  Uiso   1.00
N637   N     0.09689   0.84868   0.13999   0.00000  Uiso   1.00
O638   O     0.11554   0.82697   0.10578   0.00000  Uiso   1.00
O639   O     0.06301   0.85557   0.12724   0.00000  Uiso   1.00
N640   N     0.40421   0.65015   0.85995   0.00000  Uiso   1.00
O641   O     0.39207   0.67946   0.88581   0.00000  Uiso   1.00
O642   O     0.42668   0.62896   0.88841   0.00000  Uiso   1.00
N643   N     0.34869   0.90319   0.14000   0.00000  Uiso   1.00
O644   O     0.32699   0.88456   0.10577   0.00000  Uiso   1.00
O645   O     0.35555   0.93710   0.12725   0.00000  Uiso   1.00
N646   N     0.15135   0.59683   0.85999   0.00000  Uiso   1.00
O647   O     0.17331   0.61535   0.89392   0.00000  Uiso   1.00
O648   O     0.14429   0.56299   0.87292   0.00000  Uiso   1.00
N649   N     0.40364   0.65067   0.13958   0.00000  Uiso   1.00
O650   O     0.38313   0.66571   0.09918   0.00000  Uiso   1.00
O651   O     0.43844   0.64741   0.12981   0.00000  Uiso   1.00
N652   N     0.09646   0.84920   0.86040   0.00000  Uiso   1.00
O653   O     0.11693   0.83376   0.90044   0.00000  Uiso   1.00
O654   O     0.06170   0.85264   0.87037   0.00000  Uiso   1.00
N655   N     0.15139   0.59688   0.14000   0.00000  Uiso   1.00
O656   O     0.17311   0.61554   0.10576   0.00000  Uiso   1.00
O657   O     0.14454   0.56298   0.12726   0.00000  Uiso   1.00
N658   N     0.34862   0.90314   0.86000   0.00000  Uiso   1.00
O659   O     0.32693   0.88447   0.89428   0.00000  Uiso   1.00
O660   O     0.35546   0.93704   0.87271   0.00000  Uiso   1.00
N661   N     0.09643   0.65065   0.86043   0.00000  Uiso   1.00
O662   O     0.11700   0.66555   0.90087   0.00000  Uiso   1.00
O663   O     0.06163   0.64745   0.87024   0.00000  Uiso   1.00
N664   N     0.40357   0.84934   0.13958   0.00000  Uiso   1.00
O665   O     0.38306   0.83415   0.09936   0.00000  Uiso   1.00
O666   O     0.43835   0.85268   0.12970   0.00000  Uiso   1.00
N667   N     0.35049   0.59521   0.86068   0.00000  Uiso   1.00
O668   O     0.34057   0.61618   0.90458   0.00000  Uiso   1.00
O669   O     0.35120   0.56008   0.86864   0.00000  Uiso   1.00
N670   N     0.15073   0.90358   0.13958   0.00000  Uiso   1.00
O671   O     0.16593   0.88307   0.09934   0.00000  Uiso   1.00
O672   O     0.14742   0.93838   0.12972   0.00000  Uiso   1.00
N673   N     0.40349   0.84927   0.86041   0.00000  Uiso   1.00
O674   O     0.38297   0.83402   0.90062   0.00000  Uiso   1.00
O675   O     0.43827   0.85262   0.87029   0.00000  Uiso   1.00
N676   N     0.09651   0.65073   0.13958   0.00000  Uiso   1.00
O677   O     0.11705   0.66596   0.09936   0.00000  Uiso   1.00
O678   O     0.06174   0.64740   0.12970   0.00000  Uiso   1.00
N679   N     0.15135   0.90304   0.86004   0.00000  Uiso   1.00
O680   O     0.17290   0.88428   0.89438   0.00000  Uiso   1.00
O681   O     0.14463   0.93697   0.87277   0.00000  Uiso   1.00
N682   N     0.34870   0.59687   0.14000   0.00000  Uiso   1.00
O683   O     0.32687   0.61546   0.10589   0.00000  Uiso   1.00
O684   O     0.35566   0.56300   0.12719   0.00000  Uiso   1.00
N685   N     0.34578   0.59970   0.64031   0.00000  Uiso   1.00
O686   O     0.36352   0.57719   0.60617   0.00000  Uiso   1.00
O687   O     0.31205   0.60756   0.62802   0.00000  Uiso   1.00
N688   N     0.15311   0.90132   0.36000   0.00000  Uiso   1.00
O689   O     0.13446   0.92304   0.39422   0.00000  Uiso   1.00
O690   O     0.18699   0.89443   0.37276   0.00000  Uiso   1.00
N691   N     0.09868   0.65319   0.64000   0.00000  Uiso   1.00
O692   O     0.07695   0.63457   0.60581   0.00000  Uiso   1.00
O693   O     0.10557   0.68709   0.62723   0.00000  Uiso   1.00
N694   N     0.40131   0.84681   0.36000   0.00000  Uiso   1.00
O695   O     0.42301   0.86544   0.39423   0.00000  Uiso   1.00
O696   O     0.39445   0.81290   0.37275   0.00000  Uiso   1.00
N697   N     0.15346   0.90089   0.63966   0.00000  Uiso   1.00
O698   O     0.13318   0.91744   0.60054   0.00000  Uiso   1.00
O699   O     0.18812   0.89696   0.62928   0.00000  Uiso   1.00
N700   N     0.34637   0.59933   0.36042   0.00000  Uiso   1.00
O701   O     0.36687   0.58427   0.40080   0.00000  Uiso   1.00
O702   O     0.31156   0.60259   0.37019   0.00000  Uiso   1.00
N703   N     0.40138   0.84686   0.64000   0.00000  Uiso   1.00
O704   O     0.42308   0.86552   0.60573   0.00000  Uiso   1.00
O705   O     0.39453   0.81296   0.62728   0.00000  Uiso   1.00
N706   N     0.09861   0.65312   0.36000   0.00000  Uiso   1.00
O707   O     0.07689   0.63446   0.39424   0.00000  Uiso   1.00
O708   O     0.10546   0.68702   0.37274   0.00000  Uiso   1.00
N709   N     0.34643   0.90066   0.36042   0.00000  Uiso   1.00
O710   O     0.36694   0.91585   0.40064   0.00000  Uiso   1.00
O711   O     0.31165   0.89733   0.37029   0.00000  Uiso   1.00
N712   N     0.15357   0.59934   0.63958   0.00000  Uiso   1.00
O713   O     0.13305   0.58419   0.59933   0.00000  Uiso   1.00
O714   O     0.18835   0.60266   0.62970   0.00000  Uiso   1.00
N715   N     0.09927   0.84642   0.36042   0.00000  Uiso   1.00
O716   O     0.08407   0.86693   0.40066   0.00000  Uiso   1.00
O717   O     0.10258   0.81162   0.37028   0.00000  Uiso   1.00
N718   N     0.39929   0.65501   0.63980   0.00000  Uiso   1.00
O719   O     0.41254   0.63477   0.59740   0.00000  Uiso   1.00
O720   O     0.39680   0.69005   0.63174   0.00000  Uiso   1.00
N721   N     0.15349   0.59927   0.36042   0.00000  Uiso   1.00
O722   O     0.13295   0.58404   0.40064   0.00000  Uiso   1.00
O723   O     0.18826   0.60260   0.37029   0.00000  Uiso   1.00
N724   N     0.34650   0.90072   0.63958   0.00000  Uiso   1.00
O725   O     0.36703   0.91596   0.59936   0.00000  Uiso   1.00
O726   O     0.31173   0.89738   0.62971   0.00000  Uiso   1.00
N727   N     0.40130   0.65313   0.35999   0.00000  Uiso   1.00
O728   O     0.42312   0.63453   0.39411   0.00000  Uiso   1.00
O729   O     0.39435   0.68700   0.37280   0.00000  Uiso   1.00
N730   N     0.09873   0.84689   0.63993   0.00000  Uiso   1.00
O731   O     0.07816   0.86604   0.60457   0.00000  Uiso   1.00
O732   O     0.10484   0.81277   0.62778   0.00000  Uiso   1.00
Zn733  Zn    0.54333   0.75000   0.20067   0.00000  Uiso   1.00
Zn734  Zn    0.95667   0.75000   0.79933   0.00000  Uiso   1.00
Zn735  Zn    0.75000   0.95667   0.20067   0.00000  Uiso   1.00
Zn736  Zn    0.75000   0.54333   0.79933   0.00000  Uiso   1.00
Zn737  Zn    0.95667   0.75000   0.20067   0.00000  Uiso   1.00
Zn738  Zn    0.54333   0.75000   0.79933   0.00000  Uiso   1.00
Zn739  Zn    0.75000   0.54333   0.20067   0.00000  Uiso   1.00
Zn740  Zn    0.75000   0.95667   0.79933   0.00000  Uiso   1.00
Zn741  Zn    0.79333   0.50000   0.70067   0.00000  Uiso   1.00
Zn742  Zn    0.70667   0.50000   0.29933   0.00000  Uiso   1.00
Zn743  Zn    0.50000   0.70667   0.70067   0.00000  Uiso   1.00
Zn744  Zn    0.50000   0.79333   0.29933   0.00000  Uiso   1.00
Zn745  Zn    0.70667   0.50000   0.70067   0.00000  Uiso   1.00
Zn746  Zn    0.79333   0.50000   0.29933   0.00000  Uiso   1.00
Zn747  Zn    0.50000   0.79333   0.70067   0.00000  Uiso   1.00
Zn748  Zn    0.50000   0.70667   0.29933   0.00000  Uiso   1.00
C749   C     0.50001   0.75000   0.02667   0.00000  Uiso   1.00
C750   C     0.99999   0.75000   0.97333   0.00000  Uiso   1.00
C751   C     0.75000   0.50001   0.02667   0.00000  Uiso   1.00
C752   C     0.75000   0.99999   0.97333   0.00000  Uiso   1.00
C753   C     0.75001   0.50000   0.52667   0.00000  Uiso   1.00
C754   C     0.74999   0.50000   0.47333   0.00000  Uiso   1.00
C755   C     0.50000   0.75001   0.52667   0.00000  Uiso   1.00
C756   C     0.50000   0.74999   0.47333   0.00000  Uiso   1.00
O757   O     0.50000   0.75000   0.25000   0.00000  Uiso   1.00
O758   O     0.50000   0.75000   0.75000   0.00000  Uiso   1.00
O759   O     0.75000   0.50000   0.25000   0.00000  Uiso   1.00
O760   O     0.75000   0.50000   0.75000   0.00000  Uiso   1.00
O761   O     0.50000   0.78035   0.38219   0.00000  Uiso   1.00
O762   O     0.50000   0.71964   0.61781   0.00000  Uiso   1.00
O763   O     0.78036   0.50000   0.38219   0.00000  Uiso   1.00
O764   O     0.71965   0.50000   0.61781   0.00000  Uiso   1.00
O765   O     0.50000   0.71964   0.38219   0.00000  Uiso   1.00
O766   O     0.50000   0.78035   0.61781   0.00000  Uiso   1.00
O767   O     0.71965   0.50000   0.38219   0.00000  Uiso   1.00
O768   O     0.78036   0.50000   0.61781   0.00000  Uiso   1.00
O769   O     0.75000   0.53036   0.88219   0.00000  Uiso   1.00
O770   O     0.75000   0.96965   0.11781   0.00000  Uiso   1.00
O771   O     0.53036   0.75000   0.88219   0.00000  Uiso   1.00
O772   O     0.96965   0.75000   0.11781   0.00000  Uiso   1.00
O773   O     0.75000   0.96965   0.88219   0.00000  Uiso   1.00
O774   O     0.75000   0.53036   0.11781   0.00000  Uiso   1.00
O775   O     0.96965   0.75000   0.88219   0.00000  Uiso   1.00
O776   O     0.53036   0.75000   0.11781   0.00000  Uiso   1.00
O777   O     0.54268   0.67693   0.28474   0.00000  Uiso   1.00
O778   O     0.95733   0.82308   0.71526   0.00000  Uiso   1.00
O779   O     0.67693   0.95733   0.28474   0.00000  Uiso   1.00
O780   O     0.82308   0.54268   0.71526   0.00000  Uiso   1.00
O781   O     0.95733   0.82308   0.28474   0.00000  Uiso   1.00
O782   O     0.54268   0.67693   0.71526   0.00000  Uiso   1.00
O783   O     0.82308   0.54268   0.28474   0.00000  Uiso   1.00
O784   O     0.67693   0.95733   0.71526   0.00000  Uiso   1.00
O785   O     0.54268   0.82307   0.71526   0.00000  Uiso   1.00
O786   O     0.95733   0.67693   0.28474   0.00000  Uiso   1.00
O787   O     0.67693   0.54268   0.71526   0.00000  Uiso   1.00
O788   O     0.82308   0.95733   0.28474   0.00000  Uiso   1.00
O789   O     0.95733   0.67693   0.71526   0.00000  Uiso   1.00
O790   O     0.54268   0.82307   0.28474   0.00000  Uiso   1.00
O791   O     0.82308   0.95733   0.71526   0.00000  Uiso   1.00
O792   O     0.67693   0.54268   0.28474   0.00000  Uiso   1.00
O793   O     0.79268   0.92693   0.78474   0.00000  Uiso   1.00
O794   O     0.70733   0.57308   0.21526   0.00000  Uiso   1.00
O795   O     0.92693   0.70733   0.78474   0.00000  Uiso   1.00
O796   O     0.57308   0.79268   0.21526   0.00000  Uiso   1.00
O797   O     0.70733   0.57308   0.78474   0.00000  Uiso   1.00
O798   O     0.79268   0.92693   0.21526   0.00000  Uiso   1.00
O799   O     0.57308   0.79268   0.78474   0.00000  Uiso   1.00
O800   O     0.92693   0.70733   0.21526   0.00000  Uiso   1.00
O801   O     0.79268   0.57308   0.21526   0.00000  Uiso   1.00
O802   O     0.70733   0.92693   0.78474   0.00000  Uiso   1.00
O803   O     0.92693   0.79268   0.21526   0.00000  Uiso   1.00
O804   O     0.57308   0.70733   0.78474   0.00000  Uiso   1.00
O805   O     0.70733   0.92693   0.21526   0.00000  Uiso   1.00
O806   O     0.79268   0.57308   0.78474   0.00000  Uiso   1.00
O807   O     0.57308   0.70733   0.21526   0.00000  Uiso   1.00
O808   O     0.92693   0.79268   0.78474   0.00000  Uiso   1.00
C809   C     0.50000   0.74999   0.41007   0.00000  Uiso   1.00
C810   C     0.50000   0.75001   0.58993   0.00000  Uiso   1.00
C811   C     0.74999   0.50000   0.41007   0.00000  Uiso   1.00
C812   C     0.75001   0.50000   0.58993   0.00000  Uiso   1.00
C813   C     0.75000   0.99999   0.91007   0.00000  Uiso   1.00
C814   C     0.75000   0.50001   0.08993   0.00000  Uiso   1.00
C815   C     0.99999   0.75000   0.91007   0.00000  Uiso   1.00
C816   C     0.50001   0.75000   0.08993   0.00000  Uiso   1.00
C817   C     0.57000   0.67995   0.24998   0.00000  Uiso   1.00
C818   C     0.93000   0.82005   0.75002   0.00000  Uiso   1.00
C819   C     0.67995   0.93001   0.24998   0.00000  Uiso   1.00
C820   C     0.82008   0.56995   0.75005   0.00000  Uiso   1.00
C821   C     0.93001   0.82005   0.24998   0.00000  Uiso   1.00
C822   C     0.56999   0.67995   0.75002   0.00000  Uiso   1.00
C823   C     0.81999   0.57006   0.25002   0.00000  Uiso   1.00
C824   C     0.68000   0.92995   0.74999   0.00000  Uiso   1.00
C825   C     0.56999   0.82005   0.75001   0.00000  Uiso   1.00
C826   C     0.93001   0.67994   0.24998   0.00000  Uiso   1.00
C827   C     0.68001   0.57005   0.74998   0.00000  Uiso   1.00
C828   C     0.81999   0.92995   0.25002   0.00000  Uiso   1.00
C829   C     0.92997   0.67997   0.75016   0.00000  Uiso   1.00
C830   C     0.57005   0.81999   0.25002   0.00000  Uiso   1.00
C831   C     0.82000   0.92995   0.74998   0.00000  Uiso   1.00
C832   C     0.68000   0.57005   0.25002   0.00000  Uiso   1.00
C833   C     0.61203   0.86102   0.19541   0.00000  Uiso   1.00
C834   C     0.88858   0.63832   0.80467   0.00000  Uiso   1.00
C835   C     0.86102   0.88802   0.19541   0.00000  Uiso   1.00
C836   C     0.63900   0.61199   0.80458   0.00000  Uiso   1.00
C837   C     0.88825   0.63872   0.19522   0.00000  Uiso   1.00
C838   C     0.61181   0.86121   0.80476   0.00000  Uiso   1.00
C839   C     0.63902   0.61202   0.19541   0.00000  Uiso   1.00
C840   C     0.86099   0.88799   0.80459   0.00000  Uiso   1.00
C841   C     0.61179   0.63871   0.80478   0.00000  Uiso   1.00
C842   C     0.88821   0.86128   0.19523   0.00000  Uiso   1.00
C843   C     0.86223   0.61074   0.80494   0.00000  Uiso   1.00
C844   C     0.63875   0.88822   0.19523   0.00000  Uiso   1.00
C845   C     0.88817   0.86125   0.80477   0.00000  Uiso   1.00
C846   C     0.61183   0.63875   0.19523   0.00000  Uiso   1.00
C847   C     0.63900   0.88795   0.80461   0.00000  Uiso   1.00
C848   C     0.86103   0.61202   0.19541   0.00000  Uiso   1.00
C849   C     0.86149   0.61152   0.69557   0.00000  Uiso   1.00
C850   C     0.63797   0.88898   0.30459   0.00000  Uiso   1.00
C851   C     0.61101   0.63801   0.69542   0.00000  Uiso   1.00
C852   C     0.88898   0.86198   0.30458   0.00000  Uiso   1.00
C853   C     0.63815   0.88883   0.69527   0.00000  Uiso   1.00
C854   C     0.86175   0.61128   0.30477   0.00000  Uiso   1.00
C855   C     0.88901   0.86201   0.69541   0.00000  Uiso   1.00
C856   C     0.61098   0.63798   0.30459   0.00000  Uiso   1.00
C857   C     0.86179   0.88872   0.30477   0.00000  Uiso   1.00
C858   C     0.63821   0.61129   0.69522   0.00000  Uiso   1.00
C859   C     0.61125   0.86178   0.30477   0.00000  Uiso   1.00
C860   C     0.88799   0.63898   0.69535   0.00000  Uiso   1.00
C861   C     0.63817   0.61125   0.30477   0.00000  Uiso   1.00
C862   C     0.86182   0.88875   0.69523   0.00000  Uiso   1.00
C863   C     0.88898   0.63798   0.30458   0.00000  Uiso   1.00
C864   C     0.61101   0.86204   0.69539   0.00000  Uiso   1.00
C865   C     0.65174   0.90205   0.24989   0.00000  Uiso   1.00
C866   C     0.84848   0.59770   0.75027   0.00000  Uiso   1.00
C867   C     0.90204   0.84826   0.24989   0.00000  Uiso   1.00
C868   C     0.59795   0.65174   0.75012   0.00000  Uiso   1.00
C869   C     0.84794   0.59828   0.25011   0.00000  Uiso   1.00
C870   C     0.65202   0.90176   0.74993   0.00000  Uiso   1.00
C871   C     0.59796   0.65174   0.24989   0.00000  Uiso   1.00
C872   C     0.90204   0.84826   0.75011   0.00000  Uiso   1.00
C873   C     0.65205   0.59826   0.74988   0.00000  Uiso   1.00
C874   C     0.84796   0.90174   0.25011   0.00000  Uiso   1.00
C875   C     0.90151   0.65226   0.75002   0.00000  Uiso   1.00
C876   C     0.59827   0.84795   0.25011   0.00000  Uiso   1.00
C877   C     0.84796   0.90174   0.74989   0.00000  Uiso   1.00
C878   C     0.65204   0.59826   0.25011   0.00000  Uiso   1.00
C879   C     0.59797   0.84824   0.75009   0.00000  Uiso   1.00
C880   C     0.90207   0.65172   0.24989   0.00000  Uiso   1.00
N881   N     0.59689   0.84868   0.13999   0.00000  Uiso   1.00
O882   O     0.61554   0.82697   0.10578   0.00000  Uiso   1.00
O883   O     0.56301   0.85557   0.12724   0.00000  Uiso   1.00
N884   N     0.90421   0.65015   0.85995   0.00000  Uiso   1.00
O885   O     0.89207   0.67946   0.88581   0.00000  Uiso   1.00
O886   O     0.92668   0.62896   0.88841   0.00000  Uiso   1.00
N887   N     0.84869   0.90319   0.14000   0.00000  Uiso   1.00
O888   O     0.82699   0.88456   0.10577   0.00000  Uiso   1.00
O889   O     0.85555   0.93710   0.12725   0.00000  Uiso   1.00
N890   N     0.65135   0.59683   0.85999   0.00000  Uiso   1.00
O891   O     0.67331   0.61535   0.89392   0.00000  Uiso   1.00
O892   O     0.64429   0.56299   0.87292   0.00000  Uiso   1.00
N893   N     0.90364   0.65067   0.13958   0.00000  Uiso   1.00
O894   O     0.88313   0.66571   0.09918   0.00000  Uiso   1.00
O895   O     0.93844   0.64741   0.12981   0.00000  Uiso   1.00
N896   N     0.59646   0.84920   0.86040   0.00000  Uiso   1.00
O897   O     0.61693   0.83376   0.90044   0.00000  Uiso   1.00
O898   O     0.56170   0.85264   0.87037   0.00000  Uiso   1.00
N899   N     0.65139   0.59688   0.14000   0.00000  Uiso   1.00
O900   O     0.67311   0.61554   0.10576   0.00000  Uiso   1.00
O901   O     0.64454   0.56298   0.12726   0.00000  Uiso   1.00
N902   N     0.84862   0.90314   0.86000   0.00000  Uiso   1.00
O903   O     0.82693   0.88447   0.89428   0.00000  Uiso   1.00
O904   O     0.85546   0.93704   0.87271   0.00000  Uiso   1.00
N905   N     0.59643   0.65065   0.86043   0.00000  Uiso   1.00
O906   O     0.61700   0.66555   0.90087   0.00000  Uiso   1.00
O907   O     0.56163   0.64745   0.87024   0.00000  Uiso   1.00
N908   N     0.90357   0.84934   0.13958   0.00000  Uiso   1.00
O909   O     0.88306   0.83415   0.09936   0.00000  Uiso   1.00
O910   O     0.93835   0.85268   0.12970   0.00000  Uiso   1.00
N911   N     0.85049   0.59521   0.86068   0.00000  Uiso   1.00
O912   O     0.84057   0.61618   0.90458   0.00000  Uiso   1.00
O913   O     0.85120   0.56008   0.86864   0.00000  Uiso   1.00
N914   N     0.65073   0.90358   0.13958   0.00000  Uiso   1.00
O915   O     0.66593   0.88307   0.09934   0.00000  Uiso   1.00
O916   O     0.64742   0.93838   0.12972   0.00000  Uiso   1.00
N917   N     0.90349   0.84927   0.86041   0.00000  Uiso   1.00
O918   O     0.88297   0.83402   0.90062   0.00000  Uiso   1.00
O919   O     0.93827   0.85262   0.87029   0.00000  Uiso   1.00
N920   N     0.59651   0.65073   0.13958   0.00000  Uiso   1.00
O921   O     0.61705   0.66596   0.09936   0.00000  Uiso   1.00
O922   O     0.56174   0.64740   0.12970   0.00000  Uiso   1.00
N923   N     0.65135   0.90304   0.86004   0.00000  Uiso   1.00
O924   O     0.67290   0.88428   0.89438   0.00000  Uiso   1.00
O925   O     0.64463   0.93697   0.87277   0.00000  Uiso   1.00
N926   N     0.84870   0.59687   0.14000   0.00000  Uiso   1.00
O927   O     0.82687   0.61546   0.10589   0.00000  Uiso   1.00
O928   O     0.85566   0.56300   0.12719   0.00000  Uiso   1.00
N929   N     0.84578   0.59970   0.64031   0.00000  Uiso   1.00
O930   O     0.86352   0.57719   0.60617   0.00000  Uiso   1.00
O931   O     0.81205   0.60756   0.62802   0.00000  Uiso   1.00
N932   N     0.65311   0.90132   0.36000   0.00000  Uiso   1.00
O933   O     0.63446   0.92304   0.39422   0.00000  Uiso   1.00
O934   O     0.68699   0.89443   0.37276   0.00000  Uiso   1.00
N935   N     0.59868   0.65319   0.64000   0.00000  Uiso   1.00
O936   O     0.57695   0.63457   0.60581   0.00000  Uiso   1.00
O937   O     0.60557   0.68709   0.62723   0.00000  Uiso   1.00
N938   N     0.90131   0.84681   0.36000   0.00000  Uiso   1.00
O939   O     0.92301   0.86544   0.39423   0.00000  Uiso   1.00
O940   O     0.89445   0.81290   0.37275   0.00000  Uiso   1.00
N941   N     0.65346   0.90089   0.63966   0.00000  Uiso   1.00
O942   O     0.63318   0.91744   0.60054   0.00000  Uiso   1.00
O943   O     0.68812   0.89696   0.62928   0.00000  Uiso   1.00
N944   N     0.84637   0.59933   0.36042   0.00000  Uiso   1.00
O945   O     0.86687   0.58427   0.40080   0.00000  Uiso   1.00
O946   O     0.81156   0.60259   0.37019   0.00000  Uiso   1.00
N947   N     0.90138   0.84686   0.64000   0.00000  Uiso   1.00
O948   O     0.92308   0.86552   0.60573   0.00000  Uiso   1.00
O949   O     0.89453   0.81296   0.62728   0.00000  Uiso   1.00
N950   N     0.59861   0.65312   0.36000   0.00000  Uiso   1.00
O951   O     0.57689   0.63446   0.39424   0.00000  Uiso   1.00
O952   O     0.60546   0.68702   0.37274   0.00000  Uiso   1.00
N953   N     0.84643   0.90066   0.36042   0.00000  Uiso   1.00
O954   O     0.86694   0.91585   0.40064   0.00000  Uiso   1.00
O955   O     0.81165   0.89733   0.37029   0.00000  Uiso   1.00
N956   N     0.65357   0.59934   0.63958   0.00000  Uiso   1.00
O957   O     0.63305   0.58419   0.59933   0.00000  Uiso   1.00
O958   O     0.68835   0.60266   0.62970   0.00000  Uiso   1.00
N959   N     0.59927   0.84642   0.36042   0.00000  Uiso   1.00
O960   O     0.58407   0.86693   0.40066   0.00000  Uiso   1.00
O961   O     0.60258   0.81162   0.37028   0.00000  Uiso   1.00
N962   N     0.89929   0.65501   0.63980   0.00000  Uiso   1.00
O963   O     0.91254   0.63477   0.59740   0.00000  Uiso   1.00
O964   O     0.89680   0.69005   0.63174   0.00000  Uiso   1.00
N965   N     0.65349   0.59927   0.36042   0.00000  Uiso   1.00
O966   O     0.63295   0.58404   0.40064   0.00000  Uiso   1.00
O967   O     0.68826   0.60260   0.37029   0.00000  Uiso   1.00
N968   N     0.84650   0.90072   0.63958   0.00000  Uiso   1.00
O969   O     0.86703   0.91596   0.59936   0.00000  Uiso   1.00
O970   O     0.81173   0.89738   0.62971   0.00000  Uiso   1.00
N971   N     0.90130   0.65313   0.35999   0.00000  Uiso   1.00
O972   O     0.92312   0.63453   0.39411   0.00000  Uiso   1.00
O973   O     0.89435   0.68700   0.37280   0.00000  Uiso   1.00
N974   N     0.59873   0.84689   0.63993   0.00000  Uiso   1.00
O975   O     0.57816   0.86604   0.60457   0.00000  Uiso   1.00
O976   O     0.60484   0.81277   0.62778   0.00000  Uiso   1.00
loop_
_geom_bond_atom_site_label_1
_geom_bond_atom_site_label_2
_geom_bond_distance
_geom_bond_site_symmetry_2
_ccdc_geom_bond_type
Zn1    O75     1.937   .     S
Zn1    O44     1.918   .     S
Zn1    O64     1.937   .     S
Zn1    O25     1.936   .     S
Zn2    O43     1.918   .     S
Zn2    O76     1.937   .     S
Zn2    O63     1.937   .     S
Zn2    O270    1.936   .     S
Zn3    O38     1.917   .     S
Zn3    O73     1.936   .     S
Zn3    O66     1.937   .     S
Zn3    O515    1.937   .     S
Zn4    O28     1.937   .     S
Zn4    O74     1.936   .     S
Zn4    O37     1.917   .     S
Zn4    O65     1.937   .     S
Zn5    O68     1.936   .     S
Zn5    O71     1.937   .     S
Zn5    O40     1.917   .     S
Zn5    O269    1.938   .     S
Zn6    O26     1.938   .     S
Zn6    O72     1.937   .     S
Zn6    O67     1.936   .     S
Zn6    O39     1.917   .     S
Zn7    O42     1.918   .     S
Zn7    O62     1.937   .     S
Zn7    O69     1.937   .     S
Zn7    O27     1.936   .     S
Zn8    O61     1.937   .     S
Zn8    O41     1.918   .     S
Zn8    O70     1.937   .     S
Zn8    O516    1.936   .     S
Zn9    O36     1.918   .     S
Zn9    O48     1.937   .     S
Zn9    O28     1.936   .     S
Zn9    O547    1.937   1_545 S
Zn10   O27     1.936   .     S
Zn10   O35     1.918   .     S
Zn10   O60     1.937   .     S
Zn10   O535    1.937   1_545 S
Zn11   O30     1.917   .     S
Zn11   O26     1.937   .     S
Zn11   O50     1.937   .     S
Zn11   O301    1.936   1_455 S
Zn12   O29     1.917   .     S
Zn12   O58     1.936   .     S
Zn12   O25     1.937   .     S
Zn12   O293    1.937   1_455 S
Zn13   O32     1.917   .     S
Zn13   O28     1.938   .     S
Zn13   O55     1.937   .     S
Zn13   O540    1.936   1_545 S
Zn14   O31     1.917   .     S
Zn14   O51     1.936   .     S
Zn14   O27     1.938   .     S
Zn14   O544    1.937   1_545 S
Zn15   O53     1.937   .     S
Zn15   O34     1.918   .     S
Zn15   O26     1.936   .     S
Zn15   O290    1.937   1_455 S
Zn16   O45     1.937   .     S
Zn16   O33     1.918   .     S
Zn16   O25     1.936   .     S
Zn16   O298    1.937   1_455 S
C17    C84     1.418   .     S
C17    C262    1.196   1_454 S
C18    C83     1.418   .     S
C18    C261    1.196   1_556 S
C19    C82     1.418   .     S
C19    C508    1.196   1_544 S
C20    C81     1.418   .     S
C20    C507    1.196   1_556 S
C21    C80     1.418   .     S
C21    C22     1.196   .     S
C22    C79     1.418   .     S
C23    C78     1.418   .     S
C23    C24     1.196   .     S
C24    C77     1.418   .     S
O25    Zn249   1.938   1_455 S
O26    Zn246   1.936   1_455 S
O27    Zn491   1.937   1_545 S
O28    Zn496   1.936   1_545 S
O29    C77     1.277   .     A
O30    C78     1.277   .     S
O31    C79     1.277   .     A
O32    C80     1.277   .     S
O33    C77     1.277   .     A
O34    C78     1.277   .     S
O35    C79     1.277   .     A
O36    C80     1.277   .     S
O37    C569    1.277   1_545 S
O38    C570    1.277   .     S
O39    C327    1.277   1_455 S
O40    C328    1.277   .     S
O41    C81     1.277   .     A
O42    C82     1.277   .     A
O43    C83     1.277   .     A
O44    C84     1.277   .     A
O45    C85     1.274   .     A
O46    C86     1.274   .     A
O46    Zn259   1.937   .     S
O47    C87     1.275   .     A
O47    Zn498   1.937   .     S
O48    C88     1.274   .     A
O49    C89     1.275   .     A
O49    Zn256   1.937   .     S
O50    C90     1.275   .     A
O51    C91     1.276   .     A
O52    C92     1.276   .     A
O52    Zn501   1.936   .     S
O53    C93     1.275   .     A
O54    C94     1.275   .     A
O54    Zn260   1.937   .     S
O55    C95     1.276   .     A
O56    C96     1.276   .     A
O56    Zn502   1.937   .     S
O57    C97     1.277   .     A
O57    Zn255   1.936   .     S
O58    C98     1.276   .     A
O59    C99     1.275   .     A
O59    Zn497   1.937   .     S
O60    C100    1.275   .     A
O61    C99     1.274   .     A
O62    C100    1.274   .     A
O63    C97     1.273   .     A
O64    C98     1.275   .     A
O65    C95     1.275   .     A
O66    C96     1.275   .     A
O67    C93     1.276   .     A
O68    C94     1.276   .     A
O69    C91     1.275   .     A
O70    C92     1.275   .     A
O71    C89     1.276   .     A
O72    C90     1.276   .     A
O73    C87     1.276   .     A
O74    C88     1.276   .     A
O75    C85     1.275   .     A
O76    C86     1.275   .     A
C81    O525    1.277   .     S
C82    O526    1.277   1_545 S
C83    O283    1.277   .     S
C84    O284    1.277   1_455 S
C85    C139    1.457   .     S
C86    C140    1.457   .     S
C87    C133    1.458   .     S
C88    C134    1.457   .     S
C89    C135    1.458   .     S
C90    C136    1.458   .     S
C91    C137    1.458   .     S
C92    C138    1.458   .     S
C93    C147    1.457   .     S
C94    C148    1.458   .     S
C95    C141    1.458   .     S
C96    C142    1.458   .     S
C97    C143    1.458   .     S
C98    C144    1.458   .     S
C99    C145    1.457   .     S
C100   C146    1.457   .     S
C101   C112    1.399   .     A
C101   C144    1.409   .     A
C101   N149    1.435   .     S
C102   C111    1.400   .     A
C102   C143    1.409   .     A
C102   N152    1.433   .     S
C103   C142    1.409   .     A
C103   C110    1.399   .     A
C103   N155    1.435   .     S
C104   C109    1.399   .     A
C104   C141    1.409   .     A
C104   N158    1.434   .     S
C105   C116    1.399   .     A
C105   C148    1.410   .     A
C105   N161    1.437   .     S
C106   N164    1.437   .     S
C106   C147    1.410   .     A
C106   C115    1.399   .     A
C107   N167    1.435   .     S
C107   C146    1.409   .     A
C107   C114    1.399   .     A
C108   N170    1.435   .     S
C108   C113    1.399   .     A
C108   C145    1.409   .     A
C109   N173    1.437   .     S
C109   C136    1.410   .     A
C110   C135    1.410   .     A
C110   N176    1.437   .     S
C111   N179    1.439   .     S
C111   C134    1.410   .     A
C112   C133    1.410   .     A
C112   N182    1.437   .     S
C113   C140    1.410   .     A
C113   N185    1.437   .     S
C114   N188    1.437   .     S
C114   C139    1.410   .     A
C115   C138    1.409   .     A
C115   N191    1.435   .     S
C116   C137    1.409   .     A
C116   N194    1.435   .     S
C117   N197    1.434   .     S
C117   C134    1.410   .     A
C117   C128    1.400   .     A
C118   N200    1.435   .     S
C118   C133    1.409   .     A
C118   C127    1.399   .     A
C119   N203    1.435   .     S
C119   C136    1.409   .     A
C119   C126    1.399   .     A
C120   C125    1.399   .     A
C120   C135    1.409   .     A
C120   N206    1.435   .     S
C121   C138    1.410   .     A
C121   N209    1.437   .     S
C121   C132    1.399   .     A
C122   N212    1.437   .     S
C122   C131    1.399   .     A
C122   C137    1.410   .     A
C123   N215    1.435   .     S
C123   C140    1.409   .     A
C123   C130    1.399   .     A
C124   C129    1.399   .     A
C124   N218    1.435   .     S
C124   C139    1.409   .     A
C125   N221    1.437   .     S
C125   C142    1.410   .     A
C126   C141    1.410   .     A
C126   N224    1.437   .     S
C127   N227    1.437   .     S
C127   C144    1.410   .     A
C128   N230    1.438   .     S
C128   C143    1.410   .     A
C129   N233    1.437   .     S
C129   C146    1.410   .     A
C130   C145    1.410   .     A
C130   N236    1.437   .     S
C131   N239    1.435   .     S
C131   C148    1.409   .     A
C132   C147    1.410   .     A
C132   N242    1.435   .     S
N149   O151    1.301   .     A
N149   O150    1.301   .     A
N152   O154    1.301   .     A
N152   O153    1.301   .     A
N155   O157    1.301   .     A
N155   O156    1.301   .     A
N158   O160    1.301   .     A
N158   O159    1.301   .     A
N161   O162    1.301   .     A
N161   O163    1.301   .     A
N164   O165    1.301   .     A
N164   O166    1.301   .     A
N167   O169    1.301   .     A
N167   O168    1.301   .     A
N170   O171    1.301   .     A
N170   O172    1.301   .     A
N173   O174    1.301   .     A
N173   O175    1.301   .     A
N176   O177    1.301   .     A
N176   O178    1.301   .     A
N179   O180    1.301   .     A
N179   O181    1.301   .     A
N182   O183    1.301   .     A
N182   O184    1.301   .     A
N185   O187    1.301   .     A
N185   O186    1.301   .     A
N188   O190    1.301   .     A
N188   O189    1.301   .     A
N191   O192    1.301   .     A
N191   O193    1.301   .     A
N194   O196    1.301   .     A
N194   O195    1.301   .     A
N197   O199    1.301   .     A
N197   O198    1.301   .     A
N200   O201    1.301   .     A
N200   O202    1.301   .     A
N203   O204    1.301   .     A
N203   O205    1.301   .     A
N206   O207    1.301   .     A
N206   O208    1.301   .     A
N209   O210    1.301   .     A
N209   O211    1.301   .     A
N212   O214    1.301   .     A
N212   O213    1.301   .     A
N215   O217    1.301   .     A
N215   O216    1.301   .     A
N218   O220    1.301   .     A
N218   O219    1.301   .     A
N221   O222    1.301   .     A
N221   O223    1.301   .     A
N224   O225    1.301   .     A
N224   O226    1.301   .     A
N227   O228    1.301   .     A
N227   O229    1.301   .     A
N230   O232    1.301   .     A
N230   O231    1.301   .     A
N233   O234    1.301   .     A
N233   O235    1.301   .     A
N236   O237    1.301   .     A
N236   O238    1.301   .     A
N239   O240    1.301   .     A
N239   O241    1.301   .     A
N242   O244    1.301   .     A
N242   O243    1.301   .     A
Zn245  O319    1.937   .     S
Zn245  O288    1.918   .     S
Zn245  O308    1.937   .     S
Zn245  O269    1.936   .     S
Zn246  O287    1.918   .     S
Zn246  O320    1.937   .     S
Zn246  O307    1.937   .     S
Zn246  O26     1.936   1_655 S
Zn247  O282    1.917   .     S
Zn247  O317    1.936   .     S
Zn247  O310    1.937   .     S
Zn247  O759    1.937   .     S
Zn248  O272    1.937   .     S
Zn248  O318    1.936   .     S
Zn248  O281    1.917   .     S
Zn248  O309    1.937   .     S
Zn249  O312    1.936   .     S
Zn249  O315    1.937   .     S
Zn249  O284    1.917   .     S
Zn249  O25     1.938   1_655 S
Zn250  O270    1.938   .     S
Zn250  O316    1.937   .     S
Zn250  O311    1.936   .     S
Zn250  O283    1.917   .     S
Zn251  O286    1.918   .     S
Zn251  O306    1.937   .     S
Zn251  O313    1.937   .     S
Zn251  O271    1.936   .     S
Zn252  O305    1.937   .     S
Zn252  O285    1.918   .     S
Zn252  O314    1.937   .     S
Zn252  O760    1.936   .     S
Zn253  O280    1.918   .     S
Zn253  O292    1.937   .     S
Zn253  O272    1.936   .     S
Zn253  O791    1.937   1_545 S
Zn254  O271    1.936   .     S
Zn254  O279    1.918   .     S
Zn254  O304    1.937   .     S
Zn254  O779    1.937   1_545 S
Zn255  O274    1.917   .     S
Zn255  O270    1.937   .     S
Zn255  O294    1.937   .     S
Zn256  O273    1.917   .     S
Zn256  O302    1.936   .     S
Zn256  O269    1.937   .     S
Zn257  O276    1.917   .     S
Zn257  O272    1.938   .     S
Zn257  O299    1.937   .     S
Zn257  O784    1.936   1_545 S
Zn258  O275    1.917   .     S
Zn258  O295    1.936   .     S
Zn258  O271    1.938   .     S
Zn258  O788    1.937   1_545 S
Zn259  O297    1.937   .     S
Zn259  O278    1.918   .     S
Zn259  O270    1.936   .     S
Zn260  O289    1.937   .     S
Zn260  O277    1.918   .     S
Zn260  O269    1.936   .     S
C261   C328    1.418   .     S
C261   C18     1.196   1_554 S
C262   C327    1.418   .     S
C262   C17     1.196   1_656 S
C263   C326    1.418   .     S
C263   C752    1.196   1_544 S
C264   C325    1.418   .     S
C264   C751    1.196   1_556 S
C265   C324    1.418   .     S
C265   C266    1.196   .     S
C266   C323    1.418   .     S
C267   C322    1.418   .     S
C267   C268    1.196   .     S
C268   C321    1.418   .     S
O271   Zn735   1.937   1_545 S
O272   Zn740   1.936   1_545 S
O273   C321    1.277   .     A
O274   C322    1.277   .     S
O275   C323    1.277   .     A
O276   C324    1.277   .     S
O277   C321    1.277   .     A
O278   C322    1.277   .     S
O279   C323    1.277   .     A
O280   C324    1.277   .     S
O281   C813    1.277   1_545 S
O282   C814    1.277   .     S
O284   C84     1.277   1_655 S
O285   C325    1.277   .     A
O286   C326    1.277   .     A
O287   C327    1.277   .     A
O288   C328    1.277   .     A
O289   C329    1.274   .     A
O290   C330    1.274   .     A
O290   Zn15    1.937   1_655 S
O291   C331    1.275   .     A
O291   Zn742   1.937   .     S
O292   C332    1.274   .     A
O293   C333    1.275   .     A
O293   Zn12    1.937   1_655 S
O294   C334    1.275   .     A
O295   C335    1.276   .     A
O296   C336    1.276   .     A
O296   Zn745   1.936   .     S
O297   C337    1.275   .     A
O298   C338    1.275   .     A
O298   Zn16    1.937   1_655 S
O299   C339    1.276   .     A
O300   C340    1.276   .     A
O300   Zn746   1.937   .     S
O301   C341    1.277   .     A
O301   Zn11    1.936   1_655 S
O302   C342    1.276   .     A
O303   C343    1.275   .     A
O303   Zn741   1.937   .     S
O304   C344    1.275   .     A
O305   C343    1.274   .     A
O306   C344    1.274   .     A
O307   C341    1.273   .     A
O308   C342    1.275   .     A
O309   C339    1.275   .     A
O310   C340    1.275   .     A
O311   C337    1.276   .     A
O312   C338    1.276   .     A
O313   C335    1.275   .     A
O314   C336    1.275   .     A
O315   C333    1.276   .     A
O316   C334    1.276   .     A
O317   C331    1.276   .     A
O318   C332    1.276   .     A
O319   C329    1.275   .     A
O320   C330    1.275   .     A
C325   O769    1.277   .     S
C326   O770    1.277   1_545 S
C327   O39     1.277   1_655 S
C329   C383    1.457   .     S
C330   C384    1.457   .     S
C331   C377    1.458   .     S
C332   C378    1.457   .     S
C333   C379    1.458   .     S
C334   C380    1.458   .     S
C335   C381    1.458   .     S
C336   C382    1.458   .     S
C337   C391    1.457   .     S
C338   C392    1.458   .     S
C339   C385    1.458   .     S
C340   C386    1.458   .     S
C341   C387    1.458   .     S
C342   C388    1.458   .     S
C343   C389    1.457   .     S
C344   C390    1.457   .     S
C345   C356    1.399   .     A
C345   C388    1.409   .     A
C345   N393    1.435   .     S
C346   C355    1.400   .     A
C346   C387    1.409   .     A
C346   N396    1.433   .     S
C347   C386    1.409   .     A
C347   C354    1.399   .     A
C347   N399    1.435   .     S
C348   C353    1.399   .     A
C348   C385    1.409   .     A
C348   N402    1.434   .     S
C349   C360    1.399   .     A
C349   C392    1.410   .     A
C349   N405    1.437   .     S
C350   N408    1.437   .     S
C350   C391    1.410   .     A
C350   C359    1.399   .     A
C351   N411    1.435   .     S
C351   C390    1.409   .     A
C351   C358    1.399   .     A
C352   N414    1.435   .     S
C352   C357    1.399   .     A
C352   C389    1.409   .     A
C353   N417    1.437   .     S
C353   C380    1.410   .     A
C354   C379    1.410   .     A
C354   N420    1.437   .     S
C355   N423    1.439   .     S
C355   C378    1.410   .     A
C356   C377    1.410   .     A
C356   N426    1.437   .     S
C357   C384    1.410   .     A
C357   N429    1.437   .     S
C358   N432    1.437   .     S
C358   C383    1.410   .     A
C359   C382    1.409   .     A
C359   N435    1.435   .     S
C360   C381    1.409   .     A
C360   N438    1.435   .     S
C361   N441    1.434   .     S
C361   C378    1.410   .     A
C361   C372    1.400   .     A
C362   N444    1.435   .     S
C362   C377    1.409   .     A
C362   C371    1.399   .     A
C363   N447    1.435   .     S
C363   C380    1.409   .     A
C363   C370    1.399   .     A
C364   C369    1.399   .     A
C364   C379    1.409   .     A
C364   N450    1.435   .     S
C365   C382    1.410   .     A
C365   N453    1.437   .     S
C365   C376    1.399   .     A
C366   N456    1.437   .     S
C366   C375    1.399   .     A
C366   C381    1.410   .     A
C367   N459    1.435   .     S
C367   C384    1.409   .     A
C367   C374    1.399   .     A
C368   C373    1.399   .     A
C368   N462    1.435   .     S
C368   C383    1.409   .     A
C369   N465    1.437   .     S
C369   C386    1.410   .     A
C370   C385    1.410   .     A
C370   N468    1.437   .     S
C371   N471    1.437   .     S
C371   C388    1.410   .     A
C372   N474    1.438   .     S
C372   C387    1.410   .     A
C373   N477    1.437   .     S
C373   C390    1.410   .     A
C374   C389    1.410   .     A
C374   N480    1.437   .     S
C375   N483    1.435   .     S
C375   C392    1.409   .     A
C376   C391    1.410   .     A
C376   N486    1.435   .     S
N393   O395    1.301   .     A
N393   O394    1.301   .     A
N396   O398    1.301   .     A
N396   O397    1.301   .     A
N399   O401    1.301   .     A
N399   O400    1.301   .     A
N402   O404    1.301   .     A
N402   O403    1.301   .     A
N405   O406    1.301   .     A
N405   O407    1.301   .     A
N408   O409    1.301   .     A
N408   O410    1.301   .     A
N411   O413    1.301   .     A
N411   O412    1.301   .     A
N414   O415    1.301   .     A
N414   O416    1.301   .     A
N417   O418    1.301   .     A
N417   O419    1.301   .     A
N420   O421    1.301   .     A
N420   O422    1.301   .     A
N423   O424    1.301   .     A
N423   O425    1.301   .     A
N426   O427    1.301   .     A
N426   O428    1.301   .     A
N429   O431    1.301   .     A
N429   O430    1.301   .     A
N432   O434    1.301   .     A
N432   O433    1.301   .     A
N435   O436    1.301   .     A
N435   O437    1.301   .     A
N438   O440    1.301   .     A
N438   O439    1.301   .     A
N441   O443    1.301   .     A
N441   O442    1.301   .     A
N444   O445    1.301   .     A
N444   O446    1.301   .     A
N447   O448    1.301   .     A
N447   O449    1.301   .     A
N450   O451    1.301   .     A
N450   O452    1.301   .     A
N453   O454    1.301   .     A
N453   O455    1.301   .     A
N456   O458    1.301   .     A
N456   O457    1.301   .     A
N459   O461    1.301   .     A
N459   O460    1.301   .     A
N462   O464    1.301   .     A
N462   O463    1.301   .     A
N465   O466    1.301   .     A
N465   O467    1.301   .     A
N468   O469    1.301   .     A
N468   O470    1.301   .     A
N471   O472    1.301   .     A
N471   O473    1.301   .     A
N474   O476    1.301   .     A
N474   O475    1.301   .     A
N477   O478    1.301   .     A
N477   O479    1.301   .     A
N480   O481    1.301   .     A
N480   O482    1.301   .     A
N483   O484    1.301   .     A
N483   O485    1.301   .     A
N486   O488    1.301   .     A
N486   O487    1.301   .     A
Zn489  O563    1.937   .     S
Zn489  O532    1.918   .     S
Zn489  O552    1.937   .     S
Zn489  O513    1.936   .     S
Zn490  O531    1.918   .     S
Zn490  O564    1.937   .     S
Zn490  O551    1.937   .     S
Zn490  O758    1.936   .     S
Zn491  O526    1.917   .     S
Zn491  O561    1.936   .     S
Zn491  O554    1.937   .     S
Zn491  O27     1.937   1_565 S
Zn492  O516    1.937   .     S
Zn492  O562    1.936   .     S
Zn492  O525    1.917   .     S
Zn492  O553    1.937   .     S
Zn493  O556    1.936   .     S
Zn493  O559    1.937   .     S
Zn493  O528    1.917   .     S
Zn493  O757    1.938   .     S
Zn494  O514    1.938   .     S
Zn494  O560    1.937   .     S
Zn494  O555    1.936   .     S
Zn494  O527    1.917   .     S
Zn495  O530    1.918   .     S
Zn495  O550    1.937   .     S
Zn495  O557    1.937   .     S
Zn495  O515    1.936   .     S
Zn496  O549    1.937   .     S
Zn496  O529    1.918   .     S
Zn496  O558    1.937   .     S
Zn496  O28     1.936   1_565 S
Zn497  O524    1.918   .     S
Zn497  O536    1.937   .     S
Zn497  O516    1.936   .     S
Zn498  O515    1.936   .     S
Zn498  O523    1.918   .     S
Zn498  O548    1.937   .     S
Zn499  O518    1.917   .     S
Zn499  O514    1.937   .     S
Zn499  O538    1.937   .     S
Zn499  O789    1.936   1_455 S
Zn500  O517    1.917   .     S
Zn500  O546    1.936   .     S
Zn500  O513    1.937   .     S
Zn500  O781    1.937   1_455 S
Zn501  O520    1.917   .     S
Zn501  O516    1.938   .     S
Zn501  O543    1.937   .     S
Zn502  O519    1.917   .     S
Zn502  O539    1.936   .     S
Zn502  O515    1.938   .     S
Zn503  O541    1.937   .     S
Zn503  O522    1.918   .     S
Zn503  O514    1.936   .     S
Zn503  O778    1.937   1_455 S
Zn504  O533    1.937   .     S
Zn504  O521    1.918   .     S
Zn504  O513    1.936   .     S
Zn504  O786    1.937   1_455 S
C505   C572    1.418   .     S
C505   C750    1.196   1_454 S
C506   C571    1.418   .     S
C506   C749    1.196   1_556 S
C507   C570    1.418   .     S
C507   C20     1.196   1_554 S
C508   C569    1.418   .     S
C508   C19     1.196   1_566 S
C509   C568    1.418   .     S
C509   C510    1.196   .     S
C510   C567    1.418   .     S
C511   C566    1.418   .     S
C511   C512    1.196   .     S
C512   C565    1.418   .     S
O513   Zn737   1.938   1_455 S
O514   Zn734   1.936   1_455 S
O517   C565    1.277   .     A
O518   C566    1.277   .     S
O519   C567    1.277   .     A
O520   C568    1.277   .     S
O521   C565    1.277   .     A
O522   C566    1.277   .     S
O523   C567    1.277   .     A
O524   C568    1.277   .     S
O526   C82     1.277   1_565 S
O527   C815    1.277   1_455 S
O528   C816    1.277   .     S
O529   C569    1.277   .     A
O530   C570    1.277   .     A
O531   C571    1.277   .     A
O532   C572    1.277   .     A
O533   C573    1.274   .     A
O534   C574    1.274   .     A
O534   Zn747   1.937   .     S
O535   C575    1.275   .     A
O535   Zn10    1.937   1_565 S
O536   C576    1.274   .     A
O537   C577    1.275   .     A
O537   Zn744   1.937   .     S
O538   C578    1.275   .     A
O539   C579    1.276   .     A
O540   C580    1.276   .     A
O540   Zn13    1.936   1_565 S
O541   C581    1.275   .     A
O542   C582    1.275   .     A
O542   Zn748   1.937   .     S
O543   C583    1.276   .     A
O544   C584    1.276   .     A
O544   Zn14    1.937   1_565 S
O545   C585    1.277   .     A
O545   Zn743   1.936   .     S
O546   C586    1.276   .     A
O547   C587    1.275   .     A
O547   Zn9     1.937   1_565 S
O548   C588    1.275   .     A
O549   C587    1.274   .     A
O550   C588    1.274   .     A
O551   C585    1.273   .     A
O552   C586    1.275   .     A
O553   C583    1.275   .     A
O554   C584    1.275   .     A
O555   C581    1.276   .     A
O556   C582    1.276   .     A
O557   C579    1.275   .     A
O558   C580    1.275   .     A
O559   C577    1.276   .     A
O560   C578    1.276   .     A
O561   C575    1.276   .     A
O562   C576    1.276   .     A
O563   C573    1.275   .     A
O564   C574    1.275   .     A
C569   O37     1.277   1_565 S
C571   O771    1.277   .     S
C572   O772    1.277   1_455 S
C573   C627    1.457   .     S
C574   C628    1.457   .     S
C575   C621    1.458   .     S
C576   C622    1.457   .     S
C577   C623    1.458   .     S
C578   C624    1.458   .     S
C579   C625    1.458   .     S
C580   C626    1.458   .     S
C581   C635    1.457   .     S
C582   C636    1.458   .     S
C583   C629    1.458   .     S
C584   C630    1.458   .     S
C585   C631    1.458   .     S
C586   C632    1.458   .     S
C587   C633    1.457   .     S
C588   C634    1.457   .     S
C589   C600    1.399   .     A
C589   C632    1.409   .     A
C589   N637    1.435   .     S
C590   C599    1.400   .     A
C590   C631    1.409   .     A
C590   N640    1.433   .     S
C591   C630    1.409   .     A
C591   C598    1.399   .     A
C591   N643    1.435   .     S
C592   C597    1.399   .     A
C592   C629    1.409   .     A
C592   N646    1.434   .     S
C593   C604    1.399   .     A
C593   C636    1.410   .     A
C593   N649    1.437   .     S
C594   N652    1.437   .     S
C594   C635    1.410   .     A
C594   C603    1.399   .     A
C595   N655    1.435   .     S
C595   C634    1.409   .     A
C595   C602    1.399   .     A
C596   N658    1.435   .     S
C596   C601    1.399   .     A
C596   C633    1.409   .     A
C597   N661    1.437   .     S
C597   C624    1.410   .     A
C598   C623    1.410   .     A
C598   N664    1.437   .     S
C599   N667    1.439   .     S
C599   C622    1.410   .     A
C600   C621    1.410   .     A
C600   N670    1.437   .     S
C601   C628    1.410   .     A
C601   N673    1.437   .     S
C602   N676    1.437   .     S
C602   C627    1.410   .     A
C603   C626    1.409   .     A
C603   N679    1.435   .     S
C604   C625    1.409   .     A
C604   N682    1.435   .     S
C605   N685    1.434   .     S
C605   C622    1.410   .     A
C605   C616    1.400   .     A
C606   N688    1.435   .     S
C606   C621    1.409   .     A
C606   C615    1.399   .     A
C607   N691    1.435   .     S
C607   C624    1.409   .     A
C607   C614    1.399   .     A
C608   C613    1.399   .     A
C608   C623    1.409   .     A
C608   N694    1.435   .     S
C609   C626    1.410   .     A
C609   N697    1.437   .     S
C609   C620    1.399   .     A
C610   N700    1.437   .     S
C610   C619    1.399   .     A
C610   C625    1.410   .     A
C611   N703    1.435   .     S
C611   C628    1.409   .     A
C611   C618    1.399   .     A
C612   C617    1.399   .     A
C612   N706    1.435   .     S
C612   C627    1.409   .     A
C613   N709    1.437   .     S
C613   C630    1.410   .     A
C614   C629    1.410   .     A
C614   N712    1.437   .     S
C615   N715    1.437   .     S
C615   C632    1.410   .     A
C616   N718    1.438   .     S
C616   C631    1.410   .     A
C617   N721    1.437   .     S
C617   C634    1.410   .     A
C618   C633    1.410   .     A
C618   N724    1.437   .     S
C619   N727    1.435   .     S
C619   C636    1.409   .     A
C620   C635    1.410   .     A
C620   N730    1.435   .     S
N637   O639    1.301   .     A
N637   O638    1.301   .     A
N640   O642    1.301   .     A
N640   O641    1.301   .     A
N643   O645    1.301   .     A
N643   O644    1.301   .     A
N646   O648    1.301   .     A
N646   O647    1.301   .     A
N649   O650    1.301   .     A
N649   O651    1.301   .     A
N652   O653    1.301   .     A
N652   O654    1.301   .     A
N655   O657    1.301   .     A
N655   O656    1.301   .     A
N658   O659    1.301   .     A
N658   O660    1.301   .     A
N661   O662    1.301   .     A
N661   O663    1.301   .     A
N664   O665    1.301   .     A
N664   O666    1.301   .     A
N667   O668    1.301   .     A
N667   O669    1.301   .     A
N670   O671    1.301   .     A
N670   O672    1.301   .     A
N673   O675    1.301   .     A
N673   O674    1.301   .     A
N676   O678    1.301   .     A
N676   O677    1.301   .     A
N679   O680    1.301   .     A
N679   O681    1.301   .     A
N682   O684    1.301   .     A
N682   O683    1.301   .     A
N685   O687    1.301   .     A
N685   O686    1.301   .     A
N688   O689    1.301   .     A
N688   O690    1.301   .     A
N691   O692    1.301   .     A
N691   O693    1.301   .     A
N694   O695    1.301   .     A
N694   O696    1.301   .     A
N697   O698    1.301   .     A
N697   O699    1.301   .     A
N700   O702    1.301   .     A
N700   O701    1.301   .     A
N703   O705    1.301   .     A
N703   O704    1.301   .     A
N706   O708    1.301   .     A
N706   O707    1.301   .     A
N709   O710    1.301   .     A
N709   O711    1.301   .     A
N712   O713    1.301   .     A
N712   O714    1.301   .     A
N715   O716    1.301   .     A
N715   O717    1.301   .     A
N718   O720    1.301   .     A
N718   O719    1.301   .     A
N721   O722    1.301   .     A
N721   O723    1.301   .     A
N724   O725    1.301   .     A
N724   O726    1.301   .     A
N727   O728    1.301   .     A
N727   O729    1.301   .     A
N730   O732    1.301   .     A
N730   O731    1.301   .     A
Zn733  O807    1.937   .     S
Zn733  O776    1.918   .     S
Zn733  O796    1.937   .     S
Zn733  O757    1.936   .     S
Zn734  O775    1.918   .     S
Zn734  O808    1.937   .     S
Zn734  O795    1.937   .     S
Zn734  O514    1.936   1_655 S
Zn735  O770    1.917   .     S
Zn735  O805    1.936   .     S
Zn735  O798    1.937   .     S
Zn735  O271    1.937   1_565 S
Zn736  O760    1.937   .     S
Zn736  O806    1.936   .     S
Zn736  O769    1.917   .     S
Zn736  O797    1.937   .     S
Zn737  O800    1.936   .     S
Zn737  O803    1.937   .     S
Zn737  O772    1.917   .     S
Zn737  O513    1.938   1_655 S
Zn738  O758    1.938   .     S
Zn738  O804    1.937   .     S
Zn738  O799    1.936   .     S
Zn738  O771    1.917   .     S
Zn739  O774    1.918   .     S
Zn739  O794    1.937   .     S
Zn739  O801    1.937   .     S
Zn739  O759    1.936   .     S
Zn740  O793    1.937   .     S
Zn740  O773    1.918   .     S
Zn740  O802    1.937   .     S
Zn740  O272    1.936   1_565 S
Zn741  O768    1.918   .     S
Zn741  O780    1.937   .     S
Zn741  O760    1.936   .     S
Zn742  O759    1.936   .     S
Zn742  O767    1.918   .     S
Zn742  O792    1.937   .     S
Zn743  O762    1.917   .     S
Zn743  O758    1.937   .     S
Zn743  O782    1.937   .     S
Zn744  O761    1.917   .     S
Zn744  O790    1.936   .     S
Zn744  O757    1.937   .     S
Zn745  O764    1.917   .     S
Zn745  O760    1.938   .     S
Zn745  O787    1.937   .     S
Zn746  O763    1.917   .     S
Zn746  O783    1.936   .     S
Zn746  O759    1.938   .     S
Zn747  O785    1.937   .     S
Zn747  O766    1.918   .     S
Zn747  O758    1.936   .     S
Zn748  O777    1.937   .     S
Zn748  O765    1.918   .     S
Zn748  O757    1.936   .     S
C749   C816    1.418   .     S
C749   C506    1.196   1_554 S
C750   C815    1.418   .     S
C750   C505    1.196   1_656 S
C751   C814    1.418   .     S
C751   C264    1.196   1_554 S
C752   C813    1.418   .     S
C752   C263    1.196   1_566 S
C753   C812    1.418   .     S
C753   C754    1.196   .     S
C754   C811    1.418   .     S
C755   C810    1.418   .     S
C755   C756    1.196   .     S
C756   C809    1.418   .     S
O761   C809    1.277   .     A
O762   C810    1.277   .     S
O763   C811    1.277   .     A
O764   C812    1.277   .     S
O765   C809    1.277   .     A
O766   C810    1.277   .     S
O767   C811    1.277   .     A
O768   C812    1.277   .     S
O770   C326    1.277   1_565 S
O772   C572    1.277   1_655 S
O773   C813    1.277   .     A
O774   C814    1.277   .     A
O775   C815    1.277   .     A
O776   C816    1.277   .     A
O777   C817    1.274   .     A
O778   C818    1.274   .     A
O778   Zn503   1.937   1_655 S
O779   C819    1.275   .     A
O779   Zn254   1.937   1_565 S
O780   C820    1.274   .     A
O781   C821    1.275   .     A
O781   Zn500   1.937   1_655 S
O782   C822    1.275   .     A
O783   C823    1.276   .     A
O784   C824    1.276   .     A
O784   Zn257   1.936   1_565 S
O785   C825    1.275   .     A
O786   C826    1.275   .     A
O786   Zn504   1.937   1_655 S
O787   C827    1.276   .     A
O788   C828    1.276   .     A
O788   Zn258   1.937   1_565 S
O789   C829    1.277   .     A
O789   Zn499   1.936   1_655 S
O790   C830    1.276   .     A
O791   C831    1.275   .     A
O791   Zn253   1.937   1_565 S
O792   C832    1.275   .     A
O793   C831    1.274   .     A
O794   C832    1.274   .     A
O795   C829    1.273   .     A
O796   C830    1.275   .     A
O797   C827    1.275   .     A
O798   C828    1.275   .     A
O799   C825    1.276   .     A
O800   C826    1.276   .     A
O801   C823    1.275   .     A
O802   C824    1.275   .     A
O803   C821    1.276   .     A
O804   C822    1.276   .     A
O805   C819    1.276   .     A
O806   C820    1.276   .     A
O807   C817    1.275   .     A
O808   C818    1.275   .     A
C813   O281    1.277   1_565 S
C815   O527    1.277   1_655 S
C817   C871    1.457   .     S
C818   C872    1.457   .     S
C819   C865    1.458   .     S
C820   C866    1.457   .     S
C821   C867    1.458   .     S
C822   C868    1.458   .     S
C823   C869    1.458   .     S
C824   C870    1.458   .     S
C825   C879    1.457   .     S
C826   C880    1.458   .     S
C827   C873    1.458   .     S
C828   C874    1.458   .     S
C829   C875    1.458   .     S
C830   C876    1.458   .     S
C831   C877    1.457   .     S
C832   C878    1.457   .     S
C833   C844    1.399   .     A
C833   C876    1.409   .     A
C833   N881    1.435   .     S
C834   C843    1.400   .     A
C834   C875    1.409   .     A
C834   N884    1.433   .     S
C835   C874    1.409   .     A
C835   C842    1.399   .     A
C835   N887    1.435   .     S
C836   C841    1.399   .     A
C836   C873    1.409   .     A
C836   N890    1.434   .     S
C837   C848    1.399   .     A
C837   C880    1.410   .     A
C837   N893    1.437   .     S
C838   N896    1.437   .     S
C838   C879    1.410   .     A
C838   C847    1.399   .     A
C839   N899    1.435   .     S
C839   C878    1.409   .     A
C839   C846    1.399   .     A
C840   N902    1.435   .     S
C840   C845    1.399   .     A
C840   C877    1.409   .     A
C841   N905    1.437   .     S
C841   C868    1.410   .     A
C842   C867    1.410   .     A
C842   N908    1.437   .     S
C843   N911    1.439   .     S
C843   C866    1.410   .     A
C844   C865    1.410   .     A
C844   N914    1.437   .     S
C845   C872    1.410   .     A
C845   N917    1.437   .     S
C846   N920    1.437   .     S
C846   C871    1.410   .     A
C847   C870    1.409   .     A
C847   N923    1.435   .     S
C848   C869    1.409   .     A
C848   N926    1.435   .     S
C849   N929    1.434   .     S
C849   C866    1.410   .     A
C849   C860    1.400   .     A
C850   N932    1.435   .     S
C850   C865    1.409   .     A
C850   C859    1.399   .     A
C851   N935    1.435   .     S
C851   C868    1.409   .     A
C851   C858    1.399   .     A
C852   C857    1.399   .     A
C852   C867    1.409   .     A
C852   N938    1.435   .     S
C853   C870    1.410   .     A
C853   N941    1.437   .     S
C853   C864    1.399   .     A
C854   N944    1.437   .     S
C854   C863    1.399   .     A
C854   C869    1.410   .     A
C855   N947    1.435   .     S
C855   C872    1.409   .     A
C855   C862    1.399   .     A
C856   C861    1.399   .     A
C856   N950    1.435   .     S
C856   C871    1.409   .     A
C857   N953    1.437   .     S
C857   C874    1.410   .     A
C858   C873    1.410   .     A
C858   N956    1.437   .     S
C859   N959    1.437   .     S
C859   C876    1.410   .     A
C860   N962    1.438   .     S
C860   C875    1.410   .     A
C861   N965    1.437   .     S
C861   C878    1.410   .     A
C862   C877    1.410   .     A
C862   N968    1.437   .     S
C863   N971    1.435   .     S
C863   C880    1.409   .     A
C864   C879    1.410   .     A
C864   N974    1.435   .     S
N881   O883    1.301   .     A
N881   O882    1.301   .     A
N884   O886    1.301   .     A
N884   O885    1.301   .     A
N887   O889    1.301   .     A
N887   O888    1.301   .     A
N890   O892    1.301   .     A
N890   O891    1.301   .     A
N893   O894    1.301   .     A
N893   O895    1.301   .     A
N896   O897    1.301   .     A
N896   O898    1.301   .     A
N899   O901    1.301   .     A
N899   O900    1.301   .     A
N902   O903    1.301   .     A
N902   O904    1.301   .     A
N905   O906    1.301   .     A
N905   O907    1.301   .     A
N908   O909    1.301   .     A
N908   O910    1.301   .     A
N911   O912    1.301   .     A
N911   O913    1.301   .     A
N914   O915    1.301   .     A
N914   O916    1.301   .     A
N917   O919    1.301   .     A
N917   O918    1.301   .     A
N920   O922    1.301   .     A
N920   O921    1.301   .     A
N923   O924    1.301   .     A
N923   O925    1.301   .     A
N926   O928    1.301   .     A
N926   O927    1.301   .     A
N929   O931    1.301   .     A
N929   O930    1.301   .     A
N932   O933    1.301   .     A
N932   O934    1.301   .     A
N935   O936    1.301   .     A
N935   O937    1.301   .     A
N938   O939    1.301   .     A
N938   O940    1.301   .     A
N941   O942    1.301   .     A
N941   O943    1.301   .     A
N944   O946    1.301   .     A
N944   O945    1.301   .     A
N947   O949    1.301   .     A
N947   O948    1.301   .     A
N950   O952    1.301   .     A
N950   O951    1.301   .     A
N953   O954    1.301   .     A
N953   O955    1.301   .     A
N956   O957    1.301   .     A
N956   O958    1.301   .     A
N959   O960    1.301   .     A
N959   O961    1.301   .     A
N962   O964    1.301   .     A
N962   O963    1.301   .     A
N965   O966    1.301   .     A
N965   O967    1.301   .     A
N968   O969    1.301   .     A
N968   O970    1.301   .     A
N971   O972    1.301   .     A
N971   O973    1.301   .     A
N974   O976    1.301   .     A
N974   O975    1.301   .     A
