data_str_m1_o1_o17_pcu_sym.64
_audit_creation_date              2020-01-03
_audit_creation_method            'Materials Studio'
_symmetry_space_group_name_H-M    'P1'
_symmetry_Int_Tables_number       1
_symmetry_cell_setting            triclinic
loop_
_symmetry_equiv_pos_as_xyz
  x,y,z
_cell_length_a                    36.5208
_cell_length_b                    36.5480
_cell_length_c                    34.4192
_cell_angle_alpha                 90.0184
_cell_angle_beta                  90.0061
_cell_angle_gamma                 89.9491
loop_
_atom_site_label
_atom_site_type_symbol
_atom_site_fract_x
_atom_site_fract_y
_atom_site_fract_z
_atom_site_U_iso_or_equiv
_atom_site_adp_type
_atom_site_occupancy
C1     C     0.01377   0.28061   0.41786   0.00000  Uiso   1.00
C2     C     0.23570   0.46975   0.08210   0.00000  Uiso   1.00
C3     C     0.21908   0.48703   0.54107   0.00000  Uiso   1.00
C4     C     0.01373   0.28083   0.45882   0.00000  Uiso   1.00
C5     C     0.48591   0.21970   0.54106   0.00000  Uiso   1.00
C6     C     0.21916   0.48727   0.45888   0.00000  Uiso   1.00
C7     C     0.28143   0.01247   0.54121   0.00000  Uiso   1.00
C8     C     0.23534   0.46983   0.95901   0.00000  Uiso   1.00
C9     C     0.26456   0.03040   0.04120   0.00000  Uiso   1.00
C10    C     0.03088   0.26348   0.95890   0.00000  Uiso   1.00
C11    C     0.46924   0.23640   0.04103   0.00000  Uiso   1.00
C12    C     0.26454   0.03042   0.95905   0.00000  Uiso   1.00
C13    C     0.46954   0.23607   0.91789   0.00000  Uiso   1.00
C14    C     0.23562   0.46965   0.04115   0.00000  Uiso   1.00
C15    C     0.46927   0.23635   0.95886   0.00000  Uiso   1.00
C16    C     0.03094   0.26333   0.04108   0.00000  Uiso   1.00
C17    C     0.09824   0.34791   0.24999   0.00000  Uiso   1.00
C18    C     0.40185   0.15198   0.75038   0.00000  Uiso   1.00
C19    C     0.15188   0.09802   0.25022   0.00000  Uiso   1.00
C20    C     0.34811   0.40197   0.74974   0.00000  Uiso   1.00
C21    C     0.40199   0.15185   0.25037   0.00000  Uiso   1.00
C22    C     0.09795   0.34819   0.74982   0.00000  Uiso   1.00
C23    C     0.34798   0.40186   0.24990   0.00000  Uiso   1.00
C24    C     0.03078   0.26333   0.08206   0.00000  Uiso   1.00
C25    C     0.15195   0.09810   0.75022   0.00000  Uiso   1.00
C26    C     0.09802   0.15190   0.74969   0.00000  Uiso   1.00
C27    C     0.40201   0.34816   0.25017   0.00000  Uiso   1.00
C28    C     0.15204   0.40181   0.75013   0.00000  Uiso   1.00
C29    C     0.34803   0.09810   0.24981   0.00000  Uiso   1.00
C30    C     0.40190   0.34803   0.75025   0.00000  Uiso   1.00
C31    C     0.09812   0.15198   0.24978   0.00000  Uiso   1.00
C32    C     0.34810   0.09803   0.74981   0.00000  Uiso   1.00
C33    C     0.15174   0.40211   0.25006   0.00000  Uiso   1.00
C34    C     0.49987   0.25017   0.47934   0.00000  Uiso   1.00
C35    C     0.23445   0.47040   0.91807   0.00000  Uiso   1.00
C36    C     0.00003   0.25014   0.52048   0.00000  Uiso   1.00
C37    C     0.25028   0.49987   0.47949   0.00000  Uiso   1.00
C38    C     0.25028   0.49974   0.52065   0.00000  Uiso   1.00
C39    C     0.24998   0.00010   0.97952   0.00000  Uiso   1.00
C40    C     0.25002   0.00007   0.02068   0.00000  Uiso   1.00
C41    C     0.00005   0.24996   0.97938   0.00000  Uiso   1.00
C42    C     0.00007   0.24993   0.02055   0.00000  Uiso   1.00
C43    C     0.17930   0.37936   0.18708   0.00000  Uiso   1.00
C44    C     0.38974   0.05414   0.71244   0.00000  Uiso   1.00
C45    C     0.13770   0.19394   0.20781   0.00000  Uiso   1.00
C46    C     0.26474   0.03014   0.08216   0.00000  Uiso   1.00
C47    C     0.36136   0.30512   0.79006   0.00000  Uiso   1.00
C48    C     0.30515   0.13863   0.20987   0.00000  Uiso   1.00
C49    C     0.11837   0.44045   0.70079   0.00000  Uiso   1.00
C50    C     0.37097   0.31220   0.19676   0.00000  Uiso   1.00
C51    C     0.13740   0.19615   0.78777   0.00000  Uiso   1.00
C52    C     0.19510   0.13879   0.78962   0.00000  Uiso   1.00
C53    C     0.31268   0.36909   0.19608   0.00000  Uiso   1.00
C54    C     0.05989   0.38384   0.70034   0.00000  Uiso   1.00
C55    C     0.36274   0.19598   0.21198   0.00000  Uiso   1.00
C56    C     0.30379   0.36265   0.78785   0.00000  Uiso   1.00
C57    C     0.03068   0.26360   0.91793   0.00000  Uiso   1.00
C58    C     0.19514   0.13625   0.20964   0.00000  Uiso   1.00
C59    C     0.44729   0.11148   0.71518   0.00000  Uiso   1.00
C60    C     0.12314   0.32060   0.18696   0.00000  Uiso   1.00
C61    C     0.36023   0.19586   0.78776   0.00000  Uiso   1.00
C62    C     0.07064   0.37068   0.31294   0.00000  Uiso   1.00
C63    C     0.38864   0.44488   0.70993   0.00000  Uiso   1.00
C64    C     0.11231   0.05607   0.29221   0.00000  Uiso   1.00
C65    C     0.13162   0.30956   0.79915   0.00000  Uiso   1.00
C66    C     0.44483   0.11138   0.29042   0.00000  Uiso   1.00
C67    C     0.11256   0.05387   0.71213   0.00000  Uiso   1.00
C68    C     0.46943   0.23630   0.08200   0.00000  Uiso   1.00
C69    C     0.37906   0.43790   0.30326   0.00000  Uiso   1.00
C70    C     0.43732   0.38094   0.30399   0.00000  Uiso   1.00
C71    C     0.05501   0.11140   0.70991   0.00000  Uiso   1.00
C72    C     0.38716   0.05405   0.28849   0.00000  Uiso   1.00
C73    C     0.19019   0.36605   0.79946   0.00000  Uiso   1.00
C74    C     0.05486   0.11376   0.29038   0.00000  Uiso   1.00
C75    C     0.44620   0.38734   0.71212   0.00000  Uiso   1.00
C76    C     0.12686   0.42941   0.31311   0.00000  Uiso   1.00
C77    C     0.30285   0.13830   0.78561   0.00000  Uiso   1.00
C78    C     0.49930   0.33826   0.38714   0.00000  Uiso   1.00
C79    C     0.49989   0.25008   0.39801   0.00000  Uiso   1.00
C80    C     0.49810   0.16219   0.61338   0.00000  Uiso   1.00
C81    C     0.16212   0.00296   0.38692   0.00000  Uiso   1.00
C82    C     0.33804   0.49946   0.61518   0.00000  Uiso   1.00
C83    C     0.49764   0.16204   0.38595   0.00000  Uiso   1.00
C84    C     0.07000   0.31016   0.60606   0.00000  Uiso   1.00
C85    C     0.31444   0.06587   0.39317   0.00000  Uiso   1.00
C86    C     0.16183   0.00255   0.61290   0.00000  Uiso   1.00
C87    C     0.31919   0.05952   0.89141   0.00000  Uiso   1.00
C88    C     0.24963   0.41172   0.11226   0.00000  Uiso   1.00
C89    C     0.41202   0.24831   0.88535   0.00000  Uiso   1.00
C90    C     0.00026   0.25036   0.60192   0.00000  Uiso   1.00
C91    C     0.08842   0.24829   0.11265   0.00000  Uiso   1.00
C92    C     0.17986   0.44185   0.89196   0.00000  Uiso   1.00
C93    C     0.25339   0.08802   0.11413   0.00000  Uiso   1.00
C94    C     0.08835   0.24880   0.88731   0.00000  Uiso   1.00
C95    C     0.41166   0.25057   0.11263   0.00000  Uiso   1.00
C96    C     0.25045   0.00021   0.39805   0.00000  Uiso   1.00
C97    C     0.48570   0.22010   0.58204   0.00000  Uiso   1.00
C98    C     0.25008   0.49995   0.60199   0.00000  Uiso   1.00
C99    C     0.24997   0.00011   0.89813   0.00000  Uiso   1.00
C100   C     0.25007  -0.00000   0.10201   0.00000  Uiso   1.00
C101   C     0.00005   0.24997   0.89802   0.00000  Uiso   1.00
C102   C     0.00006   0.24991   0.10194   0.00000  Uiso   1.00
C103   C     0.47283   0.18932   0.47988   0.00000  Uiso   1.00
C104   C     0.02683   0.31109   0.52002   0.00000  Uiso   1.00
C105   C     0.31245   0.02381   0.48002   0.00000  Uiso   1.00
C106   C     0.18826   0.47539   0.52004   0.00000  Uiso   1.00
C107   C     0.02655   0.31123   0.47975   0.00000  Uiso   1.00
C108   C     0.21944   0.48726   0.41789   0.00000  Uiso   1.00
C109   C     0.47284   0.18939   0.52017   0.00000  Uiso   1.00
C110   C     0.18830   0.47551   0.47974   0.00000  Uiso   1.00
C111   C     0.31244   0.02382   0.52032   0.00000  Uiso   1.00
C112   C     0.22178   0.43977   0.97992   0.00000  Uiso   1.00
C113   C     0.27804   0.06049   0.02029   0.00000  Uiso   1.00
C114   C     0.06143   0.27589   0.97986   0.00000  Uiso   1.00
C115   C     0.43872   0.22392   0.02006   0.00000  Uiso   1.00
C116   C     0.27812   0.06045   0.98001   0.00000  Uiso   1.00
C117   C     0.22204   0.43963   0.02019   0.00000  Uiso   1.00
C118   C     0.43873   0.22390   0.97978   0.00000  Uiso   1.00
C119   C     0.28103   0.01295   0.58217   0.00000  Uiso   1.00
C120   C     0.06147   0.27579   0.02014   0.00000  Uiso   1.00
C121   C     0.25026   0.00004   0.35578   0.00000  Uiso   1.00
C122   C     0.24996  -0.00000   0.64424   0.00000  Uiso   1.00
C123   C     0.49998   0.25002   0.35577   0.00000  Uiso   1.00
C124   C     0.00005   0.25023   0.64420   0.00000  Uiso   1.00
C125   C     0.00006   0.25000   0.85576   0.00000  Uiso   1.00
C126   C     0.00001   0.24998   0.14422   0.00000  Uiso   1.00
C127   C     0.25000   0.00006   0.85582   0.00000  Uiso   1.00
C128   C     0.25001   0.49997   0.14424   0.00000  Uiso   1.00
C129   C     0.18006   0.06999   0.24998   0.00000  Uiso   1.00
C130   C     0.48560   0.21979   0.41792   0.00000  Uiso   1.00
C131   C     0.31993   0.43001   0.75001   0.00000  Uiso   1.00
C132   C     0.43004   0.18001   0.25007   0.00000  Uiso   1.00
C133   C     0.06995   0.31998   0.74997   0.00000  Uiso   1.00
C134   C     0.31999   0.43008   0.25005   0.00000  Uiso   1.00
C135   C     0.17999   0.06992   0.74998   0.00000  Uiso   1.00
C136   C     0.06994   0.31999   0.25009   0.00000  Uiso   1.00
C137   C     0.43002   0.18004   0.75005   0.00000  Uiso   1.00
C138   C     0.18004   0.43003   0.75001   0.00000  Uiso   1.00
C139   C     0.31999   0.06994   0.25001   0.00000  Uiso   1.00
C140   C     0.43007   0.32000   0.74998   0.00000  Uiso   1.00
C141   C     0.01541   0.28028   0.58174   0.00000  Uiso   1.00
C142   C     0.06994   0.18001   0.25002   0.00000  Uiso   1.00
C143   C     0.31993   0.07000   0.75003   0.00000  Uiso   1.00
C144   C     0.18004   0.43002   0.24994   0.00000  Uiso   1.00
C145   C     0.06998   0.18006   0.74998   0.00000  Uiso   1.00
C146   C     0.43002   0.31994   0.24998   0.00000  Uiso   1.00
C147   C     0.15083   0.37659   0.21923   0.00000  Uiso   1.00
C148   C     0.38237   0.09056   0.73237   0.00000  Uiso   1.00
C149   C     0.13137   0.15846   0.22989   0.00000  Uiso   1.00
C150   C     0.36814   0.34106   0.76897   0.00000  Uiso   1.00
C151   C     0.34109   0.13180   0.23100   0.00000  Uiso   1.00
C152   C     0.28124   0.01355   0.41823   0.00000  Uiso   1.00
C153   C     0.12103   0.40642   0.72608   0.00000  Uiso   1.00
C154   C     0.37236   0.34494   0.22404   0.00000  Uiso   1.00
C155   C     0.13169   0.15914   0.76839   0.00000  Uiso   1.00
C156   C     0.15900   0.13188   0.76883   0.00000  Uiso   1.00
C157   C     0.34492   0.37209   0.22387   0.00000  Uiso   1.00
C158   C     0.09356   0.37933   0.72591   0.00000  Uiso   1.00
C159   C     0.36837   0.15905   0.23153   0.00000  Uiso   1.00
C160   C     0.34083   0.36833   0.76844   0.00000  Uiso   1.00
C161   C     0.15865   0.13114   0.23032   0.00000  Uiso   1.00
C162   C     0.40967   0.11780   0.73304   0.00000  Uiso   1.00
C163   C     0.21921   0.48693   0.58204   0.00000  Uiso   1.00
C164   C     0.12389   0.34899   0.21924   0.00000  Uiso   1.00
C165   C     0.36760   0.15943   0.76787   0.00000  Uiso   1.00
C166   C     0.09914   0.37344   0.28081   0.00000  Uiso   1.00
C167   C     0.38186   0.40895   0.73102   0.00000  Uiso   1.00
C168   C     0.11864   0.09155   0.27012   0.00000  Uiso   1.00
C169   C     0.12898   0.34357   0.77385   0.00000  Uiso   1.00
C170   C     0.40890   0.11818   0.26926   0.00000  Uiso   1.00
C171   C     0.11829   0.09088   0.73149   0.00000  Uiso   1.00
C172   C     0.37761   0.40509   0.27606   0.00000  Uiso   1.00
C173   C     0.40506   0.37793   0.27623   0.00000  Uiso   1.00
C174   C     0.26535   0.02991   0.91809   0.00000  Uiso   1.00
C175   C     0.09100   0.11818   0.73096   0.00000  Uiso   1.00
C176   C     0.38159   0.09093   0.26879   0.00000  Uiso   1.00
C177   C     0.15647   0.37064   0.77400   0.00000  Uiso   1.00
C178   C     0.09136   0.11886   0.26969   0.00000  Uiso   1.00
C179   C     0.40917   0.38167   0.73155   0.00000  Uiso   1.00
C180   C     0.12609   0.40102   0.28081   0.00000  Uiso   1.00
C181   C     0.34034   0.13214   0.76736   0.00000  Uiso   1.00
C182   C     0.48578   0.21960   0.45888   0.00000  Uiso   1.00
C183   C     0.01436   0.28057   0.54089   0.00000  Uiso   1.00
C184   C     0.28141   0.01267   0.45910   0.00000  Uiso   1.00
H185   H     0.46282   0.16498   0.46557   0.00000  Uiso   1.00
H186   H     0.28851   0.08460   0.03465   0.00000  Uiso   1.00
H187   H     0.20520   0.34090   0.79083   0.00000  Uiso   1.00
H188   H     0.05113   0.13576   0.31228   0.00000  Uiso   1.00
H189   H     0.03222   0.11527   0.26892   0.00000  Uiso   1.00
H190   H     0.05185   0.08743   0.30582   0.00000  Uiso   1.00
H191   H     0.45054   0.36595   0.68965   0.00000  Uiso   1.00
H192   H     0.44960   0.41410   0.69762   0.00000  Uiso   1.00
H193   H     0.46831   0.38527   0.73415   0.00000  Uiso   1.00
H194   H     0.14846   0.45040   0.30984   0.00000  Uiso   1.00
H195   H     0.10045   0.44446   0.31381   0.00000  Uiso   1.00
H196   H     0.13160   0.41572   0.34146   0.00000  Uiso   1.00
H197   H     0.08592   0.28553   0.96554   0.00000  Uiso   1.00
H198   H     0.28135   0.13601   0.76295   0.00000  Uiso   1.00
H199   H     0.29784   0.11731   0.80831   0.00000  Uiso   1.00
H200   H     0.29916   0.16530   0.79955   0.00000  Uiso   1.00
H201   H     0.05142   0.32188   0.40519   0.00000  Uiso   1.00
H202   H     0.48890   0.35100   0.41429   0.00000  Uiso   1.00
H203   H     0.47612   0.32563   0.37111   0.00000  Uiso   1.00
H204   H     0.01130   0.35996   0.36859   0.00000  Uiso   1.00
H205   H     0.44676   0.17996   0.59433   0.00000  Uiso   1.00
H206   H     0.00890   0.14934   0.58646   0.00000  Uiso   1.00
H207   H     0.48501   0.14069   0.63137   0.00000  Uiso   1.00
H208   H     0.41423   0.21427   0.03438   0.00000  Uiso   1.00
H209   H     0.02114   0.17413   0.63020   0.00000  Uiso   1.00
H210   H     0.17726   0.45060   0.40526   0.00000  Uiso   1.00
H211   H     0.14978   0.01398   0.41401   0.00000  Uiso   1.00
H212   H     0.13999   0.49128   0.36866   0.00000  Uiso   1.00
H213   H     0.17524   0.02559   0.37052   0.00000  Uiso   1.00
H214   H     0.32249   0.05069   0.59394   0.00000  Uiso   1.00
H215   H     0.35168   0.48803   0.58901   0.00000  Uiso   1.00
H216   H     0.32485   0.47695   0.63172   0.00000  Uiso   1.00
H217   H     0.35910   0.01223   0.63408   0.00000  Uiso   1.00
H218   H     0.44654   0.17965   0.40584   0.00000  Uiso   1.00
H219   H     0.28898   0.08440   0.96568   0.00000  Uiso   1.00
H220   H     0.00803   0.14829   0.41254   0.00000  Uiso   1.00
H221   H     0.02097   0.17428   0.36984   0.00000  Uiso   1.00
H222   H     0.48453   0.14128   0.36698   0.00000  Uiso   1.00
H223   H     0.01743   0.31732   0.62796   0.00000  Uiso   1.00
H224   H     0.07938   0.33601   0.61972   0.00000  Uiso   1.00
H225   H     0.08324   0.30773   0.57714   0.00000  Uiso   1.00
H226   H     0.07886   0.28688   0.62452   0.00000  Uiso   1.00
H227   H     0.31847   0.01270   0.37220   0.00000  Uiso   1.00
H228   H     0.34091   0.07344   0.37951   0.00000  Uiso   1.00
H229   H     0.31265   0.07968   0.42185   0.00000  Uiso   1.00
H230   H     0.21155   0.41549   0.03448   0.00000  Uiso   1.00
H231   H     0.29181   0.07578   0.37438   0.00000  Uiso   1.00
H232   H     0.17700   0.45024   0.59440   0.00000  Uiso   1.00
H233   H     0.14935   0.01344   0.58583   0.00000  Uiso   1.00
H234   H     0.17498   0.02528   0.62914   0.00000  Uiso   1.00
H235   H     0.13981   0.49090   0.63132   0.00000  Uiso   1.00
H236   H     0.26945   0.08507   0.90383   0.00000  Uiso   1.00
H237   H     0.33313   0.06445   0.91959   0.00000  Uiso   1.00
H238   H     0.32723   0.08141   0.87075   0.00000  Uiso   1.00
H239   H     0.32855   0.03287   0.87952   0.00000  Uiso   1.00
H240   H     0.19755   0.42897   0.09496   0.00000  Uiso   1.00
H241   H     0.41423   0.21431   0.96542   0.00000  Uiso   1.00
H242   H     0.25960   0.39904   0.08489   0.00000  Uiso   1.00
H243   H     0.23750   0.39004   0.13074   0.00000  Uiso   1.00
H244   H     0.27312   0.42392   0.12815   0.00000  Uiso   1.00
H245   H     0.42906   0.19730   0.90594   0.00000  Uiso   1.00
H246   H     0.39824   0.25917   0.91172   0.00000  Uiso   1.00
H247   H     0.39120   0.23516   0.86646   0.00000  Uiso   1.00
H248   H     0.42453   0.27130   0.86895   0.00000  Uiso   1.00
H249   H     0.07245   0.30054   0.09474   0.00000  Uiso   1.00
H250   H     0.10071   0.23752   0.08542   0.00000  Uiso   1.00
H251   H     0.07571   0.22544   0.12908   0.00000  Uiso   1.00
H252   H     0.08599   0.28535   0.03448   0.00000  Uiso   1.00
H253   H     0.11054   0.26019   0.13076   0.00000  Uiso   1.00
H254   H     0.22933   0.41537   0.90347   0.00000  Uiso   1.00
H255   H     0.16620   0.43685   0.92027   0.00000  Uiso   1.00
H256   H     0.17115   0.42035   0.87116   0.00000  Uiso   1.00
H257   H     0.17080   0.46878   0.88053   0.00000  Uiso   1.00
H258   H     0.30432   0.06974   0.09440   0.00000  Uiso   1.00
H259   H     0.24324   0.10190   0.08751   0.00000  Uiso   1.00
H260   H     0.26672   0.10862   0.13312   0.00000  Uiso   1.00
H261   H     0.22988   0.07608   0.13018   0.00000  Uiso   1.00
H262   H     0.07223   0.30097   0.90537   0.00000  Uiso   1.00
H263   H     0.17656   0.40611   0.17210   0.00000  Uiso   1.00
H264   H     0.10083   0.23817   0.91450   0.00000  Uiso   1.00
H265   H     0.11032   0.26074   0.86902   0.00000  Uiso   1.00
H266   H     0.07565   0.22583   0.87104   0.00000  Uiso   1.00
H267   H     0.42820   0.19858   0.09450   0.00000  Uiso   1.00
H268   H     0.39861   0.26064   0.08550   0.00000  Uiso   1.00
H269   H     0.42436   0.27393   0.12821   0.00000  Uiso   1.00
H270   H     0.39018   0.23860   0.13153   0.00000  Uiso   1.00
H271   H     0.20718   0.37727   0.19980   0.00000  Uiso   1.00
H272   H     0.17727   0.35803   0.16441   0.00000  Uiso   1.00
H273   H     0.03677   0.33534   0.53467   0.00000  Uiso   1.00
H274   H     0.36615   0.03515   0.71234   0.00000  Uiso   1.00
H275   H     0.39679   0.05890   0.68148   0.00000  Uiso   1.00
H276   H     0.41266   0.03983   0.72724   0.00000  Uiso   1.00
H277   H     0.11434   0.21326   0.20862   0.00000  Uiso   1.00
H278   H     0.16162   0.20856   0.22027   0.00000  Uiso   1.00
H279   H     0.14274   0.18785   0.17666   0.00000  Uiso   1.00
H280   H     0.38493   0.28607   0.78982   0.00000  Uiso   1.00
H281   H     0.35522   0.31060   0.82112   0.00000  Uiso   1.00
H282   H     0.33802   0.29054   0.77639   0.00000  Uiso   1.00
H283   H     0.28599   0.11518   0.21026   0.00000  Uiso   1.00
H284   H     0.33718   0.03254   0.46540   0.00000  Uiso   1.00
H285   H     0.29064   0.16210   0.22340   0.00000  Uiso   1.00
H286   H     0.31068   0.14459   0.17880   0.00000  Uiso   1.00
H287   H     0.11875   0.46520   0.71945   0.00000  Uiso   1.00
H288   H     0.14217   0.44136   0.68075   0.00000  Uiso   1.00
H289   H     0.09342   0.44214   0.68270   0.00000  Uiso   1.00
H290   H     0.39563   0.31228   0.17795   0.00000  Uiso   1.00
H291   H     0.37057   0.28652   0.21396   0.00000  Uiso   1.00
H292   H     0.34691   0.31147   0.17729   0.00000  Uiso   1.00
H293   H     0.11584   0.20069   0.81001   0.00000  Uiso   1.00
H294   H     0.16406   0.19946   0.80256   0.00000  Uiso   1.00
H295   H     0.16351   0.46637   0.53432   0.00000  Uiso   1.00
H296   H     0.13564   0.21808   0.76558   0.00000  Uiso   1.00
H297   H     0.21433   0.11537   0.78908   0.00000  Uiso   1.00
H298   H     0.20943   0.16225   0.77591   0.00000  Uiso   1.00
H299   H     0.18983   0.14480   0.82074   0.00000  Uiso   1.00
H300   H     0.29260   0.39170   0.19843   0.00000  Uiso   1.00
H301   H     0.32273   0.36914   0.16563   0.00000  Uiso   1.00
H302   H     0.29738   0.34343   0.20190   0.00000  Uiso   1.00
H303   H     0.04014   0.36094   0.70217   0.00000  Uiso   1.00
H304   H     0.04483   0.40899   0.70889   0.00000  Uiso   1.00
H305   H     0.06832   0.38581   0.66943   0.00000  Uiso   1.00
H306   H     0.03633   0.33565   0.46543   0.00000  Uiso   1.00
H307   H     0.38447   0.20032   0.18993   0.00000  Uiso   1.00
H308   H     0.33619   0.19926   0.19697   0.00000  Uiso   1.00
H309   H     0.36438   0.21806   0.23406   0.00000  Uiso   1.00
H310   H     0.29945   0.38403   0.81033   0.00000  Uiso   1.00
H311   H     0.28169   0.36473   0.76582   0.00000  Uiso   1.00
H312   H     0.30039   0.33589   0.80235   0.00000  Uiso   1.00
H313   H     0.19888   0.11425   0.18773   0.00000  Uiso   1.00
H314   H     0.19815   0.16258   0.19419   0.00000  Uiso   1.00
H315   H     0.21778   0.13474   0.23110   0.00000  Uiso   1.00
H316   H     0.46857   0.11347   0.73811   0.00000  Uiso   1.00
H317   H     0.46277   0.16512   0.53455   0.00000  Uiso   1.00
H318   H     0.45093   0.08460   0.70100   0.00000  Uiso   1.00
H319   H     0.45262   0.13265   0.69279   0.00000  Uiso   1.00
H320   H     0.10157   0.29958   0.19026   0.00000  Uiso   1.00
H321   H     0.11837   0.33427   0.15860   0.00000  Uiso   1.00
H322   H     0.14957   0.30558   0.18626   0.00000  Uiso   1.00
H323   H     0.38377   0.21491   0.78771   0.00000  Uiso   1.00
H324   H     0.33722   0.21009   0.77304   0.00000  Uiso   1.00
H325   H     0.35331   0.19114   0.81877   0.00000  Uiso   1.00
H326   H     0.07336   0.34393   0.32793   0.00000  Uiso   1.00
H327   H     0.07267   0.39201   0.33560   0.00000  Uiso   1.00
H328   H     0.16358   0.46656   0.46534   0.00000  Uiso   1.00
H329   H     0.04277   0.37278   0.30020   0.00000  Uiso   1.00
H330   H     0.36507   0.46394   0.71018   0.00000  Uiso   1.00
H331   H     0.41199   0.45946   0.72359   0.00000  Uiso   1.00
H332   H     0.39476   0.43941   0.67887   0.00000  Uiso   1.00
H333   H     0.13567   0.03675   0.29140   0.00000  Uiso   1.00
H334   H     0.10727   0.06217   0.32336   0.00000  Uiso   1.00
H335   H     0.08839   0.04145   0.27976   0.00000  Uiso   1.00
H336   H     0.13125   0.28480   0.78049   0.00000  Uiso   1.00
H337   H     0.15656   0.30786   0.81726   0.00000  Uiso   1.00
H338   H     0.10781   0.30868   0.81916   0.00000  Uiso   1.00
H339   H     0.33725   0.03253   0.53470   0.00000  Uiso   1.00
H340   H     0.46400   0.13482   0.28995   0.00000  Uiso   1.00
H341   H     0.43929   0.10551   0.32151   0.00000  Uiso   1.00
H342   H     0.45933   0.08786   0.27697   0.00000  Uiso   1.00
H343   H     0.13412   0.04932   0.68989   0.00000  Uiso   1.00
H344   H     0.11433   0.03194   0.73433   0.00000  Uiso   1.00
H345   H     0.08589   0.05056   0.69736   0.00000  Uiso   1.00
H346   H     0.35433   0.43816   0.32203   0.00000  Uiso   1.00
H347   H     0.40307   0.43855   0.32279   0.00000  Uiso   1.00
H348   H     0.37970   0.46351   0.28592   0.00000  Uiso   1.00
H349   H     0.45740   0.35833   0.30160   0.00000  Uiso   1.00
H350   H     0.21085   0.41587   0.96555   0.00000  Uiso   1.00
H351   H     0.45260   0.40661   0.29815   0.00000  Uiso   1.00
H352   H     0.42729   0.38088   0.33444   0.00000  Uiso   1.00
H353   H     0.03586   0.13489   0.71030   0.00000  Uiso   1.00
H354   H     0.06044   0.10537   0.67882   0.00000  Uiso   1.00
H355   H     0.04050   0.08799   0.72352   0.00000  Uiso   1.00
H356   H     0.36550   0.04976   0.31066   0.00000  Uiso   1.00
H357   H     0.38544   0.03191   0.26649   0.00000  Uiso   1.00
H358   H     0.41376   0.05078   0.30341   0.00000  Uiso   1.00
H359   H     0.20997   0.38893   0.79760   0.00000  Uiso   1.00
H360   H     0.18185   0.36405   0.83039   0.00000  Uiso   1.00
N361   N     0.02688   0.31105   0.39596   0.00000  Uiso   1.00
N362   N     0.22235   0.43938   0.10396   0.00000  Uiso   1.00
N363   N     0.43961   0.22171   0.89600   0.00000  Uiso   1.00
N364   N     0.06141   0.27610   0.10395   0.00000  Uiso   1.00
N365   N     0.21929   0.44085   0.89625   0.00000  Uiso   1.00
N366   N     0.27954   0.05982   0.10407   0.00000  Uiso   1.00
N367   N     0.06126   0.27651   0.89607   0.00000  Uiso   1.00
N368   N     0.43897   0.22311   0.10383   0.00000  Uiso   1.00
N369   N     0.47146   0.19014   0.60393   0.00000  Uiso   1.00
N370   N     0.18870   0.47482   0.39595   0.00000  Uiso   1.00
N371   N     0.31123   0.02669   0.60410   0.00000  Uiso   1.00
N372   N     0.47114   0.18990   0.39607   0.00000  Uiso   1.00
N373   N     0.03050   0.31071   0.60234   0.00000  Uiso   1.00
N374   N     0.31261   0.02651   0.39758   0.00000  Uiso   1.00
N375   N     0.18842   0.47444   0.60385   0.00000  Uiso   1.00
N376   N     0.27981   0.05981   0.89628   0.00000  Uiso   1.00
O377   O     0.25000   0.00000   0.25000   0.00000  Uiso   1.00
O378   O     0.25000   0.46964   0.66245   0.00000  Uiso   1.00
O379   O     0.46963   0.25000   0.33755   0.00000  Uiso   1.00
O380   O     0.03036   0.25000   0.66245   0.00000  Uiso   1.00
O381   O     0.00000   0.21964   0.83755   0.00000  Uiso   1.00
O382   O    -0.00000   0.28037   0.16245   0.00000  Uiso   1.00
O383   O     0.28036   0.00000   0.83755   0.00000  Uiso   1.00
O384   O     0.21963   0.00000   0.16245   0.00000  Uiso   1.00
O385   O     0.00000   0.28037   0.83755   0.00000  Uiso   1.00
O386   O    -0.00000   0.21964   0.16245   0.00000  Uiso   1.00
O387   O     0.21963   0.00000   0.83755   0.00000  Uiso   1.00
O388   O     0.25000   0.00000   0.75000   0.00000  Uiso   1.00
O389   O     0.28036   0.00000   0.16245   0.00000  Uiso   1.00
O390   O     0.20724   0.07308   0.27302   0.00000  Uiso   1.00
O391   O     0.29275   0.42693   0.72698   0.00000  Uiso   1.00
O392   O     0.42692   0.20725   0.27302   0.00000  Uiso   1.00
O393   O     0.07307   0.29276   0.72698   0.00000  Uiso   1.00
O394   O     0.29275   0.42693   0.27302   0.00000  Uiso   1.00
O395   O     0.20724   0.07308   0.72698   0.00000  Uiso   1.00
O396   O     0.07307   0.29276   0.27302   0.00000  Uiso   1.00
O397   O     0.42692   0.20725   0.72698   0.00000  Uiso   1.00
O398   O     0.20724   0.42693   0.72698   0.00000  Uiso   1.00
O399   O     0.00000   0.25000   0.25000   0.00000  Uiso   1.00
O400   O     0.29275   0.07308   0.27302   0.00000  Uiso   1.00
O401   O     0.42692   0.29276   0.72698   0.00000  Uiso   1.00
O402   O     0.07307   0.20725   0.27302   0.00000  Uiso   1.00
O403   O     0.29275   0.07308   0.72698   0.00000  Uiso   1.00
O404   O     0.20724   0.42693   0.27302   0.00000  Uiso   1.00
O405   O     0.07307   0.20725   0.72698   0.00000  Uiso   1.00
O406   O     0.42692   0.29276   0.27302   0.00000  Uiso   1.00
O407   O     0.45724   0.32308   0.77302   0.00000  Uiso   1.00
O408   O     0.04275   0.17693   0.22698   0.00000  Uiso   1.00
O409   O     0.17692   0.45725   0.77302   0.00000  Uiso   1.00
O410   O     0.00000   0.25000   0.75000   0.00000  Uiso   1.00
O411   O     0.32307   0.04276   0.22698   0.00000  Uiso   1.00
O412   O     0.04275   0.17693   0.77302   0.00000  Uiso   1.00
O413   O     0.45724   0.32308   0.22698   0.00000  Uiso   1.00
O414   O     0.32307   0.04276   0.77302   0.00000  Uiso   1.00
O415   O     0.17692   0.45725   0.22698   0.00000  Uiso   1.00
O416   O     0.45724   0.17693   0.22698   0.00000  Uiso   1.00
O417   O     0.04275   0.32308   0.77302   0.00000  Uiso   1.00
O418   O     0.17692   0.04276   0.22698   0.00000  Uiso   1.00
O419   O     0.32307   0.45725   0.77302   0.00000  Uiso   1.00
O420   O     0.04275   0.32308   0.22698   0.00000  Uiso   1.00
O421   O     0.25000   0.46964   0.33755   0.00000  Uiso   1.00
O422   O     0.45724   0.17693   0.77302   0.00000  Uiso   1.00
O423   O     0.32307   0.45725   0.22698   0.00000  Uiso   1.00
O424   O     0.17692   0.04276   0.77302   0.00000  Uiso   1.00
O425   O     0.25000   0.03037   0.66245   0.00000  Uiso   1.00
O426   O     0.03036   0.25000   0.33755   0.00000  Uiso   1.00
O427   O     0.46963   0.25000   0.66245   0.00000  Uiso   1.00
O428   O     0.25000   0.03037   0.33755   0.00000  Uiso   1.00
Zn429  Zn    0.20659   0.00000   0.21735   0.00000  Uiso   1.00
Zn430  Zn    0.04340   0.25000   0.28265   0.00000  Uiso   1.00
Zn431  Zn    0.25000   0.45660   0.71735   0.00000  Uiso   1.00
Zn432  Zn    0.25000   0.04341   0.28265   0.00000  Uiso   1.00
Zn433  Zn    0.04340   0.25000   0.71735   0.00000  Uiso   1.00
Zn434  Zn    0.45659   0.25000   0.28265   0.00000  Uiso   1.00
Zn435  Zn    0.25000   0.04341   0.71735   0.00000  Uiso   1.00
Zn436  Zn    0.25000   0.45660   0.28265   0.00000  Uiso   1.00
Zn437  Zn    0.29340   0.00000   0.78265   0.00000  Uiso   1.00
Zn438  Zn   -0.00000   0.20660   0.21735   0.00000  Uiso   1.00
Zn439  Zn    0.00000   0.29341   0.78265   0.00000  Uiso   1.00
Zn440  Zn    0.29340   0.00000   0.21735   0.00000  Uiso   1.00
Zn441  Zn    0.20659   0.00000   0.78265   0.00000  Uiso   1.00
Zn442  Zn   -0.00000   0.29341   0.21735   0.00000  Uiso   1.00
Zn443  Zn    0.00000   0.20660   0.78265   0.00000  Uiso   1.00
Zn444  Zn    0.45659   0.25000   0.71735   0.00000  Uiso   1.00
C445   C     0.51377   0.28061   0.41786   0.00000  Uiso   1.00
C446   C     0.73570   0.46975   0.08210   0.00000  Uiso   1.00
C447   C     0.71908   0.48703   0.54107   0.00000  Uiso   1.00
C448   C     0.51373   0.28083   0.45882   0.00000  Uiso   1.00
C449   C     0.98591   0.21970   0.54106   0.00000  Uiso   1.00
C450   C     0.71916   0.48727   0.45888   0.00000  Uiso   1.00
C451   C     0.78143   0.01247   0.54121   0.00000  Uiso   1.00
C452   C     0.73534   0.46983   0.95901   0.00000  Uiso   1.00
C453   C     0.76456   0.03040   0.04120   0.00000  Uiso   1.00
C454   C     0.53088   0.26348   0.95890   0.00000  Uiso   1.00
C455   C     0.96924   0.23640   0.04103   0.00000  Uiso   1.00
C456   C     0.76454   0.03042   0.95905   0.00000  Uiso   1.00
C457   C     0.96954   0.23607   0.91789   0.00000  Uiso   1.00
C458   C     0.73562   0.46965   0.04115   0.00000  Uiso   1.00
C459   C     0.96927   0.23635   0.95886   0.00000  Uiso   1.00
C460   C     0.53094   0.26333   0.04108   0.00000  Uiso   1.00
C461   C     0.59824   0.34791   0.24999   0.00000  Uiso   1.00
C462   C     0.90185   0.15198   0.75038   0.00000  Uiso   1.00
C463   C     0.65188   0.09802   0.25022   0.00000  Uiso   1.00
C464   C     0.84811   0.40197   0.74974   0.00000  Uiso   1.00
C465   C     0.90199   0.15185   0.25037   0.00000  Uiso   1.00
C466   C     0.59795   0.34819   0.74982   0.00000  Uiso   1.00
C467   C     0.84798   0.40186   0.24990   0.00000  Uiso   1.00
C468   C     0.53078   0.26333   0.08206   0.00000  Uiso   1.00
C469   C     0.65195   0.09810   0.75022   0.00000  Uiso   1.00
C470   C     0.59802   0.15190   0.74969   0.00000  Uiso   1.00
C471   C     0.90201   0.34816   0.25017   0.00000  Uiso   1.00
C472   C     0.65204   0.40181   0.75013   0.00000  Uiso   1.00
C473   C     0.84803   0.09810   0.24981   0.00000  Uiso   1.00
C474   C     0.90190   0.34803   0.75025   0.00000  Uiso   1.00
C475   C     0.59812   0.15198   0.24978   0.00000  Uiso   1.00
C476   C     0.84810   0.09803   0.74981   0.00000  Uiso   1.00
C477   C     0.65174   0.40211   0.25006   0.00000  Uiso   1.00
C478   C     0.99987   0.25017   0.47934   0.00000  Uiso   1.00
C479   C     0.73445   0.47040   0.91807   0.00000  Uiso   1.00
C480   C     0.50003   0.25014   0.52048   0.00000  Uiso   1.00
C481   C     0.75028   0.49987   0.47949   0.00000  Uiso   1.00
C482   C     0.75028   0.49974   0.52065   0.00000  Uiso   1.00
C483   C     0.74998   0.00010   0.97952   0.00000  Uiso   1.00
C484   C     0.75002   0.00007   0.02068   0.00000  Uiso   1.00
C485   C     0.50005   0.24996   0.97938   0.00000  Uiso   1.00
C486   C     0.50007   0.24993   0.02055   0.00000  Uiso   1.00
C487   C     0.67930   0.37936   0.18708   0.00000  Uiso   1.00
C488   C     0.88974   0.05414   0.71244   0.00000  Uiso   1.00
C489   C     0.63770   0.19394   0.20781   0.00000  Uiso   1.00
C490   C     0.76474   0.03014   0.08216   0.00000  Uiso   1.00
C491   C     0.86136   0.30512   0.79006   0.00000  Uiso   1.00
C492   C     0.80515   0.13863   0.20987   0.00000  Uiso   1.00
C493   C     0.61837   0.44045   0.70079   0.00000  Uiso   1.00
C494   C     0.87097   0.31220   0.19676   0.00000  Uiso   1.00
C495   C     0.63740   0.19615   0.78777   0.00000  Uiso   1.00
C496   C     0.69510   0.13879   0.78962   0.00000  Uiso   1.00
C497   C     0.81268   0.36909   0.19608   0.00000  Uiso   1.00
C498   C     0.55989   0.38384   0.70034   0.00000  Uiso   1.00
C499   C     0.86274   0.19598   0.21198   0.00000  Uiso   1.00
C500   C     0.80379   0.36265   0.78785   0.00000  Uiso   1.00
C501   C     0.53068   0.26360   0.91793   0.00000  Uiso   1.00
C502   C     0.69514   0.13625   0.20964   0.00000  Uiso   1.00
C503   C     0.94729   0.11148   0.71518   0.00000  Uiso   1.00
C504   C     0.62314   0.32060   0.18696   0.00000  Uiso   1.00
C505   C     0.86023   0.19586   0.78776   0.00000  Uiso   1.00
C506   C     0.57064   0.37068   0.31294   0.00000  Uiso   1.00
C507   C     0.88864   0.44488   0.70993   0.00000  Uiso   1.00
C508   C     0.61231   0.05607   0.29221   0.00000  Uiso   1.00
C509   C     0.63162   0.30956   0.79915   0.00000  Uiso   1.00
C510   C     0.94483   0.11138   0.29042   0.00000  Uiso   1.00
C511   C     0.61256   0.05387   0.71213   0.00000  Uiso   1.00
C512   C     0.96943   0.23630   0.08200   0.00000  Uiso   1.00
C513   C     0.87906   0.43790   0.30326   0.00000  Uiso   1.00
C514   C     0.93732   0.38094   0.30399   0.00000  Uiso   1.00
C515   C     0.55501   0.11140   0.70991   0.00000  Uiso   1.00
C516   C     0.88716   0.05405   0.28849   0.00000  Uiso   1.00
C517   C     0.69019   0.36605   0.79946   0.00000  Uiso   1.00
C518   C     0.55486   0.11376   0.29038   0.00000  Uiso   1.00
C519   C     0.94620   0.38734   0.71212   0.00000  Uiso   1.00
C520   C     0.62686   0.42941   0.31311   0.00000  Uiso   1.00
C521   C     0.80285   0.13830   0.78561   0.00000  Uiso   1.00
C522   C     0.99930   0.33826   0.38714   0.00000  Uiso   1.00
C523   C     0.99989   0.25008   0.39801   0.00000  Uiso   1.00
C524   C     0.99810   0.16219   0.61338   0.00000  Uiso   1.00
C525   C     0.66212   0.00296   0.38692   0.00000  Uiso   1.00
C526   C     0.83804   0.49946   0.61518   0.00000  Uiso   1.00
C527   C     0.99764   0.16204   0.38595   0.00000  Uiso   1.00
C528   C     0.57000   0.31016   0.60606   0.00000  Uiso   1.00
C529   C     0.81444   0.06587   0.39317   0.00000  Uiso   1.00
C530   C     0.66183   0.00255   0.61290   0.00000  Uiso   1.00
C531   C     0.81919   0.05952   0.89141   0.00000  Uiso   1.00
C532   C     0.74963   0.41172   0.11226   0.00000  Uiso   1.00
C533   C     0.91202   0.24831   0.88535   0.00000  Uiso   1.00
C534   C     0.50026   0.25036   0.60192   0.00000  Uiso   1.00
C535   C     0.58842   0.24829   0.11265   0.00000  Uiso   1.00
C536   C     0.67986   0.44185   0.89196   0.00000  Uiso   1.00
C537   C     0.75339   0.08802   0.11413   0.00000  Uiso   1.00
C538   C     0.58835   0.24880   0.88731   0.00000  Uiso   1.00
C539   C     0.91166   0.25057   0.11263   0.00000  Uiso   1.00
C540   C     0.75045   0.00021   0.39805   0.00000  Uiso   1.00
C541   C     0.98570   0.22010   0.58204   0.00000  Uiso   1.00
C542   C     0.75008   0.49995   0.60199   0.00000  Uiso   1.00
C543   C     0.74997   0.00011   0.89813   0.00000  Uiso   1.00
C544   C     0.75007  -0.00000   0.10201   0.00000  Uiso   1.00
C545   C     0.50005   0.24997   0.89802   0.00000  Uiso   1.00
C546   C     0.50006   0.24991   0.10194   0.00000  Uiso   1.00
C547   C     0.97283   0.18932   0.47988   0.00000  Uiso   1.00
C548   C     0.52683   0.31109   0.52002   0.00000  Uiso   1.00
C549   C     0.81245   0.02381   0.48002   0.00000  Uiso   1.00
C550   C     0.68826   0.47539   0.52004   0.00000  Uiso   1.00
C551   C     0.52655   0.31123   0.47975   0.00000  Uiso   1.00
C552   C     0.71944   0.48726   0.41789   0.00000  Uiso   1.00
C553   C     0.97284   0.18939   0.52017   0.00000  Uiso   1.00
C554   C     0.68830   0.47551   0.47974   0.00000  Uiso   1.00
C555   C     0.81244   0.02382   0.52032   0.00000  Uiso   1.00
C556   C     0.72178   0.43977   0.97992   0.00000  Uiso   1.00
C557   C     0.77804   0.06049   0.02029   0.00000  Uiso   1.00
C558   C     0.56143   0.27589   0.97986   0.00000  Uiso   1.00
C559   C     0.93872   0.22392   0.02006   0.00000  Uiso   1.00
C560   C     0.77812   0.06045   0.98001   0.00000  Uiso   1.00
C561   C     0.72204   0.43963   0.02019   0.00000  Uiso   1.00
C562   C     0.93873   0.22390   0.97978   0.00000  Uiso   1.00
C563   C     0.78103   0.01295   0.58217   0.00000  Uiso   1.00
C564   C     0.56147   0.27579   0.02014   0.00000  Uiso   1.00
C565   C     0.75026   0.00004   0.35578   0.00000  Uiso   1.00
C566   C     0.74996  -0.00000   0.64424   0.00000  Uiso   1.00
C567   C     0.99998   0.25002   0.35577   0.00000  Uiso   1.00
C568   C     0.50005   0.25023   0.64420   0.00000  Uiso   1.00
C569   C     0.50006   0.25000   0.85576   0.00000  Uiso   1.00
C570   C     0.50001   0.24998   0.14422   0.00000  Uiso   1.00
C571   C     0.75000   0.00006   0.85582   0.00000  Uiso   1.00
C572   C     0.75001   0.49997   0.14424   0.00000  Uiso   1.00
C573   C     0.68006   0.06999   0.24998   0.00000  Uiso   1.00
C574   C     0.98560   0.21979   0.41792   0.00000  Uiso   1.00
C575   C     0.81993   0.43001   0.75001   0.00000  Uiso   1.00
C576   C     0.93004   0.18001   0.25007   0.00000  Uiso   1.00
C577   C     0.56995   0.31998   0.74997   0.00000  Uiso   1.00
C578   C     0.81999   0.43008   0.25005   0.00000  Uiso   1.00
C579   C     0.67999   0.06992   0.74998   0.00000  Uiso   1.00
C580   C     0.56994   0.31999   0.25009   0.00000  Uiso   1.00
C581   C     0.93002   0.18004   0.75005   0.00000  Uiso   1.00
C582   C     0.68004   0.43003   0.75001   0.00000  Uiso   1.00
C583   C     0.81999   0.06994   0.25001   0.00000  Uiso   1.00
C584   C     0.93007   0.32000   0.74998   0.00000  Uiso   1.00
C585   C     0.51541   0.28028   0.58174   0.00000  Uiso   1.00
C586   C     0.56994   0.18001   0.25002   0.00000  Uiso   1.00
C587   C     0.81993   0.07000   0.75003   0.00000  Uiso   1.00
C588   C     0.68004   0.43002   0.24994   0.00000  Uiso   1.00
C589   C     0.56998   0.18006   0.74998   0.00000  Uiso   1.00
C590   C     0.93002   0.31994   0.24998   0.00000  Uiso   1.00
C591   C     0.65083   0.37659   0.21923   0.00000  Uiso   1.00
C592   C     0.88237   0.09056   0.73237   0.00000  Uiso   1.00
C593   C     0.63137   0.15846   0.22989   0.00000  Uiso   1.00
C594   C     0.86814   0.34106   0.76897   0.00000  Uiso   1.00
C595   C     0.84109   0.13180   0.23100   0.00000  Uiso   1.00
C596   C     0.78124   0.01355   0.41823   0.00000  Uiso   1.00
C597   C     0.62103   0.40642   0.72608   0.00000  Uiso   1.00
C598   C     0.87236   0.34494   0.22404   0.00000  Uiso   1.00
C599   C     0.63169   0.15914   0.76839   0.00000  Uiso   1.00
C600   C     0.65900   0.13188   0.76883   0.00000  Uiso   1.00
C601   C     0.84492   0.37209   0.22387   0.00000  Uiso   1.00
C602   C     0.59356   0.37933   0.72591   0.00000  Uiso   1.00
C603   C     0.86837   0.15905   0.23153   0.00000  Uiso   1.00
C604   C     0.84083   0.36833   0.76844   0.00000  Uiso   1.00
C605   C     0.65865   0.13114   0.23032   0.00000  Uiso   1.00
C606   C     0.90967   0.11780   0.73304   0.00000  Uiso   1.00
C607   C     0.71921   0.48693   0.58204   0.00000  Uiso   1.00
C608   C     0.62389   0.34899   0.21924   0.00000  Uiso   1.00
C609   C     0.86760   0.15943   0.76787   0.00000  Uiso   1.00
C610   C     0.59914   0.37344   0.28081   0.00000  Uiso   1.00
C611   C     0.88186   0.40895   0.73102   0.00000  Uiso   1.00
C612   C     0.61864   0.09155   0.27012   0.00000  Uiso   1.00
C613   C     0.62898   0.34357   0.77385   0.00000  Uiso   1.00
C614   C     0.90890   0.11818   0.26926   0.00000  Uiso   1.00
C615   C     0.61829   0.09088   0.73149   0.00000  Uiso   1.00
C616   C     0.87761   0.40509   0.27606   0.00000  Uiso   1.00
C617   C     0.90506   0.37793   0.27623   0.00000  Uiso   1.00
C618   C     0.76535   0.02991   0.91809   0.00000  Uiso   1.00
C619   C     0.59100   0.11818   0.73096   0.00000  Uiso   1.00
C620   C     0.88159   0.09093   0.26879   0.00000  Uiso   1.00
C621   C     0.65647   0.37064   0.77400   0.00000  Uiso   1.00
C622   C     0.59136   0.11886   0.26969   0.00000  Uiso   1.00
C623   C     0.90917   0.38167   0.73155   0.00000  Uiso   1.00
C624   C     0.62609   0.40102   0.28081   0.00000  Uiso   1.00
C625   C     0.84034   0.13214   0.76736   0.00000  Uiso   1.00
C626   C     0.98578   0.21960   0.45888   0.00000  Uiso   1.00
C627   C     0.51436   0.28057   0.54089   0.00000  Uiso   1.00
C628   C     0.78141   0.01267   0.45910   0.00000  Uiso   1.00
H629   H     0.96282   0.16498   0.46557   0.00000  Uiso   1.00
H630   H     0.78851   0.08460   0.03465   0.00000  Uiso   1.00
H631   H     0.70520   0.34090   0.79083   0.00000  Uiso   1.00
H632   H     0.55113   0.13576   0.31228   0.00000  Uiso   1.00
H633   H     0.53222   0.11527   0.26892   0.00000  Uiso   1.00
H634   H     0.55185   0.08743   0.30582   0.00000  Uiso   1.00
H635   H     0.95054   0.36595   0.68965   0.00000  Uiso   1.00
H636   H     0.94960   0.41410   0.69762   0.00000  Uiso   1.00
H637   H     0.96831   0.38527   0.73415   0.00000  Uiso   1.00
H638   H     0.64846   0.45040   0.30984   0.00000  Uiso   1.00
H639   H     0.60045   0.44446   0.31381   0.00000  Uiso   1.00
H640   H     0.63160   0.41572   0.34146   0.00000  Uiso   1.00
H641   H     0.58592   0.28553   0.96554   0.00000  Uiso   1.00
H642   H     0.78135   0.13601   0.76295   0.00000  Uiso   1.00
H643   H     0.79784   0.11731   0.80831   0.00000  Uiso   1.00
H644   H     0.79916   0.16530   0.79955   0.00000  Uiso   1.00
H645   H     0.55142   0.32188   0.40519   0.00000  Uiso   1.00
H646   H     0.98890   0.35100   0.41429   0.00000  Uiso   1.00
H647   H     0.97612   0.32563   0.37111   0.00000  Uiso   1.00
H648   H     0.51130   0.35996   0.36859   0.00000  Uiso   1.00
H649   H     0.94676   0.17996   0.59433   0.00000  Uiso   1.00
H650   H     0.50890   0.14934   0.58646   0.00000  Uiso   1.00
H651   H     0.98501   0.14069   0.63137   0.00000  Uiso   1.00
H652   H     0.91423   0.21427   0.03438   0.00000  Uiso   1.00
H653   H     0.52114   0.17413   0.63020   0.00000  Uiso   1.00
H654   H     0.67726   0.45060   0.40526   0.00000  Uiso   1.00
H655   H     0.64978   0.01398   0.41401   0.00000  Uiso   1.00
H656   H     0.63999   0.49128   0.36866   0.00000  Uiso   1.00
H657   H     0.67524   0.02559   0.37052   0.00000  Uiso   1.00
H658   H     0.82249   0.05069   0.59394   0.00000  Uiso   1.00
H659   H     0.85168   0.48803   0.58901   0.00000  Uiso   1.00
H660   H     0.82485   0.47695   0.63172   0.00000  Uiso   1.00
H661   H     0.85910   0.01223   0.63408   0.00000  Uiso   1.00
H662   H     0.94654   0.17965   0.40584   0.00000  Uiso   1.00
H663   H     0.78898   0.08440   0.96568   0.00000  Uiso   1.00
H664   H     0.50803   0.14829   0.41254   0.00000  Uiso   1.00
H665   H     0.52097   0.17428   0.36984   0.00000  Uiso   1.00
H666   H     0.98453   0.14128   0.36698   0.00000  Uiso   1.00
H667   H     0.51743   0.31732   0.62796   0.00000  Uiso   1.00
H668   H     0.57938   0.33601   0.61972   0.00000  Uiso   1.00
H669   H     0.58324   0.30773   0.57714   0.00000  Uiso   1.00
H670   H     0.57886   0.28688   0.62452   0.00000  Uiso   1.00
H671   H     0.81847   0.01270   0.37220   0.00000  Uiso   1.00
H672   H     0.84091   0.07344   0.37951   0.00000  Uiso   1.00
H673   H     0.81265   0.07968   0.42185   0.00000  Uiso   1.00
H674   H     0.71155   0.41549   0.03448   0.00000  Uiso   1.00
H675   H     0.79181   0.07578   0.37438   0.00000  Uiso   1.00
H676   H     0.67700   0.45024   0.59440   0.00000  Uiso   1.00
H677   H     0.64935   0.01344   0.58583   0.00000  Uiso   1.00
H678   H     0.67498   0.02528   0.62914   0.00000  Uiso   1.00
H679   H     0.63981   0.49090   0.63132   0.00000  Uiso   1.00
H680   H     0.76945   0.08507   0.90383   0.00000  Uiso   1.00
H681   H     0.83313   0.06445   0.91959   0.00000  Uiso   1.00
H682   H     0.82723   0.08141   0.87075   0.00000  Uiso   1.00
H683   H     0.82855   0.03287   0.87952   0.00000  Uiso   1.00
H684   H     0.69755   0.42897   0.09496   0.00000  Uiso   1.00
H685   H     0.91423   0.21431   0.96542   0.00000  Uiso   1.00
H686   H     0.75960   0.39904   0.08489   0.00000  Uiso   1.00
H687   H     0.73750   0.39004   0.13074   0.00000  Uiso   1.00
H688   H     0.77312   0.42392   0.12815   0.00000  Uiso   1.00
H689   H     0.92906   0.19730   0.90594   0.00000  Uiso   1.00
H690   H     0.89824   0.25917   0.91172   0.00000  Uiso   1.00
H691   H     0.89120   0.23516   0.86646   0.00000  Uiso   1.00
H692   H     0.92453   0.27130   0.86895   0.00000  Uiso   1.00
H693   H     0.57245   0.30054   0.09474   0.00000  Uiso   1.00
H694   H     0.60071   0.23752   0.08542   0.00000  Uiso   1.00
H695   H     0.57571   0.22544   0.12908   0.00000  Uiso   1.00
H696   H     0.58599   0.28535   0.03448   0.00000  Uiso   1.00
H697   H     0.61054   0.26019   0.13076   0.00000  Uiso   1.00
H698   H     0.72933   0.41537   0.90347   0.00000  Uiso   1.00
H699   H     0.66620   0.43685   0.92027   0.00000  Uiso   1.00
H700   H     0.67115   0.42035   0.87116   0.00000  Uiso   1.00
H701   H     0.67080   0.46878   0.88053   0.00000  Uiso   1.00
H702   H     0.80432   0.06974   0.09440   0.00000  Uiso   1.00
H703   H     0.74324   0.10190   0.08751   0.00000  Uiso   1.00
H704   H     0.76672   0.10862   0.13312   0.00000  Uiso   1.00
H705   H     0.72988   0.07608   0.13018   0.00000  Uiso   1.00
H706   H     0.57223   0.30097   0.90537   0.00000  Uiso   1.00
H707   H     0.67656   0.40611   0.17210   0.00000  Uiso   1.00
H708   H     0.60083   0.23817   0.91450   0.00000  Uiso   1.00
H709   H     0.61032   0.26074   0.86902   0.00000  Uiso   1.00
H710   H     0.57565   0.22583   0.87104   0.00000  Uiso   1.00
H711   H     0.92820   0.19858   0.09450   0.00000  Uiso   1.00
H712   H     0.89861   0.26064   0.08550   0.00000  Uiso   1.00
H713   H     0.92436   0.27393   0.12821   0.00000  Uiso   1.00
H714   H     0.89018   0.23860   0.13153   0.00000  Uiso   1.00
H715   H     0.70718   0.37727   0.19980   0.00000  Uiso   1.00
H716   H     0.67727   0.35803   0.16441   0.00000  Uiso   1.00
H717   H     0.53677   0.33534   0.53467   0.00000  Uiso   1.00
H718   H     0.86615   0.03515   0.71234   0.00000  Uiso   1.00
H719   H     0.89679   0.05890   0.68148   0.00000  Uiso   1.00
H720   H     0.91266   0.03983   0.72724   0.00000  Uiso   1.00
H721   H     0.61434   0.21326   0.20862   0.00000  Uiso   1.00
H722   H     0.66162   0.20856   0.22027   0.00000  Uiso   1.00
H723   H     0.64274   0.18785   0.17666   0.00000  Uiso   1.00
H724   H     0.88493   0.28607   0.78982   0.00000  Uiso   1.00
H725   H     0.85522   0.31060   0.82112   0.00000  Uiso   1.00
H726   H     0.83802   0.29054   0.77639   0.00000  Uiso   1.00
H727   H     0.78599   0.11518   0.21026   0.00000  Uiso   1.00
H728   H     0.83718   0.03254   0.46540   0.00000  Uiso   1.00
H729   H     0.79064   0.16210   0.22340   0.00000  Uiso   1.00
H730   H     0.81068   0.14459   0.17880   0.00000  Uiso   1.00
H731   H     0.61875   0.46520   0.71945   0.00000  Uiso   1.00
H732   H     0.64217   0.44136   0.68075   0.00000  Uiso   1.00
H733   H     0.59342   0.44214   0.68270   0.00000  Uiso   1.00
H734   H     0.89563   0.31228   0.17795   0.00000  Uiso   1.00
H735   H     0.87057   0.28652   0.21396   0.00000  Uiso   1.00
H736   H     0.84691   0.31147   0.17729   0.00000  Uiso   1.00
H737   H     0.61584   0.20069   0.81001   0.00000  Uiso   1.00
H738   H     0.66406   0.19946   0.80256   0.00000  Uiso   1.00
H739   H     0.66351   0.46637   0.53432   0.00000  Uiso   1.00
H740   H     0.63564   0.21808   0.76558   0.00000  Uiso   1.00
H741   H     0.71433   0.11537   0.78908   0.00000  Uiso   1.00
H742   H     0.70943   0.16225   0.77591   0.00000  Uiso   1.00
H743   H     0.68983   0.14480   0.82074   0.00000  Uiso   1.00
H744   H     0.79260   0.39170   0.19843   0.00000  Uiso   1.00
H745   H     0.82273   0.36914   0.16563   0.00000  Uiso   1.00
H746   H     0.79738   0.34343   0.20190   0.00000  Uiso   1.00
H747   H     0.54014   0.36094   0.70217   0.00000  Uiso   1.00
H748   H     0.54483   0.40899   0.70889   0.00000  Uiso   1.00
H749   H     0.56832   0.38581   0.66943   0.00000  Uiso   1.00
H750   H     0.53633   0.33565   0.46543   0.00000  Uiso   1.00
H751   H     0.88447   0.20032   0.18993   0.00000  Uiso   1.00
H752   H     0.83619   0.19926   0.19697   0.00000  Uiso   1.00
H753   H     0.86438   0.21806   0.23406   0.00000  Uiso   1.00
H754   H     0.79945   0.38403   0.81033   0.00000  Uiso   1.00
H755   H     0.78169   0.36473   0.76582   0.00000  Uiso   1.00
H756   H     0.80039   0.33589   0.80235   0.00000  Uiso   1.00
H757   H     0.69888   0.11425   0.18773   0.00000  Uiso   1.00
H758   H     0.69815   0.16258   0.19419   0.00000  Uiso   1.00
H759   H     0.71778   0.13474   0.23110   0.00000  Uiso   1.00
H760   H     0.96857   0.11347   0.73811   0.00000  Uiso   1.00
H761   H     0.96277   0.16512   0.53455   0.00000  Uiso   1.00
H762   H     0.95093   0.08460   0.70100   0.00000  Uiso   1.00
H763   H     0.95262   0.13265   0.69279   0.00000  Uiso   1.00
H764   H     0.60157   0.29958   0.19026   0.00000  Uiso   1.00
H765   H     0.61837   0.33427   0.15860   0.00000  Uiso   1.00
H766   H     0.64957   0.30558   0.18626   0.00000  Uiso   1.00
H767   H     0.88377   0.21491   0.78771   0.00000  Uiso   1.00
H768   H     0.83722   0.21009   0.77304   0.00000  Uiso   1.00
H769   H     0.85331   0.19114   0.81877   0.00000  Uiso   1.00
H770   H     0.57336   0.34393   0.32793   0.00000  Uiso   1.00
H771   H     0.57267   0.39201   0.33560   0.00000  Uiso   1.00
H772   H     0.66358   0.46656   0.46534   0.00000  Uiso   1.00
H773   H     0.54277   0.37278   0.30020   0.00000  Uiso   1.00
H774   H     0.86507   0.46394   0.71018   0.00000  Uiso   1.00
H775   H     0.91199   0.45946   0.72359   0.00000  Uiso   1.00
H776   H     0.89476   0.43941   0.67887   0.00000  Uiso   1.00
H777   H     0.63567   0.03675   0.29140   0.00000  Uiso   1.00
H778   H     0.60727   0.06217   0.32336   0.00000  Uiso   1.00
H779   H     0.58839   0.04145   0.27976   0.00000  Uiso   1.00
H780   H     0.63125   0.28480   0.78049   0.00000  Uiso   1.00
H781   H     0.65656   0.30786   0.81726   0.00000  Uiso   1.00
H782   H     0.60781   0.30868   0.81916   0.00000  Uiso   1.00
H783   H     0.83725   0.03253   0.53470   0.00000  Uiso   1.00
H784   H     0.96400   0.13482   0.28995   0.00000  Uiso   1.00
H785   H     0.93929   0.10551   0.32151   0.00000  Uiso   1.00
H786   H     0.95933   0.08786   0.27697   0.00000  Uiso   1.00
H787   H     0.63412   0.04932   0.68989   0.00000  Uiso   1.00
H788   H     0.61433   0.03194   0.73433   0.00000  Uiso   1.00
H789   H     0.58589   0.05056   0.69736   0.00000  Uiso   1.00
H790   H     0.85433   0.43816   0.32203   0.00000  Uiso   1.00
H791   H     0.90307   0.43855   0.32279   0.00000  Uiso   1.00
H792   H     0.87970   0.46351   0.28592   0.00000  Uiso   1.00
H793   H     0.95740   0.35833   0.30160   0.00000  Uiso   1.00
H794   H     0.71085   0.41587   0.96555   0.00000  Uiso   1.00
H795   H     0.95260   0.40661   0.29815   0.00000  Uiso   1.00
H796   H     0.92729   0.38088   0.33444   0.00000  Uiso   1.00
H797   H     0.53586   0.13489   0.71030   0.00000  Uiso   1.00
H798   H     0.56044   0.10537   0.67882   0.00000  Uiso   1.00
H799   H     0.54050   0.08799   0.72352   0.00000  Uiso   1.00
H800   H     0.86550   0.04976   0.31066   0.00000  Uiso   1.00
H801   H     0.88544   0.03191   0.26649   0.00000  Uiso   1.00
H802   H     0.91376   0.05078   0.30341   0.00000  Uiso   1.00
H803   H     0.70997   0.38893   0.79760   0.00000  Uiso   1.00
H804   H     0.68185   0.36405   0.83039   0.00000  Uiso   1.00
N805   N     0.52688   0.31105   0.39596   0.00000  Uiso   1.00
N806   N     0.72235   0.43938   0.10396   0.00000  Uiso   1.00
N807   N     0.93961   0.22171   0.89600   0.00000  Uiso   1.00
N808   N     0.56141   0.27610   0.10395   0.00000  Uiso   1.00
N809   N     0.71929   0.44085   0.89625   0.00000  Uiso   1.00
N810   N     0.77954   0.05982   0.10407   0.00000  Uiso   1.00
N811   N     0.56126   0.27651   0.89607   0.00000  Uiso   1.00
N812   N     0.93897   0.22311   0.10383   0.00000  Uiso   1.00
N813   N     0.97146   0.19014   0.60393   0.00000  Uiso   1.00
N814   N     0.68870   0.47482   0.39595   0.00000  Uiso   1.00
N815   N     0.81123   0.02669   0.60410   0.00000  Uiso   1.00
N816   N     0.97114   0.18990   0.39607   0.00000  Uiso   1.00
N817   N     0.53050   0.31071   0.60234   0.00000  Uiso   1.00
N818   N     0.81261   0.02651   0.39758   0.00000  Uiso   1.00
N819   N     0.68842   0.47444   0.60385   0.00000  Uiso   1.00
N820   N     0.77981   0.05981   0.89628   0.00000  Uiso   1.00
O821   O     0.75000   0.00000   0.25000   0.00000  Uiso   1.00
O822   O     0.75000   0.46964   0.66245   0.00000  Uiso   1.00
O823   O     0.96963   0.25000   0.33755   0.00000  Uiso   1.00
O824   O     0.53036   0.25000   0.66245   0.00000  Uiso   1.00
O825   O     0.50000   0.21964   0.83755   0.00000  Uiso   1.00
O826   O     0.50000   0.28037   0.16245   0.00000  Uiso   1.00
O827   O     0.78036   0.00000   0.83755   0.00000  Uiso   1.00
O828   O     0.71963   0.00000   0.16245   0.00000  Uiso   1.00
O829   O     0.50000   0.28037   0.83755   0.00000  Uiso   1.00
O830   O     0.50000   0.21964   0.16245   0.00000  Uiso   1.00
O831   O     0.71963   0.00000   0.83755   0.00000  Uiso   1.00
O832   O     0.75000   0.00000   0.75000   0.00000  Uiso   1.00
O833   O     0.78036   0.00000   0.16245   0.00000  Uiso   1.00
O834   O     0.70724   0.07308   0.27302   0.00000  Uiso   1.00
O835   O     0.79275   0.42693   0.72698   0.00000  Uiso   1.00
O836   O     0.92692   0.20725   0.27302   0.00000  Uiso   1.00
O837   O     0.57307   0.29276   0.72698   0.00000  Uiso   1.00
O838   O     0.79275   0.42693   0.27302   0.00000  Uiso   1.00
O839   O     0.70724   0.07308   0.72698   0.00000  Uiso   1.00
O840   O     0.57307   0.29276   0.27302   0.00000  Uiso   1.00
O841   O     0.92692   0.20725   0.72698   0.00000  Uiso   1.00
O842   O     0.70724   0.42693   0.72698   0.00000  Uiso   1.00
O843   O     0.50000   0.25000   0.25000   0.00000  Uiso   1.00
O844   O     0.79275   0.07308   0.27302   0.00000  Uiso   1.00
O845   O     0.92692   0.29276   0.72698   0.00000  Uiso   1.00
O846   O     0.57307   0.20725   0.27302   0.00000  Uiso   1.00
O847   O     0.79275   0.07308   0.72698   0.00000  Uiso   1.00
O848   O     0.70724   0.42693   0.27302   0.00000  Uiso   1.00
O849   O     0.57307   0.20725   0.72698   0.00000  Uiso   1.00
O850   O     0.92692   0.29276   0.27302   0.00000  Uiso   1.00
O851   O     0.95724   0.32308   0.77302   0.00000  Uiso   1.00
O852   O     0.54275   0.17693   0.22698   0.00000  Uiso   1.00
O853   O     0.67692   0.45725   0.77302   0.00000  Uiso   1.00
O854   O     0.50000   0.25000   0.75000   0.00000  Uiso   1.00
O855   O     0.82307   0.04276   0.22698   0.00000  Uiso   1.00
O856   O     0.54275   0.17693   0.77302   0.00000  Uiso   1.00
O857   O     0.95724   0.32308   0.22698   0.00000  Uiso   1.00
O858   O     0.82307   0.04276   0.77302   0.00000  Uiso   1.00
O859   O     0.67692   0.45725   0.22698   0.00000  Uiso   1.00
O860   O     0.95724   0.17693   0.22698   0.00000  Uiso   1.00
O861   O     0.54275   0.32308   0.77302   0.00000  Uiso   1.00
O862   O     0.67692   0.04276   0.22698   0.00000  Uiso   1.00
O863   O     0.82307   0.45725   0.77302   0.00000  Uiso   1.00
O864   O     0.54275   0.32308   0.22698   0.00000  Uiso   1.00
O865   O     0.75000   0.46964   0.33755   0.00000  Uiso   1.00
O866   O     0.95724   0.17693   0.77302   0.00000  Uiso   1.00
O867   O     0.82307   0.45725   0.22698   0.00000  Uiso   1.00
O868   O     0.67692   0.04276   0.77302   0.00000  Uiso   1.00
O869   O     0.75000   0.03037   0.66245   0.00000  Uiso   1.00
O870   O     0.53036   0.25000   0.33755   0.00000  Uiso   1.00
O871   O     0.96963   0.25000   0.66245   0.00000  Uiso   1.00
O872   O     0.75000   0.03037   0.33755   0.00000  Uiso   1.00
Zn873  Zn    0.70659   0.00000   0.21735   0.00000  Uiso   1.00
Zn874  Zn    0.54340   0.25000   0.28265   0.00000  Uiso   1.00
Zn875  Zn    0.75000   0.45660   0.71735   0.00000  Uiso   1.00
Zn876  Zn    0.75000   0.04341   0.28265   0.00000  Uiso   1.00
Zn877  Zn    0.54340   0.25000   0.71735   0.00000  Uiso   1.00
Zn878  Zn    0.95659   0.25000   0.28265   0.00000  Uiso   1.00
Zn879  Zn    0.75000   0.04341   0.71735   0.00000  Uiso   1.00
Zn880  Zn    0.75000   0.45660   0.28265   0.00000  Uiso   1.00
Zn881  Zn    0.79340   0.00000   0.78265   0.00000  Uiso   1.00
Zn882  Zn    0.50000   0.20660   0.21735   0.00000  Uiso   1.00
Zn883  Zn    0.50000   0.29341   0.78265   0.00000  Uiso   1.00
Zn884  Zn    0.79340   0.00000   0.21735   0.00000  Uiso   1.00
Zn885  Zn    0.70659   0.00000   0.78265   0.00000  Uiso   1.00
Zn886  Zn    0.50000   0.29341   0.21735   0.00000  Uiso   1.00
Zn887  Zn    0.50000   0.20660   0.78265   0.00000  Uiso   1.00
Zn888  Zn    0.95659   0.25000   0.71735   0.00000  Uiso   1.00
C889   C     0.01377   0.78061   0.41786   0.00000  Uiso   1.00
C890   C     0.23570   0.96975   0.08210   0.00000  Uiso   1.00
C891   C     0.21908   0.98703   0.54107   0.00000  Uiso   1.00
C892   C     0.01373   0.78083   0.45882   0.00000  Uiso   1.00
C893   C     0.48591   0.71970   0.54106   0.00000  Uiso   1.00
C894   C     0.21916   0.98727   0.45888   0.00000  Uiso   1.00
C895   C     0.28143   0.51247   0.54121   0.00000  Uiso   1.00
C896   C     0.23534   0.96983   0.95901   0.00000  Uiso   1.00
C897   C     0.26456   0.53040   0.04120   0.00000  Uiso   1.00
C898   C     0.03088   0.76348   0.95890   0.00000  Uiso   1.00
C899   C     0.46924   0.73640   0.04103   0.00000  Uiso   1.00
C900   C     0.26454   0.53042   0.95905   0.00000  Uiso   1.00
C901   C     0.46954   0.73607   0.91789   0.00000  Uiso   1.00
C902   C     0.23562   0.96965   0.04115   0.00000  Uiso   1.00
C903   C     0.46927   0.73635   0.95886   0.00000  Uiso   1.00
C904   C     0.03094   0.76333   0.04108   0.00000  Uiso   1.00
C905   C     0.09824   0.84791   0.24999   0.00000  Uiso   1.00
C906   C     0.40185   0.65198   0.75038   0.00000  Uiso   1.00
C907   C     0.15188   0.59802   0.25022   0.00000  Uiso   1.00
C908   C     0.34811   0.90197   0.74974   0.00000  Uiso   1.00
C909   C     0.40199   0.65185   0.25037   0.00000  Uiso   1.00
C910   C     0.09795   0.84819   0.74982   0.00000  Uiso   1.00
C911   C     0.34798   0.90186   0.24990   0.00000  Uiso   1.00
C912   C     0.03078   0.76333   0.08206   0.00000  Uiso   1.00
C913   C     0.15195   0.59810   0.75022   0.00000  Uiso   1.00
C914   C     0.09802   0.65190   0.74969   0.00000  Uiso   1.00
C915   C     0.40201   0.84816   0.25017   0.00000  Uiso   1.00
C916   C     0.15204   0.90181   0.75013   0.00000  Uiso   1.00
C917   C     0.34803   0.59810   0.24981   0.00000  Uiso   1.00
C918   C     0.40190   0.84803   0.75025   0.00000  Uiso   1.00
C919   C     0.09812   0.65198   0.24978   0.00000  Uiso   1.00
C920   C     0.34810   0.59803   0.74981   0.00000  Uiso   1.00
C921   C     0.15174   0.90211   0.25006   0.00000  Uiso   1.00
C922   C     0.49987   0.75017   0.47934   0.00000  Uiso   1.00
C923   C     0.23445   0.97040   0.91807   0.00000  Uiso   1.00
C924   C     0.00003   0.75014   0.52048   0.00000  Uiso   1.00
C925   C     0.25028   0.99987   0.47949   0.00000  Uiso   1.00
C926   C     0.25028   0.99974   0.52065   0.00000  Uiso   1.00
C927   C     0.24998   0.50010   0.97952   0.00000  Uiso   1.00
C928   C     0.25002   0.50007   0.02068   0.00000  Uiso   1.00
C929   C     0.00005   0.74996   0.97938   0.00000  Uiso   1.00
C930   C     0.00007   0.74993   0.02055   0.00000  Uiso   1.00
C931   C     0.17930   0.87936   0.18708   0.00000  Uiso   1.00
C932   C     0.38974   0.55414   0.71244   0.00000  Uiso   1.00
C933   C     0.13770   0.69394   0.20781   0.00000  Uiso   1.00
C934   C     0.26474   0.53014   0.08216   0.00000  Uiso   1.00
C935   C     0.36136   0.80512   0.79006   0.00000  Uiso   1.00
C936   C     0.30515   0.63863   0.20987   0.00000  Uiso   1.00
C937   C     0.11837   0.94045   0.70079   0.00000  Uiso   1.00
C938   C     0.37097   0.81220   0.19676   0.00000  Uiso   1.00
C939   C     0.13740   0.69615   0.78777   0.00000  Uiso   1.00
C940   C     0.19510   0.63879   0.78962   0.00000  Uiso   1.00
C941   C     0.31268   0.86909   0.19608   0.00000  Uiso   1.00
C942   C     0.05989   0.88384   0.70034   0.00000  Uiso   1.00
C943   C     0.36274   0.69598   0.21198   0.00000  Uiso   1.00
C944   C     0.30379   0.86265   0.78785   0.00000  Uiso   1.00
C945   C     0.03068   0.76360   0.91793   0.00000  Uiso   1.00
C946   C     0.19514   0.63625   0.20964   0.00000  Uiso   1.00
C947   C     0.44729   0.61148   0.71518   0.00000  Uiso   1.00
C948   C     0.12314   0.82060   0.18696   0.00000  Uiso   1.00
C949   C     0.36023   0.69586   0.78776   0.00000  Uiso   1.00
C950   C     0.07064   0.87068   0.31294   0.00000  Uiso   1.00
C951   C     0.38864   0.94488   0.70993   0.00000  Uiso   1.00
C952   C     0.11231   0.55607   0.29221   0.00000  Uiso   1.00
C953   C     0.13162   0.80956   0.79915   0.00000  Uiso   1.00
C954   C     0.44483   0.61138   0.29042   0.00000  Uiso   1.00
C955   C     0.11256   0.55387   0.71213   0.00000  Uiso   1.00
C956   C     0.46943   0.73630   0.08200   0.00000  Uiso   1.00
C957   C     0.37906   0.93790   0.30326   0.00000  Uiso   1.00
C958   C     0.43732   0.88094   0.30399   0.00000  Uiso   1.00
C959   C     0.05501   0.61140   0.70991   0.00000  Uiso   1.00
C960   C     0.38716   0.55405   0.28849   0.00000  Uiso   1.00
C961   C     0.19019   0.86605   0.79946   0.00000  Uiso   1.00
C962   C     0.05486   0.61376   0.29038   0.00000  Uiso   1.00
C963   C     0.44620   0.88734   0.71212   0.00000  Uiso   1.00
C964   C     0.12686   0.92941   0.31311   0.00000  Uiso   1.00
C965   C     0.30285   0.63830   0.78561   0.00000  Uiso   1.00
C966   C     0.49930   0.83826   0.38714   0.00000  Uiso   1.00
C967   C     0.49989   0.75008   0.39801   0.00000  Uiso   1.00
C968   C     0.49810   0.66219   0.61338   0.00000  Uiso   1.00
C969   C     0.16212   0.50296   0.38692   0.00000  Uiso   1.00
C970   C     0.33804   0.99946   0.61518   0.00000  Uiso   1.00
C971   C     0.49764   0.66204   0.38595   0.00000  Uiso   1.00
C972   C     0.07000   0.81016   0.60606   0.00000  Uiso   1.00
C973   C     0.31444   0.56587   0.39317   0.00000  Uiso   1.00
C974   C     0.16183   0.50255   0.61290   0.00000  Uiso   1.00
C975   C     0.31919   0.55952   0.89141   0.00000  Uiso   1.00
C976   C     0.24963   0.91172   0.11226   0.00000  Uiso   1.00
C977   C     0.41202   0.74831   0.88535   0.00000  Uiso   1.00
C978   C     0.00026   0.75036   0.60192   0.00000  Uiso   1.00
C979   C     0.08842   0.74829   0.11265   0.00000  Uiso   1.00
C980   C     0.17986   0.94185   0.89196   0.00000  Uiso   1.00
C981   C     0.25339   0.58802   0.11413   0.00000  Uiso   1.00
C982   C     0.08835   0.74880   0.88731   0.00000  Uiso   1.00
C983   C     0.41166   0.75057   0.11263   0.00000  Uiso   1.00
C984   C     0.25045   0.50021   0.39805   0.00000  Uiso   1.00
C985   C     0.48570   0.72010   0.58204   0.00000  Uiso   1.00
C986   C     0.25008   0.99995   0.60199   0.00000  Uiso   1.00
C987   C     0.24997   0.50011   0.89813   0.00000  Uiso   1.00
C988   C     0.25007   0.50000   0.10201   0.00000  Uiso   1.00
C989   C     0.00005   0.74997   0.89802   0.00000  Uiso   1.00
C990   C     0.00006   0.74991   0.10194   0.00000  Uiso   1.00
C991   C     0.47283   0.68932   0.47988   0.00000  Uiso   1.00
C992   C     0.02683   0.81109   0.52002   0.00000  Uiso   1.00
C993   C     0.31245   0.52381   0.48002   0.00000  Uiso   1.00
C994   C     0.18826   0.97539   0.52004   0.00000  Uiso   1.00
C995   C     0.02655   0.81123   0.47975   0.00000  Uiso   1.00
C996   C     0.21944   0.98726   0.41789   0.00000  Uiso   1.00
C997   C     0.47284   0.68939   0.52017   0.00000  Uiso   1.00
C998   C     0.18830   0.97551   0.47974   0.00000  Uiso   1.00
C999   C     0.31244   0.52382   0.52032   0.00000  Uiso   1.00
C1000  C     0.22178   0.93977   0.97992   0.00000  Uiso   1.00
C1001  C     0.27804   0.56049   0.02029   0.00000  Uiso   1.00
C1002  C     0.06143   0.77589   0.97986   0.00000  Uiso   1.00
C1003  C     0.43872   0.72392   0.02006   0.00000  Uiso   1.00
C1004  C     0.27812   0.56045   0.98001   0.00000  Uiso   1.00
C1005  C     0.22204   0.93963   0.02019   0.00000  Uiso   1.00
C1006  C     0.43873   0.72390   0.97978   0.00000  Uiso   1.00
C1007  C     0.28103   0.51295   0.58217   0.00000  Uiso   1.00
C1008  C     0.06147   0.77579   0.02014   0.00000  Uiso   1.00
C1009  C     0.25026   0.50004   0.35578   0.00000  Uiso   1.00
C1010  C     0.24996   0.50000   0.64424   0.00000  Uiso   1.00
C1011  C     0.49998   0.75002   0.35577   0.00000  Uiso   1.00
C1012  C     0.00005   0.75023   0.64420   0.00000  Uiso   1.00
C1013  C     0.00006   0.75000   0.85576   0.00000  Uiso   1.00
C1014  C     0.00001   0.74998   0.14422   0.00000  Uiso   1.00
C1015  C     0.25000   0.50006   0.85582   0.00000  Uiso   1.00
C1016  C     0.25001   0.99997   0.14424   0.00000  Uiso   1.00
C1017  C     0.18006   0.56999   0.24998   0.00000  Uiso   1.00
C1018  C     0.48560   0.71979   0.41792   0.00000  Uiso   1.00
C1019  C     0.31993   0.93001   0.75001   0.00000  Uiso   1.00
C1020  C     0.43004   0.68001   0.25007   0.00000  Uiso   1.00
C1021  C     0.06995   0.81998   0.74997   0.00000  Uiso   1.00
C1022  C     0.31999   0.93008   0.25005   0.00000  Uiso   1.00
C1023  C     0.17999   0.56992   0.74998   0.00000  Uiso   1.00
C1024  C     0.06994   0.81999   0.25009   0.00000  Uiso   1.00
C1025  C     0.43002   0.68004   0.75005   0.00000  Uiso   1.00
C1026  C     0.18004   0.93003   0.75001   0.00000  Uiso   1.00
C1027  C     0.31999   0.56994   0.25001   0.00000  Uiso   1.00
C1028  C     0.43007   0.82000   0.74998   0.00000  Uiso   1.00
C1029  C     0.01541   0.78028   0.58174   0.00000  Uiso   1.00
C1030  C     0.06994   0.68001   0.25002   0.00000  Uiso   1.00
C1031  C     0.31993   0.57000   0.75003   0.00000  Uiso   1.00
C1032  C     0.18004   0.93002   0.24994   0.00000  Uiso   1.00
C1033  C     0.06998   0.68006   0.74998   0.00000  Uiso   1.00
C1034  C     0.43002   0.81994   0.24998   0.00000  Uiso   1.00
C1035  C     0.15083   0.87659   0.21923   0.00000  Uiso   1.00
C1036  C     0.38237   0.59056   0.73237   0.00000  Uiso   1.00
C1037  C     0.13137   0.65846   0.22989   0.00000  Uiso   1.00
C1038  C     0.36814   0.84106   0.76897   0.00000  Uiso   1.00
C1039  C     0.34109   0.63180   0.23100   0.00000  Uiso   1.00
C1040  C     0.28124   0.51355   0.41823   0.00000  Uiso   1.00
C1041  C     0.12103   0.90642   0.72608   0.00000  Uiso   1.00
C1042  C     0.37236   0.84494   0.22404   0.00000  Uiso   1.00
C1043  C     0.13169   0.65914   0.76839   0.00000  Uiso   1.00
C1044  C     0.15900   0.63188   0.76883   0.00000  Uiso   1.00
C1045  C     0.34492   0.87209   0.22387   0.00000  Uiso   1.00
C1046  C     0.09356   0.87933   0.72591   0.00000  Uiso   1.00
C1047  C     0.36837   0.65905   0.23153   0.00000  Uiso   1.00
C1048  C     0.34083   0.86833   0.76844   0.00000  Uiso   1.00
C1049  C     0.15865   0.63114   0.23032   0.00000  Uiso   1.00
C1050  C     0.40967   0.61780   0.73304   0.00000  Uiso   1.00
C1051  C     0.21921   0.98693   0.58204   0.00000  Uiso   1.00
C1052  C     0.12389   0.84899   0.21924   0.00000  Uiso   1.00
C1053  C     0.36760   0.65943   0.76787   0.00000  Uiso   1.00
C1054  C     0.09914   0.87344   0.28081   0.00000  Uiso   1.00
C1055  C     0.38186   0.90895   0.73102   0.00000  Uiso   1.00
C1056  C     0.11864   0.59155   0.27012   0.00000  Uiso   1.00
C1057  C     0.12898   0.84357   0.77385   0.00000  Uiso   1.00
C1058  C     0.40890   0.61818   0.26926   0.00000  Uiso   1.00
C1059  C     0.11829   0.59088   0.73149   0.00000  Uiso   1.00
C1060  C     0.37761   0.90509   0.27606   0.00000  Uiso   1.00
C1061  C     0.40506   0.87793   0.27623   0.00000  Uiso   1.00
C1062  C     0.26535   0.52991   0.91809   0.00000  Uiso   1.00
C1063  C     0.09100   0.61818   0.73096   0.00000  Uiso   1.00
C1064  C     0.38159   0.59093   0.26879   0.00000  Uiso   1.00
C1065  C     0.15647   0.87064   0.77400   0.00000  Uiso   1.00
C1066  C     0.09136   0.61886   0.26969   0.00000  Uiso   1.00
C1067  C     0.40917   0.88167   0.73155   0.00000  Uiso   1.00
C1068  C     0.12609   0.90102   0.28081   0.00000  Uiso   1.00
C1069  C     0.34034   0.63214   0.76736   0.00000  Uiso   1.00
C1070  C     0.48578   0.71960   0.45888   0.00000  Uiso   1.00
C1071  C     0.01436   0.78057   0.54089   0.00000  Uiso   1.00
C1072  C     0.28141   0.51267   0.45910   0.00000  Uiso   1.00
H1073  H     0.46282   0.66498   0.46557   0.00000  Uiso   1.00
H1074  H     0.28851   0.58460   0.03465   0.00000  Uiso   1.00
H1075  H     0.20520   0.84090   0.79083   0.00000  Uiso   1.00
H1076  H     0.05113   0.63576   0.31228   0.00000  Uiso   1.00
H1077  H     0.03222   0.61527   0.26892   0.00000  Uiso   1.00
H1078  H     0.05185   0.58743   0.30582   0.00000  Uiso   1.00
H1079  H     0.45054   0.86595   0.68965   0.00000  Uiso   1.00
H1080  H     0.44960   0.91410   0.69762   0.00000  Uiso   1.00
H1081  H     0.46831   0.88527   0.73415   0.00000  Uiso   1.00
H1082  H     0.14846   0.95040   0.30984   0.00000  Uiso   1.00
H1083  H     0.10045   0.94446   0.31381   0.00000  Uiso   1.00
H1084  H     0.13160   0.91572   0.34146   0.00000  Uiso   1.00
H1085  H     0.08592   0.78553   0.96554   0.00000  Uiso   1.00
H1086  H     0.28135   0.63601   0.76295   0.00000  Uiso   1.00
H1087  H     0.29784   0.61731   0.80831   0.00000  Uiso   1.00
H1088  H     0.29916   0.66530   0.79955   0.00000  Uiso   1.00
H1089  H     0.05142   0.82188   0.40519   0.00000  Uiso   1.00
H1090  H     0.48890   0.85100   0.41429   0.00000  Uiso   1.00
H1091  H     0.47612   0.82563   0.37111   0.00000  Uiso   1.00
H1092  H     0.01130   0.85996   0.36859   0.00000  Uiso   1.00
H1093  H     0.44676   0.67996   0.59433   0.00000  Uiso   1.00
H1094  H     0.00890   0.64934   0.58646   0.00000  Uiso   1.00
H1095  H     0.48501   0.64069   0.63137   0.00000  Uiso   1.00
H1096  H     0.41423   0.71427   0.03438   0.00000  Uiso   1.00
H1097  H     0.02114   0.67413   0.63020   0.00000  Uiso   1.00
H1098  H     0.17726   0.95060   0.40526   0.00000  Uiso   1.00
H1099  H     0.14978   0.51398   0.41401   0.00000  Uiso   1.00
H1100  H     0.13999   0.99128   0.36866   0.00000  Uiso   1.00
H1101  H     0.17524   0.52559   0.37052   0.00000  Uiso   1.00
H1102  H     0.32249   0.55069   0.59394   0.00000  Uiso   1.00
H1103  H     0.35168   0.98803   0.58901   0.00000  Uiso   1.00
H1104  H     0.32485   0.97695   0.63172   0.00000  Uiso   1.00
H1105  H     0.35910   0.51223   0.63408   0.00000  Uiso   1.00
H1106  H     0.44654   0.67965   0.40584   0.00000  Uiso   1.00
H1107  H     0.28898   0.58440   0.96568   0.00000  Uiso   1.00
H1108  H     0.00803   0.64829   0.41254   0.00000  Uiso   1.00
H1109  H     0.02097   0.67428   0.36984   0.00000  Uiso   1.00
H1110  H     0.48453   0.64128   0.36698   0.00000  Uiso   1.00
H1111  H     0.01743   0.81732   0.62796   0.00000  Uiso   1.00
H1112  H     0.07938   0.83601   0.61972   0.00000  Uiso   1.00
H1113  H     0.08324   0.80773   0.57714   0.00000  Uiso   1.00
H1114  H     0.07886   0.78688   0.62452   0.00000  Uiso   1.00
H1115  H     0.31847   0.51270   0.37220   0.00000  Uiso   1.00
H1116  H     0.34091   0.57344   0.37951   0.00000  Uiso   1.00
H1117  H     0.31265   0.57968   0.42185   0.00000  Uiso   1.00
H1118  H     0.21155   0.91549   0.03448   0.00000  Uiso   1.00
H1119  H     0.29181   0.57578   0.37438   0.00000  Uiso   1.00
H1120  H     0.17700   0.95024   0.59440   0.00000  Uiso   1.00
H1121  H     0.14935   0.51344   0.58583   0.00000  Uiso   1.00
H1122  H     0.17498   0.52528   0.62914   0.00000  Uiso   1.00
H1123  H     0.13981   0.99090   0.63132   0.00000  Uiso   1.00
H1124  H     0.26945   0.58507   0.90383   0.00000  Uiso   1.00
H1125  H     0.33313   0.56445   0.91959   0.00000  Uiso   1.00
H1126  H     0.32723   0.58141   0.87075   0.00000  Uiso   1.00
H1127  H     0.32855   0.53287   0.87952   0.00000  Uiso   1.00
H1128  H     0.19755   0.92897   0.09496   0.00000  Uiso   1.00
H1129  H     0.41423   0.71431   0.96542   0.00000  Uiso   1.00
H1130  H     0.25960   0.89904   0.08489   0.00000  Uiso   1.00
H1131  H     0.23750   0.89004   0.13074   0.00000  Uiso   1.00
H1132  H     0.27312   0.92392   0.12815   0.00000  Uiso   1.00
H1133  H     0.42906   0.69730   0.90594   0.00000  Uiso   1.00
H1134  H     0.39824   0.75917   0.91172   0.00000  Uiso   1.00
H1135  H     0.39120   0.73516   0.86646   0.00000  Uiso   1.00
H1136  H     0.42453   0.77130   0.86895   0.00000  Uiso   1.00
H1137  H     0.07245   0.80054   0.09474   0.00000  Uiso   1.00
H1138  H     0.10071   0.73752   0.08542   0.00000  Uiso   1.00
H1139  H     0.07571   0.72544   0.12908   0.00000  Uiso   1.00
H1140  H     0.08599   0.78535   0.03448   0.00000  Uiso   1.00
H1141  H     0.11054   0.76019   0.13076   0.00000  Uiso   1.00
H1142  H     0.22933   0.91537   0.90347   0.00000  Uiso   1.00
H1143  H     0.16620   0.93685   0.92027   0.00000  Uiso   1.00
H1144  H     0.17115   0.92035   0.87116   0.00000  Uiso   1.00
H1145  H     0.17080   0.96878   0.88053   0.00000  Uiso   1.00
H1146  H     0.30432   0.56974   0.09440   0.00000  Uiso   1.00
H1147  H     0.24324   0.60190   0.08751   0.00000  Uiso   1.00
H1148  H     0.26672   0.60862   0.13312   0.00000  Uiso   1.00
H1149  H     0.22988   0.57608   0.13018   0.00000  Uiso   1.00
H1150  H     0.07223   0.80097   0.90537   0.00000  Uiso   1.00
H1151  H     0.17656   0.90611   0.17210   0.00000  Uiso   1.00
H1152  H     0.10083   0.73817   0.91450   0.00000  Uiso   1.00
H1153  H     0.11032   0.76074   0.86902   0.00000  Uiso   1.00
H1154  H     0.07565   0.72583   0.87104   0.00000  Uiso   1.00
H1155  H     0.42820   0.69858   0.09450   0.00000  Uiso   1.00
H1156  H     0.39861   0.76064   0.08550   0.00000  Uiso   1.00
H1157  H     0.42436   0.77393   0.12821   0.00000  Uiso   1.00
H1158  H     0.39018   0.73860   0.13153   0.00000  Uiso   1.00
H1159  H     0.20718   0.87727   0.19980   0.00000  Uiso   1.00
H1160  H     0.17727   0.85803   0.16441   0.00000  Uiso   1.00
H1161  H     0.03677   0.83534   0.53467   0.00000  Uiso   1.00
H1162  H     0.36615   0.53515   0.71234   0.00000  Uiso   1.00
H1163  H     0.39679   0.55890   0.68148   0.00000  Uiso   1.00
H1164  H     0.41266   0.53983   0.72724   0.00000  Uiso   1.00
H1165  H     0.11434   0.71326   0.20862   0.00000  Uiso   1.00
H1166  H     0.16162   0.70856   0.22027   0.00000  Uiso   1.00
H1167  H     0.14274   0.68785   0.17666   0.00000  Uiso   1.00
H1168  H     0.38493   0.78607   0.78982   0.00000  Uiso   1.00
H1169  H     0.35522   0.81060   0.82112   0.00000  Uiso   1.00
H1170  H     0.33802   0.79054   0.77639   0.00000  Uiso   1.00
H1171  H     0.28599   0.61518   0.21026   0.00000  Uiso   1.00
H1172  H     0.33718   0.53254   0.46540   0.00000  Uiso   1.00
H1173  H     0.29064   0.66210   0.22340   0.00000  Uiso   1.00
H1174  H     0.31068   0.64459   0.17880   0.00000  Uiso   1.00
H1175  H     0.11875   0.96520   0.71945   0.00000  Uiso   1.00
H1176  H     0.14217   0.94136   0.68075   0.00000  Uiso   1.00
H1177  H     0.09342   0.94214   0.68270   0.00000  Uiso   1.00
H1178  H     0.39563   0.81228   0.17795   0.00000  Uiso   1.00
H1179  H     0.37057   0.78652   0.21396   0.00000  Uiso   1.00
H1180  H     0.34691   0.81147   0.17729   0.00000  Uiso   1.00
H1181  H     0.11584   0.70069   0.81001   0.00000  Uiso   1.00
H1182  H     0.16406   0.69946   0.80256   0.00000  Uiso   1.00
H1183  H     0.16351   0.96637   0.53432   0.00000  Uiso   1.00
H1184  H     0.13564   0.71808   0.76558   0.00000  Uiso   1.00
H1185  H     0.21433   0.61537   0.78908   0.00000  Uiso   1.00
H1186  H     0.20943   0.66225   0.77591   0.00000  Uiso   1.00
H1187  H     0.18983   0.64480   0.82074   0.00000  Uiso   1.00
H1188  H     0.29260   0.89170   0.19843   0.00000  Uiso   1.00
H1189  H     0.32273   0.86914   0.16563   0.00000  Uiso   1.00
H1190  H     0.29738   0.84343   0.20190   0.00000  Uiso   1.00
H1191  H     0.04014   0.86094   0.70217   0.00000  Uiso   1.00
H1192  H     0.04483   0.90899   0.70889   0.00000  Uiso   1.00
H1193  H     0.06832   0.88581   0.66943   0.00000  Uiso   1.00
H1194  H     0.03633   0.83565   0.46543   0.00000  Uiso   1.00
H1195  H     0.38447   0.70032   0.18993   0.00000  Uiso   1.00
H1196  H     0.33619   0.69926   0.19697   0.00000  Uiso   1.00
H1197  H     0.36438   0.71806   0.23406   0.00000  Uiso   1.00
H1198  H     0.29945   0.88403   0.81033   0.00000  Uiso   1.00
H1199  H     0.28169   0.86473   0.76582   0.00000  Uiso   1.00
H1200  H     0.30039   0.83589   0.80235   0.00000  Uiso   1.00
H1201  H     0.19888   0.61425   0.18773   0.00000  Uiso   1.00
H1202  H     0.19815   0.66258   0.19419   0.00000  Uiso   1.00
H1203  H     0.21778   0.63474   0.23110   0.00000  Uiso   1.00
H1204  H     0.46857   0.61347   0.73811   0.00000  Uiso   1.00
H1205  H     0.46277   0.66512   0.53455   0.00000  Uiso   1.00
H1206  H     0.45093   0.58460   0.70100   0.00000  Uiso   1.00
H1207  H     0.45262   0.63265   0.69279   0.00000  Uiso   1.00
H1208  H     0.10157   0.79958   0.19026   0.00000  Uiso   1.00
H1209  H     0.11837   0.83427   0.15860   0.00000  Uiso   1.00
H1210  H     0.14957   0.80558   0.18626   0.00000  Uiso   1.00
H1211  H     0.38377   0.71491   0.78771   0.00000  Uiso   1.00
H1212  H     0.33722   0.71009   0.77304   0.00000  Uiso   1.00
H1213  H     0.35331   0.69114   0.81877   0.00000  Uiso   1.00
H1214  H     0.07336   0.84393   0.32793   0.00000  Uiso   1.00
H1215  H     0.07267   0.89201   0.33560   0.00000  Uiso   1.00
H1216  H     0.16358   0.96656   0.46534   0.00000  Uiso   1.00
H1217  H     0.04277   0.87278   0.30020   0.00000  Uiso   1.00
H1218  H     0.36507   0.96394   0.71018   0.00000  Uiso   1.00
H1219  H     0.41199   0.95946   0.72359   0.00000  Uiso   1.00
H1220  H     0.39476   0.93941   0.67887   0.00000  Uiso   1.00
H1221  H     0.13567   0.53675   0.29140   0.00000  Uiso   1.00
H1222  H     0.10727   0.56217   0.32336   0.00000  Uiso   1.00
H1223  H     0.08839   0.54145   0.27976   0.00000  Uiso   1.00
H1224  H     0.13125   0.78480   0.78049   0.00000  Uiso   1.00
H1225  H     0.15656   0.80786   0.81726   0.00000  Uiso   1.00
H1226  H     0.10781   0.80868   0.81916   0.00000  Uiso   1.00
H1227  H     0.33725   0.53253   0.53470   0.00000  Uiso   1.00
H1228  H     0.46400   0.63482   0.28995   0.00000  Uiso   1.00
H1229  H     0.43929   0.60551   0.32151   0.00000  Uiso   1.00
H1230  H     0.45933   0.58786   0.27697   0.00000  Uiso   1.00
H1231  H     0.13412   0.54932   0.68989   0.00000  Uiso   1.00
H1232  H     0.11433   0.53194   0.73433   0.00000  Uiso   1.00
H1233  H     0.08589   0.55056   0.69736   0.00000  Uiso   1.00
H1234  H     0.35433   0.93816   0.32203   0.00000  Uiso   1.00
H1235  H     0.40307   0.93855   0.32279   0.00000  Uiso   1.00
H1236  H     0.37970   0.96351   0.28592   0.00000  Uiso   1.00
H1237  H     0.45740   0.85833   0.30160   0.00000  Uiso   1.00
H1238  H     0.21085   0.91587   0.96555   0.00000  Uiso   1.00
H1239  H     0.45260   0.90661   0.29815   0.00000  Uiso   1.00
H1240  H     0.42729   0.88088   0.33444   0.00000  Uiso   1.00
H1241  H     0.03586   0.63489   0.71030   0.00000  Uiso   1.00
H1242  H     0.06044   0.60537   0.67882   0.00000  Uiso   1.00
H1243  H     0.04050   0.58799   0.72352   0.00000  Uiso   1.00
H1244  H     0.36550   0.54976   0.31066   0.00000  Uiso   1.00
H1245  H     0.38544   0.53191   0.26649   0.00000  Uiso   1.00
H1246  H     0.41376   0.55078   0.30341   0.00000  Uiso   1.00
H1247  H     0.20997   0.88893   0.79760   0.00000  Uiso   1.00
H1248  H     0.18185   0.86405   0.83039   0.00000  Uiso   1.00
N1249  N     0.02688   0.81105   0.39596   0.00000  Uiso   1.00
N1250  N     0.22235   0.93938   0.10396   0.00000  Uiso   1.00
N1251  N     0.43961   0.72171   0.89600   0.00000  Uiso   1.00
N1252  N     0.06141   0.77610   0.10395   0.00000  Uiso   1.00
N1253  N     0.21929   0.94085   0.89625   0.00000  Uiso   1.00
N1254  N     0.27954   0.55982   0.10407   0.00000  Uiso   1.00
N1255  N     0.06126   0.77651   0.89607   0.00000  Uiso   1.00
N1256  N     0.43897   0.72311   0.10383   0.00000  Uiso   1.00
N1257  N     0.47146   0.69014   0.60393   0.00000  Uiso   1.00
N1258  N     0.18870   0.97482   0.39595   0.00000  Uiso   1.00
N1259  N     0.31123   0.52669   0.60410   0.00000  Uiso   1.00
N1260  N     0.47114   0.68990   0.39607   0.00000  Uiso   1.00
N1261  N     0.03050   0.81071   0.60234   0.00000  Uiso   1.00
N1262  N     0.31261   0.52651   0.39758   0.00000  Uiso   1.00
N1263  N     0.18842   0.97444   0.60385   0.00000  Uiso   1.00
N1264  N     0.27981   0.55981   0.89628   0.00000  Uiso   1.00
O1265  O     0.25000   0.50000   0.25000   0.00000  Uiso   1.00
O1266  O     0.25000   0.96964   0.66245   0.00000  Uiso   1.00
O1267  O     0.46963   0.75000   0.33755   0.00000  Uiso   1.00
O1268  O     0.03036   0.75000   0.66245   0.00000  Uiso   1.00
O1269  O     0.00000   0.71964   0.83755   0.00000  Uiso   1.00
O1270  O    -0.00000   0.78037   0.16245   0.00000  Uiso   1.00
O1271  O     0.28036   0.50000   0.83755   0.00000  Uiso   1.00
O1272  O     0.21963   0.50000   0.16245   0.00000  Uiso   1.00
O1273  O     0.00000   0.78037   0.83755   0.00000  Uiso   1.00
O1274  O    -0.00000   0.71964   0.16245   0.00000  Uiso   1.00
O1275  O     0.21963   0.50000   0.83755   0.00000  Uiso   1.00
O1276  O     0.25000   0.50000   0.75000   0.00000  Uiso   1.00
O1277  O     0.28036   0.50000   0.16245   0.00000  Uiso   1.00
O1278  O     0.20724   0.57308   0.27302   0.00000  Uiso   1.00
O1279  O     0.29275   0.92693   0.72698   0.00000  Uiso   1.00
O1280  O     0.42692   0.70725   0.27302   0.00000  Uiso   1.00
O1281  O     0.07307   0.79276   0.72698   0.00000  Uiso   1.00
O1282  O     0.29275   0.92693   0.27302   0.00000  Uiso   1.00
O1283  O     0.20724   0.57308   0.72698   0.00000  Uiso   1.00
O1284  O     0.07307   0.79276   0.27302   0.00000  Uiso   1.00
O1285  O     0.42692   0.70725   0.72698   0.00000  Uiso   1.00
O1286  O     0.20724   0.92693   0.72698   0.00000  Uiso   1.00
O1287  O     0.00000   0.75000   0.25000   0.00000  Uiso   1.00
O1288  O     0.29275   0.57308   0.27302   0.00000  Uiso   1.00
O1289  O     0.42692   0.79276   0.72698   0.00000  Uiso   1.00
O1290  O     0.07307   0.70725   0.27302   0.00000  Uiso   1.00
O1291  O     0.29275   0.57308   0.72698   0.00000  Uiso   1.00
O1292  O     0.20724   0.92693   0.27302   0.00000  Uiso   1.00
O1293  O     0.07307   0.70725   0.72698   0.00000  Uiso   1.00
O1294  O     0.42692   0.79276   0.27302   0.00000  Uiso   1.00
O1295  O     0.45724   0.82308   0.77302   0.00000  Uiso   1.00
O1296  O     0.04275   0.67693   0.22698   0.00000  Uiso   1.00
O1297  O     0.17692   0.95725   0.77302   0.00000  Uiso   1.00
O1298  O     0.00000   0.75000   0.75000   0.00000  Uiso   1.00
O1299  O     0.32307   0.54276   0.22698   0.00000  Uiso   1.00
O1300  O     0.04275   0.67693   0.77302   0.00000  Uiso   1.00
O1301  O     0.45724   0.82308   0.22698   0.00000  Uiso   1.00
O1302  O     0.32307   0.54276   0.77302   0.00000  Uiso   1.00
O1303  O     0.17692   0.95725   0.22698   0.00000  Uiso   1.00
O1304  O     0.45724   0.67693   0.22698   0.00000  Uiso   1.00
O1305  O     0.04275   0.82308   0.77302   0.00000  Uiso   1.00
O1306  O     0.17692   0.54276   0.22698   0.00000  Uiso   1.00
O1307  O     0.32307   0.95725   0.77302   0.00000  Uiso   1.00
O1308  O     0.04275   0.82308   0.22698   0.00000  Uiso   1.00
O1309  O     0.25000   0.96964   0.33755   0.00000  Uiso   1.00
O1310  O     0.45724   0.67693   0.77302   0.00000  Uiso   1.00
O1311  O     0.32307   0.95725   0.22698   0.00000  Uiso   1.00
O1312  O     0.17692   0.54276   0.77302   0.00000  Uiso   1.00
O1313  O     0.25000   0.53037   0.66245   0.00000  Uiso   1.00
O1314  O     0.03036   0.75000   0.33755   0.00000  Uiso   1.00
O1315  O     0.46963   0.75000   0.66245   0.00000  Uiso   1.00
O1316  O     0.25000   0.53037   0.33755   0.00000  Uiso   1.00
Zn1317 Zn    0.20659   0.50000   0.21735   0.00000  Uiso   1.00
Zn1318 Zn    0.04340   0.75000   0.28265   0.00000  Uiso   1.00
Zn1319 Zn    0.25000   0.95660   0.71735   0.00000  Uiso   1.00
Zn1320 Zn    0.25000   0.54341   0.28265   0.00000  Uiso   1.00
Zn1321 Zn    0.04340   0.75000   0.71735   0.00000  Uiso   1.00
Zn1322 Zn    0.45659   0.75000   0.28265   0.00000  Uiso   1.00
Zn1323 Zn    0.25000   0.54341   0.71735   0.00000  Uiso   1.00
Zn1324 Zn    0.25000   0.95660   0.28265   0.00000  Uiso   1.00
Zn1325 Zn    0.29340   0.50000   0.78265   0.00000  Uiso   1.00
Zn1326 Zn   -0.00000   0.70660   0.21735   0.00000  Uiso   1.00
Zn1327 Zn    0.00000   0.79341   0.78265   0.00000  Uiso   1.00
Zn1328 Zn    0.29340   0.50000   0.21735   0.00000  Uiso   1.00
Zn1329 Zn    0.20659   0.50000   0.78265   0.00000  Uiso   1.00
Zn1330 Zn   -0.00000   0.79341   0.21735   0.00000  Uiso   1.00
Zn1331 Zn    0.00000   0.70660   0.78265   0.00000  Uiso   1.00
Zn1332 Zn    0.45659   0.75000   0.71735   0.00000  Uiso   1.00
C1333  C     0.51377   0.78061   0.41786   0.00000  Uiso   1.00
C1334  C     0.73570   0.96975   0.08210   0.00000  Uiso   1.00
C1335  C     0.71908   0.98703   0.54107   0.00000  Uiso   1.00
C1336  C     0.51373   0.78083   0.45882   0.00000  Uiso   1.00
C1337  C     0.98591   0.71970   0.54106   0.00000  Uiso   1.00
C1338  C     0.71916   0.98727   0.45888   0.00000  Uiso   1.00
C1339  C     0.78143   0.51247   0.54121   0.00000  Uiso   1.00
C1340  C     0.73534   0.96983   0.95901   0.00000  Uiso   1.00
C1341  C     0.76456   0.53040   0.04120   0.00000  Uiso   1.00
C1342  C     0.53088   0.76348   0.95890   0.00000  Uiso   1.00
C1343  C     0.96924   0.73640   0.04103   0.00000  Uiso   1.00
C1344  C     0.76454   0.53042   0.95905   0.00000  Uiso   1.00
C1345  C     0.96954   0.73607   0.91789   0.00000  Uiso   1.00
C1346  C     0.73562   0.96965   0.04115   0.00000  Uiso   1.00
C1347  C     0.96927   0.73635   0.95886   0.00000  Uiso   1.00
C1348  C     0.53094   0.76333   0.04108   0.00000  Uiso   1.00
C1349  C     0.59824   0.84791   0.24999   0.00000  Uiso   1.00
C1350  C     0.90185   0.65198   0.75038   0.00000  Uiso   1.00
C1351  C     0.65188   0.59802   0.25022   0.00000  Uiso   1.00
C1352  C     0.84811   0.90197   0.74974   0.00000  Uiso   1.00
C1353  C     0.90199   0.65185   0.25037   0.00000  Uiso   1.00
C1354  C     0.59795   0.84819   0.74982   0.00000  Uiso   1.00
C1355  C     0.84798   0.90186   0.24990   0.00000  Uiso   1.00
C1356  C     0.53078   0.76333   0.08206   0.00000  Uiso   1.00
C1357  C     0.65195   0.59810   0.75022   0.00000  Uiso   1.00
C1358  C     0.59802   0.65190   0.74969   0.00000  Uiso   1.00
C1359  C     0.90201   0.84816   0.25017   0.00000  Uiso   1.00
C1360  C     0.65204   0.90181   0.75013   0.00000  Uiso   1.00
C1361  C     0.84803   0.59810   0.24981   0.00000  Uiso   1.00
C1362  C     0.90190   0.84803   0.75025   0.00000  Uiso   1.00
C1363  C     0.59812   0.65198   0.24978   0.00000  Uiso   1.00
C1364  C     0.84810   0.59803   0.74981   0.00000  Uiso   1.00
C1365  C     0.65174   0.90211   0.25006   0.00000  Uiso   1.00
C1366  C     0.99987   0.75017   0.47934   0.00000  Uiso   1.00
C1367  C     0.73445   0.97040   0.91807   0.00000  Uiso   1.00
C1368  C     0.50003   0.75014   0.52048   0.00000  Uiso   1.00
C1369  C     0.75028   0.99987   0.47949   0.00000  Uiso   1.00
C1370  C     0.75028   0.99974   0.52065   0.00000  Uiso   1.00
C1371  C     0.74998   0.50010   0.97952   0.00000  Uiso   1.00
C1372  C     0.75002   0.50007   0.02068   0.00000  Uiso   1.00
C1373  C     0.50005   0.74996   0.97938   0.00000  Uiso   1.00
C1374  C     0.50007   0.74993   0.02055   0.00000  Uiso   1.00
C1375  C     0.67930   0.87936   0.18708   0.00000  Uiso   1.00
C1376  C     0.88974   0.55414   0.71244   0.00000  Uiso   1.00
C1377  C     0.63770   0.69394   0.20781   0.00000  Uiso   1.00
C1378  C     0.76474   0.53014   0.08216   0.00000  Uiso   1.00
C1379  C     0.86136   0.80512   0.79006   0.00000  Uiso   1.00
C1380  C     0.80515   0.63863   0.20987   0.00000  Uiso   1.00
C1381  C     0.61837   0.94045   0.70079   0.00000  Uiso   1.00
C1382  C     0.87097   0.81220   0.19676   0.00000  Uiso   1.00
C1383  C     0.63740   0.69615   0.78777   0.00000  Uiso   1.00
C1384  C     0.69510   0.63879   0.78962   0.00000  Uiso   1.00
C1385  C     0.81268   0.86909   0.19608   0.00000  Uiso   1.00
C1386  C     0.55989   0.88384   0.70034   0.00000  Uiso   1.00
C1387  C     0.86274   0.69598   0.21198   0.00000  Uiso   1.00
C1388  C     0.80379   0.86265   0.78785   0.00000  Uiso   1.00
C1389  C     0.53068   0.76360   0.91793   0.00000  Uiso   1.00
C1390  C     0.69514   0.63625   0.20964   0.00000  Uiso   1.00
C1391  C     0.94729   0.61148   0.71518   0.00000  Uiso   1.00
C1392  C     0.62314   0.82060   0.18696   0.00000  Uiso   1.00
C1393  C     0.86023   0.69586   0.78776   0.00000  Uiso   1.00
C1394  C     0.57064   0.87068   0.31294   0.00000  Uiso   1.00
C1395  C     0.88864   0.94488   0.70993   0.00000  Uiso   1.00
C1396  C     0.61231   0.55607   0.29221   0.00000  Uiso   1.00
C1397  C     0.63162   0.80956   0.79915   0.00000  Uiso   1.00
C1398  C     0.94483   0.61138   0.29042   0.00000  Uiso   1.00
C1399  C     0.61256   0.55387   0.71213   0.00000  Uiso   1.00
C1400  C     0.96943   0.73630   0.08200   0.00000  Uiso   1.00
C1401  C     0.87906   0.93790   0.30326   0.00000  Uiso   1.00
C1402  C     0.93732   0.88094   0.30399   0.00000  Uiso   1.00
C1403  C     0.55501   0.61140   0.70991   0.00000  Uiso   1.00
C1404  C     0.88716   0.55405   0.28849   0.00000  Uiso   1.00
C1405  C     0.69019   0.86605   0.79946   0.00000  Uiso   1.00
C1406  C     0.55486   0.61376   0.29038   0.00000  Uiso   1.00
C1407  C     0.94620   0.88734   0.71212   0.00000  Uiso   1.00
C1408  C     0.62686   0.92941   0.31311   0.00000  Uiso   1.00
C1409  C     0.80285   0.63830   0.78561   0.00000  Uiso   1.00
C1410  C     0.99930   0.83826   0.38714   0.00000  Uiso   1.00
C1411  C     0.99989   0.75008   0.39801   0.00000  Uiso   1.00
C1412  C     0.99810   0.66219   0.61338   0.00000  Uiso   1.00
C1413  C     0.66212   0.50296   0.38692   0.00000  Uiso   1.00
C1414  C     0.83804   0.99946   0.61518   0.00000  Uiso   1.00
C1415  C     0.99764   0.66204   0.38595   0.00000  Uiso   1.00
C1416  C     0.57000   0.81016   0.60606   0.00000  Uiso   1.00
C1417  C     0.81444   0.56587   0.39317   0.00000  Uiso   1.00
C1418  C     0.66183   0.50255   0.61290   0.00000  Uiso   1.00
C1419  C     0.81919   0.55952   0.89141   0.00000  Uiso   1.00
C1420  C     0.74963   0.91172   0.11226   0.00000  Uiso   1.00
C1421  C     0.91202   0.74831   0.88535   0.00000  Uiso   1.00
C1422  C     0.50026   0.75036   0.60192   0.00000  Uiso   1.00
C1423  C     0.58842   0.74829   0.11265   0.00000  Uiso   1.00
C1424  C     0.67986   0.94185   0.89196   0.00000  Uiso   1.00
C1425  C     0.75339   0.58802   0.11413   0.00000  Uiso   1.00
C1426  C     0.58835   0.74880   0.88731   0.00000  Uiso   1.00
C1427  C     0.91166   0.75057   0.11263   0.00000  Uiso   1.00
C1428  C     0.75045   0.50021   0.39805   0.00000  Uiso   1.00
C1429  C     0.98570   0.72010   0.58204   0.00000  Uiso   1.00
C1430  C     0.75008   0.99995   0.60199   0.00000  Uiso   1.00
C1431  C     0.74997   0.50011   0.89813   0.00000  Uiso   1.00
C1432  C     0.75007   0.50000   0.10201   0.00000  Uiso   1.00
C1433  C     0.50005   0.74997   0.89802   0.00000  Uiso   1.00
C1434  C     0.50006   0.74991   0.10194   0.00000  Uiso   1.00
C1435  C     0.97283   0.68932   0.47988   0.00000  Uiso   1.00
C1436  C     0.52683   0.81109   0.52002   0.00000  Uiso   1.00
C1437  C     0.81245   0.52381   0.48002   0.00000  Uiso   1.00
C1438  C     0.68826   0.97539   0.52004   0.00000  Uiso   1.00
C1439  C     0.52655   0.81123   0.47975   0.00000  Uiso   1.00
C1440  C     0.71944   0.98726   0.41789   0.00000  Uiso   1.00
C1441  C     0.97284   0.68939   0.52017   0.00000  Uiso   1.00
C1442  C     0.68830   0.97551   0.47974   0.00000  Uiso   1.00
C1443  C     0.81244   0.52382   0.52032   0.00000  Uiso   1.00
C1444  C     0.72178   0.93977   0.97992   0.00000  Uiso   1.00
C1445  C     0.77804   0.56049   0.02029   0.00000  Uiso   1.00
C1446  C     0.56143   0.77589   0.97986   0.00000  Uiso   1.00
C1447  C     0.93872   0.72392   0.02006   0.00000  Uiso   1.00
C1448  C     0.77812   0.56045   0.98001   0.00000  Uiso   1.00
C1449  C     0.72204   0.93963   0.02019   0.00000  Uiso   1.00
C1450  C     0.93873   0.72390   0.97978   0.00000  Uiso   1.00
C1451  C     0.78103   0.51295   0.58217   0.00000  Uiso   1.00
C1452  C     0.56147   0.77579   0.02014   0.00000  Uiso   1.00
C1453  C     0.75026   0.50004   0.35578   0.00000  Uiso   1.00
C1454  C     0.74996   0.50000   0.64424   0.00000  Uiso   1.00
C1455  C     0.99998   0.75002   0.35577   0.00000  Uiso   1.00
C1456  C     0.50005   0.75023   0.64420   0.00000  Uiso   1.00
C1457  C     0.50006   0.75000   0.85576   0.00000  Uiso   1.00
C1458  C     0.50001   0.74998   0.14422   0.00000  Uiso   1.00
C1459  C     0.75000   0.50006   0.85582   0.00000  Uiso   1.00
C1460  C     0.75001   0.99997   0.14424   0.00000  Uiso   1.00
C1461  C     0.68006   0.56999   0.24998   0.00000  Uiso   1.00
C1462  C     0.98560   0.71979   0.41792   0.00000  Uiso   1.00
C1463  C     0.81993   0.93001   0.75001   0.00000  Uiso   1.00
C1464  C     0.93004   0.68001   0.25007   0.00000  Uiso   1.00
C1465  C     0.56995   0.81998   0.74997   0.00000  Uiso   1.00
C1466  C     0.81999   0.93008   0.25005   0.00000  Uiso   1.00
C1467  C     0.67999   0.56992   0.74998   0.00000  Uiso   1.00
C1468  C     0.56994   0.81999   0.25009   0.00000  Uiso   1.00
C1469  C     0.93002   0.68004   0.75005   0.00000  Uiso   1.00
C1470  C     0.68004   0.93003   0.75001   0.00000  Uiso   1.00
C1471  C     0.81999   0.56994   0.25001   0.00000  Uiso   1.00
C1472  C     0.93007   0.82000   0.74998   0.00000  Uiso   1.00
C1473  C     0.51541   0.78028   0.58174   0.00000  Uiso   1.00
C1474  C     0.56994   0.68001   0.25002   0.00000  Uiso   1.00
C1475  C     0.81993   0.57000   0.75003   0.00000  Uiso   1.00
C1476  C     0.68004   0.93002   0.24994   0.00000  Uiso   1.00
C1477  C     0.56998   0.68006   0.74998   0.00000  Uiso   1.00
C1478  C     0.93002   0.81994   0.24998   0.00000  Uiso   1.00
C1479  C     0.65083   0.87659   0.21923   0.00000  Uiso   1.00
C1480  C     0.88237   0.59056   0.73237   0.00000  Uiso   1.00
C1481  C     0.63137   0.65846   0.22989   0.00000  Uiso   1.00
C1482  C     0.86814   0.84106   0.76897   0.00000  Uiso   1.00
C1483  C     0.84109   0.63180   0.23100   0.00000  Uiso   1.00
C1484  C     0.78124   0.51355   0.41823   0.00000  Uiso   1.00
C1485  C     0.62103   0.90642   0.72608   0.00000  Uiso   1.00
C1486  C     0.87236   0.84494   0.22404   0.00000  Uiso   1.00
C1487  C     0.63169   0.65914   0.76839   0.00000  Uiso   1.00
C1488  C     0.65900   0.63188   0.76883   0.00000  Uiso   1.00
C1489  C     0.84492   0.87209   0.22387   0.00000  Uiso   1.00
C1490  C     0.59356   0.87933   0.72591   0.00000  Uiso   1.00
C1491  C     0.86837   0.65905   0.23153   0.00000  Uiso   1.00
C1492  C     0.84083   0.86833   0.76844   0.00000  Uiso   1.00
C1493  C     0.65865   0.63114   0.23032   0.00000  Uiso   1.00
C1494  C     0.90967   0.61780   0.73304   0.00000  Uiso   1.00
C1495  C     0.71921   0.98693   0.58204   0.00000  Uiso   1.00
C1496  C     0.62389   0.84899   0.21924   0.00000  Uiso   1.00
C1497  C     0.86760   0.65943   0.76787   0.00000  Uiso   1.00
C1498  C     0.59914   0.87344   0.28081   0.00000  Uiso   1.00
C1499  C     0.88186   0.90895   0.73102   0.00000  Uiso   1.00
C1500  C     0.61864   0.59155   0.27012   0.00000  Uiso   1.00
C1501  C     0.62898   0.84357   0.77385   0.00000  Uiso   1.00
C1502  C     0.90890   0.61818   0.26926   0.00000  Uiso   1.00
C1503  C     0.61829   0.59088   0.73149   0.00000  Uiso   1.00
C1504  C     0.87761   0.90509   0.27606   0.00000  Uiso   1.00
C1505  C     0.90506   0.87793   0.27623   0.00000  Uiso   1.00
C1506  C     0.76535   0.52991   0.91809   0.00000  Uiso   1.00
C1507  C     0.59100   0.61818   0.73096   0.00000  Uiso   1.00
C1508  C     0.88159   0.59093   0.26879   0.00000  Uiso   1.00
C1509  C     0.65647   0.87064   0.77400   0.00000  Uiso   1.00
C1510  C     0.59136   0.61886   0.26969   0.00000  Uiso   1.00
C1511  C     0.90917   0.88167   0.73155   0.00000  Uiso   1.00
C1512  C     0.62609   0.90102   0.28081   0.00000  Uiso   1.00
C1513  C     0.84034   0.63214   0.76736   0.00000  Uiso   1.00
C1514  C     0.98578   0.71960   0.45888   0.00000  Uiso   1.00
C1515  C     0.51436   0.78057   0.54089   0.00000  Uiso   1.00
C1516  C     0.78141   0.51267   0.45910   0.00000  Uiso   1.00
H1517  H     0.96282   0.66498   0.46557   0.00000  Uiso   1.00
H1518  H     0.78851   0.58460   0.03465   0.00000  Uiso   1.00
H1519  H     0.70520   0.84090   0.79083   0.00000  Uiso   1.00
H1520  H     0.55113   0.63576   0.31228   0.00000  Uiso   1.00
H1521  H     0.53222   0.61527   0.26892   0.00000  Uiso   1.00
H1522  H     0.55185   0.58743   0.30582   0.00000  Uiso   1.00
H1523  H     0.95054   0.86595   0.68965   0.00000  Uiso   1.00
H1524  H     0.94960   0.91410   0.69762   0.00000  Uiso   1.00
H1525  H     0.96831   0.88527   0.73415   0.00000  Uiso   1.00
H1526  H     0.64846   0.95040   0.30984   0.00000  Uiso   1.00
H1527  H     0.60045   0.94446   0.31381   0.00000  Uiso   1.00
H1528  H     0.63160   0.91572   0.34146   0.00000  Uiso   1.00
H1529  H     0.58592   0.78553   0.96554   0.00000  Uiso   1.00
H1530  H     0.78135   0.63601   0.76295   0.00000  Uiso   1.00
H1531  H     0.79784   0.61731   0.80831   0.00000  Uiso   1.00
H1532  H     0.79916   0.66530   0.79955   0.00000  Uiso   1.00
H1533  H     0.55142   0.82188   0.40519   0.00000  Uiso   1.00
H1534  H     0.98890   0.85100   0.41429   0.00000  Uiso   1.00
H1535  H     0.97612   0.82563   0.37111   0.00000  Uiso   1.00
H1536  H     0.51130   0.85996   0.36859   0.00000  Uiso   1.00
H1537  H     0.94676   0.67996   0.59433   0.00000  Uiso   1.00
H1538  H     0.50890   0.64934   0.58646   0.00000  Uiso   1.00
H1539  H     0.98501   0.64069   0.63137   0.00000  Uiso   1.00
H1540  H     0.91423   0.71427   0.03438   0.00000  Uiso   1.00
H1541  H     0.52114   0.67413   0.63020   0.00000  Uiso   1.00
H1542  H     0.67726   0.95060   0.40526   0.00000  Uiso   1.00
H1543  H     0.64978   0.51398   0.41401   0.00000  Uiso   1.00
H1544  H     0.63999   0.99128   0.36866   0.00000  Uiso   1.00
H1545  H     0.67524   0.52559   0.37052   0.00000  Uiso   1.00
H1546  H     0.82249   0.55069   0.59394   0.00000  Uiso   1.00
H1547  H     0.85168   0.98803   0.58901   0.00000  Uiso   1.00
H1548  H     0.82485   0.97695   0.63172   0.00000  Uiso   1.00
H1549  H     0.85910   0.51223   0.63408   0.00000  Uiso   1.00
H1550  H     0.94654   0.67965   0.40584   0.00000  Uiso   1.00
H1551  H     0.78898   0.58440   0.96568   0.00000  Uiso   1.00
H1552  H     0.50803   0.64829   0.41254   0.00000  Uiso   1.00
H1553  H     0.52097   0.67428   0.36984   0.00000  Uiso   1.00
H1554  H     0.98453   0.64128   0.36698   0.00000  Uiso   1.00
H1555  H     0.51743   0.81732   0.62796   0.00000  Uiso   1.00
H1556  H     0.57938   0.83601   0.61972   0.00000  Uiso   1.00
H1557  H     0.58324   0.80773   0.57714   0.00000  Uiso   1.00
H1558  H     0.57886   0.78688   0.62452   0.00000  Uiso   1.00
H1559  H     0.81847   0.51270   0.37220   0.00000  Uiso   1.00
H1560  H     0.84091   0.57344   0.37951   0.00000  Uiso   1.00
H1561  H     0.81265   0.57968   0.42185   0.00000  Uiso   1.00
H1562  H     0.71155   0.91549   0.03448   0.00000  Uiso   1.00
H1563  H     0.79181   0.57578   0.37438   0.00000  Uiso   1.00
H1564  H     0.67700   0.95024   0.59440   0.00000  Uiso   1.00
H1565  H     0.64935   0.51344   0.58583   0.00000  Uiso   1.00
H1566  H     0.67498   0.52528   0.62914   0.00000  Uiso   1.00
H1567  H     0.63981   0.99090   0.63132   0.00000  Uiso   1.00
H1568  H     0.76945   0.58507   0.90383   0.00000  Uiso   1.00
H1569  H     0.83313   0.56445   0.91959   0.00000  Uiso   1.00
H1570  H     0.82723   0.58141   0.87075   0.00000  Uiso   1.00
H1571  H     0.82855   0.53287   0.87952   0.00000  Uiso   1.00
H1572  H     0.69755   0.92897   0.09496   0.00000  Uiso   1.00
H1573  H     0.91423   0.71431   0.96542   0.00000  Uiso   1.00
H1574  H     0.75960   0.89904   0.08489   0.00000  Uiso   1.00
H1575  H     0.73750   0.89004   0.13074   0.00000  Uiso   1.00
H1576  H     0.77312   0.92392   0.12815   0.00000  Uiso   1.00
H1577  H     0.92906   0.69730   0.90594   0.00000  Uiso   1.00
H1578  H     0.89824   0.75917   0.91172   0.00000  Uiso   1.00
H1579  H     0.89120   0.73516   0.86646   0.00000  Uiso   1.00
H1580  H     0.92453   0.77130   0.86895   0.00000  Uiso   1.00
H1581  H     0.57245   0.80054   0.09474   0.00000  Uiso   1.00
H1582  H     0.60071   0.73752   0.08542   0.00000  Uiso   1.00
H1583  H     0.57571   0.72544   0.12908   0.00000  Uiso   1.00
H1584  H     0.58599   0.78535   0.03448   0.00000  Uiso   1.00
H1585  H     0.61054   0.76019   0.13076   0.00000  Uiso   1.00
H1586  H     0.72933   0.91537   0.90347   0.00000  Uiso   1.00
H1587  H     0.66620   0.93685   0.92027   0.00000  Uiso   1.00
H1588  H     0.67115   0.92035   0.87116   0.00000  Uiso   1.00
H1589  H     0.67080   0.96878   0.88053   0.00000  Uiso   1.00
H1590  H     0.80432   0.56974   0.09440   0.00000  Uiso   1.00
H1591  H     0.74324   0.60190   0.08751   0.00000  Uiso   1.00
H1592  H     0.76672   0.60862   0.13312   0.00000  Uiso   1.00
H1593  H     0.72988   0.57608   0.13018   0.00000  Uiso   1.00
H1594  H     0.57223   0.80097   0.90537   0.00000  Uiso   1.00
H1595  H     0.67656   0.90611   0.17210   0.00000  Uiso   1.00
H1596  H     0.60083   0.73817   0.91450   0.00000  Uiso   1.00
H1597  H     0.61032   0.76074   0.86902   0.00000  Uiso   1.00
H1598  H     0.57565   0.72583   0.87104   0.00000  Uiso   1.00
H1599  H     0.92820   0.69858   0.09450   0.00000  Uiso   1.00
H1600  H     0.89861   0.76064   0.08550   0.00000  Uiso   1.00
H1601  H     0.92436   0.77393   0.12821   0.00000  Uiso   1.00
H1602  H     0.89018   0.73860   0.13153   0.00000  Uiso   1.00
H1603  H     0.70718   0.87727   0.19980   0.00000  Uiso   1.00
H1604  H     0.67727   0.85803   0.16441   0.00000  Uiso   1.00
H1605  H     0.53677   0.83534   0.53467   0.00000  Uiso   1.00
H1606  H     0.86615   0.53515   0.71234   0.00000  Uiso   1.00
H1607  H     0.89679   0.55890   0.68148   0.00000  Uiso   1.00
H1608  H     0.91266   0.53983   0.72724   0.00000  Uiso   1.00
H1609  H     0.61434   0.71326   0.20862   0.00000  Uiso   1.00
H1610  H     0.66162   0.70856   0.22027   0.00000  Uiso   1.00
H1611  H     0.64274   0.68785   0.17666   0.00000  Uiso   1.00
H1612  H     0.88493   0.78607   0.78982   0.00000  Uiso   1.00
H1613  H     0.85522   0.81060   0.82112   0.00000  Uiso   1.00
H1614  H     0.83802   0.79054   0.77639   0.00000  Uiso   1.00
H1615  H     0.78599   0.61518   0.21026   0.00000  Uiso   1.00
H1616  H     0.83718   0.53254   0.46540   0.00000  Uiso   1.00
H1617  H     0.79064   0.66210   0.22340   0.00000  Uiso   1.00
H1618  H     0.81068   0.64459   0.17880   0.00000  Uiso   1.00
H1619  H     0.61875   0.96520   0.71945   0.00000  Uiso   1.00
H1620  H     0.64217   0.94136   0.68075   0.00000  Uiso   1.00
H1621  H     0.59342   0.94214   0.68270   0.00000  Uiso   1.00
H1622  H     0.89563   0.81228   0.17795   0.00000  Uiso   1.00
H1623  H     0.87057   0.78652   0.21396   0.00000  Uiso   1.00
H1624  H     0.84691   0.81147   0.17729   0.00000  Uiso   1.00
H1625  H     0.61584   0.70069   0.81001   0.00000  Uiso   1.00
H1626  H     0.66406   0.69946   0.80256   0.00000  Uiso   1.00
H1627  H     0.66351   0.96637   0.53432   0.00000  Uiso   1.00
H1628  H     0.63564   0.71808   0.76558   0.00000  Uiso   1.00
H1629  H     0.71433   0.61537   0.78908   0.00000  Uiso   1.00
H1630  H     0.70943   0.66225   0.77591   0.00000  Uiso   1.00
H1631  H     0.68983   0.64480   0.82074   0.00000  Uiso   1.00
H1632  H     0.79260   0.89170   0.19843   0.00000  Uiso   1.00
H1633  H     0.82273   0.86914   0.16563   0.00000  Uiso   1.00
H1634  H     0.79738   0.84343   0.20190   0.00000  Uiso   1.00
H1635  H     0.54014   0.86094   0.70217   0.00000  Uiso   1.00
H1636  H     0.54483   0.90899   0.70889   0.00000  Uiso   1.00
H1637  H     0.56832   0.88581   0.66943   0.00000  Uiso   1.00
H1638  H     0.53633   0.83565   0.46543   0.00000  Uiso   1.00
H1639  H     0.88447   0.70032   0.18993   0.00000  Uiso   1.00
H1640  H     0.83619   0.69926   0.19697   0.00000  Uiso   1.00
H1641  H     0.86438   0.71806   0.23406   0.00000  Uiso   1.00
H1642  H     0.79945   0.88403   0.81033   0.00000  Uiso   1.00
H1643  H     0.78169   0.86473   0.76582   0.00000  Uiso   1.00
H1644  H     0.80039   0.83589   0.80235   0.00000  Uiso   1.00
H1645  H     0.69888   0.61425   0.18773   0.00000  Uiso   1.00
H1646  H     0.69815   0.66258   0.19419   0.00000  Uiso   1.00
H1647  H     0.71778   0.63474   0.23110   0.00000  Uiso   1.00
H1648  H     0.96857   0.61347   0.73811   0.00000  Uiso   1.00
H1649  H     0.96277   0.66512   0.53455   0.00000  Uiso   1.00
H1650  H     0.95093   0.58460   0.70100   0.00000  Uiso   1.00
H1651  H     0.95262   0.63265   0.69279   0.00000  Uiso   1.00
H1652  H     0.60157   0.79958   0.19026   0.00000  Uiso   1.00
H1653  H     0.61837   0.83427   0.15860   0.00000  Uiso   1.00
H1654  H     0.64957   0.80558   0.18626   0.00000  Uiso   1.00
H1655  H     0.88377   0.71491   0.78771   0.00000  Uiso   1.00
H1656  H     0.83722   0.71009   0.77304   0.00000  Uiso   1.00
H1657  H     0.85331   0.69114   0.81877   0.00000  Uiso   1.00
H1658  H     0.57336   0.84393   0.32793   0.00000  Uiso   1.00
H1659  H     0.57267   0.89201   0.33560   0.00000  Uiso   1.00
H1660  H     0.66358   0.96656   0.46534   0.00000  Uiso   1.00
H1661  H     0.54277   0.87278   0.30020   0.00000  Uiso   1.00
H1662  H     0.86507   0.96394   0.71018   0.00000  Uiso   1.00
H1663  H     0.91199   0.95946   0.72359   0.00000  Uiso   1.00
H1664  H     0.89476   0.93941   0.67887   0.00000  Uiso   1.00
H1665  H     0.63567   0.53675   0.29140   0.00000  Uiso   1.00
H1666  H     0.60727   0.56217   0.32336   0.00000  Uiso   1.00
H1667  H     0.58839   0.54145   0.27976   0.00000  Uiso   1.00
H1668  H     0.63125   0.78480   0.78049   0.00000  Uiso   1.00
H1669  H     0.65656   0.80786   0.81726   0.00000  Uiso   1.00
H1670  H     0.60781   0.80868   0.81916   0.00000  Uiso   1.00
H1671  H     0.83725   0.53253   0.53470   0.00000  Uiso   1.00
H1672  H     0.96400   0.63482   0.28995   0.00000  Uiso   1.00
H1673  H     0.93929   0.60551   0.32151   0.00000  Uiso   1.00
H1674  H     0.95933   0.58786   0.27697   0.00000  Uiso   1.00
H1675  H     0.63412   0.54932   0.68989   0.00000  Uiso   1.00
H1676  H     0.61433   0.53194   0.73433   0.00000  Uiso   1.00
H1677  H     0.58589   0.55056   0.69736   0.00000  Uiso   1.00
H1678  H     0.85433   0.93816   0.32203   0.00000  Uiso   1.00
H1679  H     0.90307   0.93855   0.32279   0.00000  Uiso   1.00
H1680  H     0.87970   0.96351   0.28592   0.00000  Uiso   1.00
H1681  H     0.95740   0.85833   0.30160   0.00000  Uiso   1.00
H1682  H     0.71085   0.91587   0.96555   0.00000  Uiso   1.00
H1683  H     0.95260   0.90661   0.29815   0.00000  Uiso   1.00
H1684  H     0.92729   0.88088   0.33444   0.00000  Uiso   1.00
H1685  H     0.53586   0.63489   0.71030   0.00000  Uiso   1.00
H1686  H     0.56044   0.60537   0.67882   0.00000  Uiso   1.00
H1687  H     0.54050   0.58799   0.72352   0.00000  Uiso   1.00
H1688  H     0.86550   0.54976   0.31066   0.00000  Uiso   1.00
H1689  H     0.88544   0.53191   0.26649   0.00000  Uiso   1.00
H1690  H     0.91376   0.55078   0.30341   0.00000  Uiso   1.00
H1691  H     0.70997   0.88893   0.79760   0.00000  Uiso   1.00
H1692  H     0.68185   0.86405   0.83039   0.00000  Uiso   1.00
N1693  N     0.52688   0.81105   0.39596   0.00000  Uiso   1.00
N1694  N     0.72235   0.93938   0.10396   0.00000  Uiso   1.00
N1695  N     0.93961   0.72171   0.89600   0.00000  Uiso   1.00
N1696  N     0.56141   0.77610   0.10395   0.00000  Uiso   1.00
N1697  N     0.71929   0.94085   0.89625   0.00000  Uiso   1.00
N1698  N     0.77954   0.55982   0.10407   0.00000  Uiso   1.00
N1699  N     0.56126   0.77651   0.89607   0.00000  Uiso   1.00
N1700  N     0.93897   0.72311   0.10383   0.00000  Uiso   1.00
N1701  N     0.97146   0.69014   0.60393   0.00000  Uiso   1.00
N1702  N     0.68870   0.97482   0.39595   0.00000  Uiso   1.00
N1703  N     0.81123   0.52669   0.60410   0.00000  Uiso   1.00
N1704  N     0.97114   0.68990   0.39607   0.00000  Uiso   1.00
N1705  N     0.53050   0.81071   0.60234   0.00000  Uiso   1.00
N1706  N     0.81261   0.52651   0.39758   0.00000  Uiso   1.00
N1707  N     0.68842   0.97444   0.60385   0.00000  Uiso   1.00
N1708  N     0.77981   0.55981   0.89628   0.00000  Uiso   1.00
O1709  O     0.75000   0.50000   0.25000   0.00000  Uiso   1.00
O1710  O     0.75000   0.96964   0.66245   0.00000  Uiso   1.00
O1711  O     0.96963   0.75000   0.33755   0.00000  Uiso   1.00
O1712  O     0.53036   0.75000   0.66245   0.00000  Uiso   1.00
O1713  O     0.50000   0.71964   0.83755   0.00000  Uiso   1.00
O1714  O     0.50000   0.78037   0.16245   0.00000  Uiso   1.00
O1715  O     0.78036   0.50000   0.83755   0.00000  Uiso   1.00
O1716  O     0.71963   0.50000   0.16245   0.00000  Uiso   1.00
O1717  O     0.50000   0.78037   0.83755   0.00000  Uiso   1.00
O1718  O     0.50000   0.71964   0.16245   0.00000  Uiso   1.00
O1719  O     0.71963   0.50000   0.83755   0.00000  Uiso   1.00
O1720  O     0.75000   0.50000   0.75000   0.00000  Uiso   1.00
O1721  O     0.78036   0.50000   0.16245   0.00000  Uiso   1.00
O1722  O     0.70724   0.57308   0.27302   0.00000  Uiso   1.00
O1723  O     0.79275   0.92693   0.72698   0.00000  Uiso   1.00
O1724  O     0.92692   0.70725   0.27302   0.00000  Uiso   1.00
O1725  O     0.57307   0.79276   0.72698   0.00000  Uiso   1.00
O1726  O     0.79275   0.92693   0.27302   0.00000  Uiso   1.00
O1727  O     0.70724   0.57308   0.72698   0.00000  Uiso   1.00
O1728  O     0.57307   0.79276   0.27302   0.00000  Uiso   1.00
O1729  O     0.92692   0.70725   0.72698   0.00000  Uiso   1.00
O1730  O     0.70724   0.92693   0.72698   0.00000  Uiso   1.00
O1731  O     0.50000   0.75000   0.25000   0.00000  Uiso   1.00
O1732  O     0.79275   0.57308   0.27302   0.00000  Uiso   1.00
O1733  O     0.92692   0.79276   0.72698   0.00000  Uiso   1.00
O1734  O     0.57307   0.70725   0.27302   0.00000  Uiso   1.00
O1735  O     0.79275   0.57308   0.72698   0.00000  Uiso   1.00
O1736  O     0.70724   0.92693   0.27302   0.00000  Uiso   1.00
O1737  O     0.57307   0.70725   0.72698   0.00000  Uiso   1.00
O1738  O     0.92692   0.79276   0.27302   0.00000  Uiso   1.00
O1739  O     0.95724   0.82308   0.77302   0.00000  Uiso   1.00
O1740  O     0.54275   0.67693   0.22698   0.00000  Uiso   1.00
O1741  O     0.67692   0.95725   0.77302   0.00000  Uiso   1.00
O1742  O     0.50000   0.75000   0.75000   0.00000  Uiso   1.00
O1743  O     0.82307   0.54276   0.22698   0.00000  Uiso   1.00
O1744  O     0.54275   0.67693   0.77302   0.00000  Uiso   1.00
O1745  O     0.95724   0.82308   0.22698   0.00000  Uiso   1.00
O1746  O     0.82307   0.54276   0.77302   0.00000  Uiso   1.00
O1747  O     0.67692   0.95725   0.22698   0.00000  Uiso   1.00
O1748  O     0.95724   0.67693   0.22698   0.00000  Uiso   1.00
O1749  O     0.54275   0.82308   0.77302   0.00000  Uiso   1.00
O1750  O     0.67692   0.54276   0.22698   0.00000  Uiso   1.00
O1751  O     0.82307   0.95725   0.77302   0.00000  Uiso   1.00
O1752  O     0.54275   0.82308   0.22698   0.00000  Uiso   1.00
O1753  O     0.75000   0.96964   0.33755   0.00000  Uiso   1.00
O1754  O     0.95724   0.67693   0.77302   0.00000  Uiso   1.00
O1755  O     0.82307   0.95725   0.22698   0.00000  Uiso   1.00
O1756  O     0.67692   0.54276   0.77302   0.00000  Uiso   1.00
O1757  O     0.75000   0.53037   0.66245   0.00000  Uiso   1.00
O1758  O     0.53036   0.75000   0.33755   0.00000  Uiso   1.00
O1759  O     0.96963   0.75000   0.66245   0.00000  Uiso   1.00
O1760  O     0.75000   0.53037   0.33755   0.00000  Uiso   1.00
Zn1761 Zn    0.70659   0.50000   0.21735   0.00000  Uiso   1.00
Zn1762 Zn    0.54340   0.75000   0.28265   0.00000  Uiso   1.00
Zn1763 Zn    0.75000   0.95660   0.71735   0.00000  Uiso   1.00
Zn1764 Zn    0.75000   0.54341   0.28265   0.00000  Uiso   1.00
Zn1765 Zn    0.54340   0.75000   0.71735   0.00000  Uiso   1.00
Zn1766 Zn    0.95659   0.75000   0.28265   0.00000  Uiso   1.00
Zn1767 Zn    0.75000   0.54341   0.71735   0.00000  Uiso   1.00
Zn1768 Zn    0.75000   0.95660   0.28265   0.00000  Uiso   1.00
Zn1769 Zn    0.79340   0.50000   0.78265   0.00000  Uiso   1.00
Zn1770 Zn    0.50000   0.70660   0.21735   0.00000  Uiso   1.00
Zn1771 Zn    0.50000   0.79341   0.78265   0.00000  Uiso   1.00
Zn1772 Zn    0.79340   0.50000   0.21735   0.00000  Uiso   1.00
Zn1773 Zn    0.70659   0.50000   0.78265   0.00000  Uiso   1.00
Zn1774 Zn    0.50000   0.79341   0.21735   0.00000  Uiso   1.00
Zn1775 Zn    0.50000   0.70660   0.78265   0.00000  Uiso   1.00
Zn1776 Zn    0.95659   0.75000   0.71735   0.00000  Uiso   1.00
loop_
_geom_bond_atom_site_label_1
_geom_bond_atom_site_label_2
_geom_bond_distance
_geom_bond_site_symmetry_2
_ccdc_geom_bond_type
C1     N361    1.427   .     S
C1     C4      1.410   .     A
C1     C523    1.403   1_455 S
C2     C14     1.409   .     A
C2     N362    1.427   .     S
C2     C988    1.403   .     A
C3     C163    1.410   .     A
C3     C106    1.404   .     A
C3     C38     1.418   .     A
C4     C107    1.405   .     A
C4     C478    1.418   1_455 S
C5     C97     1.410   .     A
C5     C109    1.404   .     A
C5     C480    1.417   .     S
C6     C110    1.404   .     A
C6     C37     1.417   .     A
C6     C108    1.411   .     A
C7     C119    1.410   .     A
C7     C111    1.405   .     A
C7     C926    1.419   1_545 S
C8     C35     1.410   .     A
C8     C112    1.404   .     A
C8     C927    1.417   .     S
C9     C46     1.410   .     A
C9     C113    1.404   .     A
C9     C40     1.418   .     A
C10    C41     1.418   .     A
C10    C114    1.404   .     A
C10    C57     1.410   .     A
C11    C115    1.404   .     A
C11    C68     1.410   .     A
C11    C486    1.418   .     S
C12    C174    1.410   .     A
C12    C116    1.404   .     A
C12    C39     1.418   .     A
C13    N363    1.428   .     S
C13    C15     1.410   .     A
C13    C545    1.403   .     S
C14    C117    1.404   .     A
C14    C928    1.418   .     S
C15    C118    1.404   .     A
C15    C485    1.418   .     S
C16    C120    1.404   .     A
C16    C24     1.410   .     A
C16    C42     1.418   .     A
C17    C164    1.414   .     A
C17    C166    1.413   .     A
C17    C136    1.453   .     S
C18    C137    1.453   .     S
C18    C165    1.415   .     A
C18    C162    1.413   .     A
C19    C129    1.452   .     S
C19    C161    1.413   .     A
C19    C168    1.414   .     A
C20    C160    1.413   .     A
C20    C167    1.414   .     A
C20    C131    1.452   .     S
C21    C170    1.414   .     A
C21    C159    1.413   .     A
C21    C132    1.453   .     S
C22    C133    1.453   .     S
C22    C158    1.414   .     A
C22    C169    1.413   .     A
C23    C134    1.451   .     S
C23    C157    1.414   .     A
C23    C172    1.413   .     A
C24    C102    1.403   .     A
C24    N364    1.427   .     S
C25    C171    1.413   .     A
C25    C156    1.414   .     A
C25    C135    1.452   .     S
C26    C155    1.413   .     A
C26    C145    1.451   .     S
C26    C175    1.414   .     A
C27    C154    1.413   .     A
C27    C146    1.452   .     S
C27    C173    1.414   .     A
C28    C153    1.413   .     A
C28    C177    1.414   .     A
C28    C138    1.453   .     S
C29    C139    1.453   .     S
C29    C151    1.414   .     A
C29    C176    1.413   .     A
C30    C150    1.414   .     A
C30    C179    1.413   .     A
C30    C140    1.452   .     S
C31    C149    1.414   .     A
C31    C178    1.413   .     A
C31    C142    1.452   .     S
C32    C181    1.413   .     A
C32    C148    1.414   .     A
C32    C143    1.453   .     S
C33    C147    1.413   .     A
C33    C144    1.453   .     S
C33    C180    1.414   .     A
C34    C182    1.418   .     A
C34    C448    1.418   .     S
C34    C480    1.416   .     S
C35    N365    1.427   .     S
C35    C987    1.405   .     S
C36    C183    1.416   .     A
C36    C449    1.417   1_455 S
C36    C478    1.416   1_455 S
C37    C38     1.417   .     A
C37    C1072   1.416   .     S
C38    C895    1.419   .     S
C39    C896    1.417   1_545 S
C39    C40     1.416   1_556 S
C40    C902    1.418   1_545 S
C40    C39     1.416   1_554 S
C41    C459    1.418   1_455 S
C41    C42     1.417   1_556 S
C42    C455    1.418   1_455 S
C42    C41     1.417   1_554 S
C43    H271    1.111   .     S
C43    H272    1.105   .     S
C43    H263    1.110   .     S
C43    C147    1.522   .     S
C44    H274    1.107   .     S
C44    H275    1.110   .     S
C44    H276    1.110   .     S
C44    C148    1.521   .     S
C45    H277    1.107   .     S
C45    H279    1.110   .     S
C45    H278    1.110   .     S
C45    C149    1.521   .     S
C46    N366    1.428   .     S
C46    C100    1.403   .     S
C47    C150    1.521   .     S
C47    H280    1.107   .     S
C47    H281    1.110   .     S
C47    H282    1.110   .     S
C48    H285    1.110   .     S
C48    C151    1.521   .     S
C48    H286    1.110   .     S
C48    H283    1.107   .     S
C49    C153    1.521   .     S
C49    H288    1.110   .     S
C49    H289    1.105   .     S
C49    H287    1.109   .     S
C50    H291    1.110   .     S
C50    H292    1.105   .     S
C50    H290    1.109   .     S
C50    C154    1.522   .     S
C51    C155    1.523   .     S
C51    H296    1.110   .     S
C51    H294    1.105   .     S
C51    H293    1.111   .     S
C52    H299    1.110   .     S
C52    H298    1.110   .     S
C52    H297    1.107   .     S
C52    C156    1.521   .     S
C53    H302    1.110   .     S
C53    H301    1.110   .     S
C53    H300    1.107   .     S
C53    C157    1.521   .     S
C54    H303    1.107   .     S
C54    H305    1.110   .     S
C54    H304    1.110   .     S
C54    C158    1.521   .     S
C55    H307    1.110   .     S
C55    C159    1.522   .     S
C55    H309    1.110   .     S
C55    H308    1.105   .     S
C56    H310    1.111   .     S
C56    H312    1.105   .     S
C56    C160    1.523   .     S
C56    H311    1.110   .     S
C57    C101    1.403   .     A
C57    N367    1.427   .     S
C58    H313    1.110   .     S
C58    H314    1.105   .     S
C58    C161    1.523   .     S
C58    H315    1.110   .     S
C59    C162    1.522   .     S
C59    H318    1.105   .     S
C59    H319    1.110   .     S
C59    H316    1.110   .     S
C60    C164    1.520   .     S
C60    H321    1.110   .     S
C60    H320    1.107   .     S
C60    H322    1.110   .     S
C61    H325    1.110   .     S
C61    H324    1.110   .     S
C61    H323    1.107   .     S
C61    C165    1.521   .     S
C62    H327    1.105   .     S
C62    C166    1.522   .     S
C62    H326    1.110   .     S
C62    H329    1.111   .     S
C63    H331    1.110   .     S
C63    H332    1.110   .     S
C63    C167    1.521   .     S
C63    H330    1.107   .     S
C64    H334    1.110   .     S
C64    H333    1.107   .     S
C64    C168    1.521   .     S
C64    H335    1.110   .     S
C65    H337    1.105   .     S
C65    H336    1.109   .     S
C65    C169    1.521   .     S
C65    H338    1.110   .     S
C66    H342    1.110   .     S
C66    H340    1.107   .     S
C66    H341    1.110   .     S
C66    C170    1.521   .     S
C67    H345    1.105   .     S
C67    H343    1.110   .     S
C67    C171    1.522   .     S
C67    H344    1.110   .     S
C68    N368    1.427   .     S
C68    C546    1.404   .     S
C69    C172    1.522   .     S
C69    H346    1.110   .     S
C69    H348    1.110   .     S
C69    H347    1.105   .     S
C70    H351    1.110   .     S
C70    H349    1.107   .     S
C70    H352    1.110   .     S
C70    C173    1.521   .     S
C71    C175    1.521   .     S
C71    H355    1.110   .     S
C71    H354    1.110   .     S
C71    H353    1.107   .     S
C72    H356    1.111   .     S
C72    H357    1.110   .     S
C72    H358    1.105   .     S
C72    C176    1.523   .     S
C73    H360    1.110   .     S
C73    H187    1.110   .     S
C73    C177    1.521   .     S
C73    H359    1.107   .     S
C74    H190    1.105   .     S
C74    C178    1.523   .     S
C74    H188    1.110   .     S
C74    H189    1.110   .     S
C75    C179    1.523   .     S
C75    H191    1.111   .     S
C75    H193    1.110   .     S
C75    H192    1.105   .     S
C76    H196    1.110   .     S
C76    H194    1.107   .     S
C76    H195    1.110   .     S
C76    C180    1.520   .     S
C77    C181    1.523   .     S
C77    H198    1.110   .     S
C77    H199    1.111   .     S
C77    H200    1.105   .     S
C78    H203    1.111   .     S
C78    H202    1.111   .     S
C78    H648    1.109   .     S
C78    N805    1.447   .     S
C79    C130    1.404   .     A
C79    C123    1.454   .     S
C79    C445    1.403   .     S
C80    N369    1.447   .     S
C80    H207    1.109   .     S
C80    H650    1.111   .     S
C80    H653    1.111   .     S
C81    H211    1.111   .     S
C81    H213    1.111   .     S
C81    H1100   1.109   1_545 S
C81    N1258   1.447   1_545 S
C82    H215    1.111   .     S
C82    H216    1.111   .     S
C82    H1105   1.110   .     S
C82    N1259   1.447   .     S
C83    N372    1.447   .     S
C83    H222    1.110   .     S
C83    H664    1.111   .     S
C83    H665    1.111   .     S
C84    H225    1.110   .     S
C84    N373    1.448   .     S
C84    H224    1.110   .     S
C84    H226    1.110   .     S
C85    N374    1.448   .     S
C85    H229    1.110   .     S
C85    H228    1.110   .     S
C85    H231    1.110   .     S
C86    H234    1.111   .     S
C86    H233    1.111   .     S
C86    H1123   1.110   1_545 S
C86    N1263   1.447   1_545 S
C87    H238    1.110   .     S
C87    H239    1.110   .     S
C87    H237    1.110   .     S
C87    N376    1.448   .     S
C88    H243    1.109   .     S
C88    N362    1.447   .     S
C88    H242    1.111   .     S
C88    H244    1.111   .     S
C89    N363    1.447   .     S
C89    H247    1.110   .     S
C89    H246    1.111   .     S
C89    H248    1.111   .     S
C90    C141    1.409   .     A
C90    C124    1.455   .     S
C90    C541    1.405   1_455 S
C91    H250    1.111   .     S
C91    N364    1.447   .     S
C91    H253    1.109   .     S
C91    H251    1.111   .     S
C92    H255    1.110   .     S
C92    H257    1.110   .     S
C92    N365    1.448   .     S
C92    H256    1.110   .     S
C93    H259    1.111   .     S
C93    N366    1.447   .     S
C93    H261    1.111   .     S
C93    H260    1.110   .     S
C94    H264    1.111   .     S
C94    N367    1.447   .     S
C94    H265    1.109   .     S
C94    H266    1.111   .     S
C95    H270    1.109   .     S
C95    H269    1.110   .     S
C95    N368    1.446   .     S
C95    H268    1.111   .     S
C96    C121    1.455   .     S
C96    C152    1.409   .     A
C96    C996    1.405   1_545 S
C97    N369    1.428   .     S
C97    C534    1.405   .     S
C98    C1010   1.454   .     S
C98    C163    1.403   .     A
C98    C1007   1.404   .     S
C99    C174    1.405   .     A
C99    C127    1.456   .     S
C99    C923    1.405   1_545 S
C100   C1016   1.454   1_545 S
C100   C890    1.403   1_545 A
C101   C125    1.454   .     S
C101   C457    1.403   1_455 S
C102   C126    1.455   .     S
C102   C512    1.404   1_455 S
C103   H185    1.081   .     S
C103   C109    1.387   .     A
C103   C182    1.404   .     A
C104   C183    1.403   .     A
C104   C107    1.386   .     A
C104   H273    1.083   .     S
C105   C184    1.403   .     A
C105   C111    1.387   .     A
C105   H284    1.082   .     S
C106   H295    1.081   .     S
C106   C110    1.387   .     A
C107   H306    1.081   .     S
C108   N370    1.428   .     S
C108   C984    1.405   .     S
C109   H317    1.081   .     S
C110   H328    1.081   .     S
C111   H339    1.081   .     S
C112   H350    1.081   .     S
C112   C117    1.386   1_556 S
C113   H186    1.081   .     S
C113   C116    1.386   1_554 S
C114   H197    1.081   .     S
C114   C120    1.387   1_556 S
C115   H208    1.081   .     S
C115   C118    1.387   1_554 S
C116   H219    1.081   .     S
C116   C113    1.386   1_556 S
C117   H230    1.081   .     S
C117   C112    1.386   1_554 S
C118   H241    1.081   .     S
C118   C115    1.387   1_556 S
C119   N371    1.428   .     S
C119   C986    1.404   1_545 S
C120   H252    1.081   .     S
C120   C114    1.387   1_554 S
C121   O428    1.274   .     A
C121   O1309   1.276   1_545 S
C122   O1266   1.275   1_545 A
C122   C986    1.454   1_545 S
C122   O425    1.275   .     S
C123   O379    1.273   .     A
C123   O870    1.275   .     S
C124   O380    1.273   .     A
C124   O871    1.276   1_455 S
C125   O381    1.274   .     A
C125   O385    1.275   .     A
C126   O382    1.275   .     S
C126   O386    1.275   .     S
C127   O383    1.275   .     S
C127   O387    1.275   .     S
C128   C988    1.454   .     S
C128   O1272   1.274   .     S
C128   O1277   1.273   .     S
C129   O390    1.275   .     A
C129   O418    1.277   .     A
C130   N372    1.428   .     S
C130   C182    1.410   .     A
C131   O419    1.277   .     A
C131   O391    1.275   .     A
C132   O416    1.277   .     A
C132   O392    1.275   .     A
C133   O417    1.276   .     A
C133   O393    1.276   .     A
C134   O394    1.276   .     A
C134   O423    1.277   .     A
C135   O395    1.277   .     A
C135   O424    1.276   .     A
C136   O396    1.276   .     A
C136   O420    1.277   .     A
C137   O397    1.278   .     A
C137   O422    1.275   .     A
C138   O409    1.276   .     A
C138   O398    1.276   .     A
C139   O400    1.277   .     A
C139   O411    1.276   .     A
C140   O407    1.275   .     A
C140   O401    1.277   .     A
C141   C183    1.407   .     A
C141   N373    1.430   .     S
C142   O408    1.275   .     A
C142   O402    1.277   .     A
C143   O414    1.277   .     A
C143   O403    1.275   .     A
C144   O415    1.276   .     A
C144   O404    1.277   .     A
C145   O412    1.277   .     A
C145   O405    1.276   .     A
C146   O413    1.276   .     A
C146   O406    1.276   .     A
C147   C164    1.410   .     A
C148   C162    1.410   .     A
C149   C161    1.410   .     A
C150   C160    1.410   .     A
C151   C159    1.410   .     A
C152   N374    1.430   .     S
C152   C184    1.407   .     A
C153   C158    1.410   .     A
C154   C157    1.410   .     A
C155   C156    1.409   .     A
C163   N375    1.427   .     S
C165   C181    1.410   .     A
C166   C180    1.410   .     A
C167   C179    1.410   .     A
C168   C178    1.410   .     A
C169   C177    1.410   .     A
C170   C176    1.410   .     A
C171   C175    1.410   .     A
C172   C173    1.410   .     A
C174   N376    1.428   .     S
C184   C925    1.416   1_545 S
H201   N361    1.030   .     S
H204   C522    1.109   1_455 S
H205   N369    1.031   .     S
H206   C524    1.111   1_455 S
H209   C524    1.111   1_455 S
H210   N370    1.031   .     S
H212   C969    1.109   .     S
H214   N371    1.031   .     S
H217   C970    1.110   1_545 S
H218   N372    1.031   .     S
H220   C527    1.111   1_455 S
H221   C527    1.111   1_455 S
H223   N373    1.031   .     S
H227   N374    1.031   .     S
H232   N375    1.031   .     S
H235   C974    1.110   .     S
H236   N376    1.031   .     S
H240   N362    1.030   .     S
H245   N363    1.031   .     S
H249   N364    1.031   .     S
H254   N365    1.031   .     S
H258   N366    1.030   .     S
H262   N367    1.031   .     S
H267   N368    1.031   .     S
N361   C522    1.447   1_455 S
N370   C969    1.447   .     S
N371   C970    1.447   1_545 S
N375   C974    1.447   .     S
O377   Zn429   1.943   .     S
O377   Zn1324  1.944   1_545 S
O377   Zn440   1.943   .     S
O377   Zn432   1.944   .     S
O378   C1010   1.275   .     A
O378   Zn431   1.949   .     S
O379   Zn434   1.949   .     S
O380   Zn433   1.949   .     S
O381   Zn443   1.949   .     S
O382   Zn442   1.949   .     S
O383   Zn437   1.949   .     S
O384   C1016   1.274   1_545 S
O384   Zn429   1.949   .     S
O385   Zn439   1.949   .     S
O386   Zn438   1.949   .     S
O387   Zn441   1.949   .     S
O388   Zn435   1.944   .     S
O388   Zn1319  1.944   1_545 S
O388   Zn437   1.943   .     S
O388   Zn441   1.943   .     S
O389   C1016   1.273   1_545 S
O389   Zn440   1.949   .     S
O390   Zn432   1.929   .     S
O391   Zn431   1.929   .     S
O392   Zn434   1.931   .     S
O393   Zn433   1.931   .     S
O394   Zn436   1.929   .     S
O395   Zn435   1.929   .     S
O396   Zn430   1.931   .     S
O397   Zn444   1.931   .     S
O398   Zn431   1.931   .     S
O399   Zn430   1.943   .     S
O399   Zn878   1.943   1_455 S
O399   Zn438   1.944   .     S
O399   Zn442   1.944   .     S
O400   Zn432   1.931   .     S
O401   Zn444   1.929   .     S
O402   Zn430   1.929   .     S
O403   Zn435   1.930   .     S
O404   Zn436   1.930   .     S
O405   Zn433   1.930   .     S
O406   Zn434   1.930   .     S
O407   Zn883   1.929   .     S
O408   Zn438   1.929   .     S
O409   Zn1329  1.931   .     S
O410   Zn433   1.943   .     S
O410   Zn439   1.944   .     S
O410   Zn443   1.944   .     S
O410   Zn888   1.943   1_455 S
O411   Zn440   1.931   .     S
O412   Zn443   1.929   .     S
O413   Zn886   1.929   .     S
O414   Zn437   1.931   .     S
O415   Zn1317  1.931   .     S
O416   Zn882   1.931   .     S
O417   Zn439   1.931   .     S
O418   Zn429   1.929   .     S
O419   Zn1325  1.929   .     S
O420   Zn442   1.930   .     S
O421   Zn436   1.949   .     S
O421   C1009   1.276   .     S
O422   Zn887   1.930   .     S
O423   Zn1328  1.930   .     S
O424   Zn441   1.930   .     S
O425   Zn435   1.949   .     S
O426   Zn430   1.949   .     S
O426   C567    1.275   1_455 S
O427   Zn444   1.949   .     S
O427   C568    1.276   .     S
O428   Zn432   1.949   .     S
Zn429  O1303   1.931   1_545 S
Zn431  O1276   1.944   .     S
Zn434  O843    1.943   .     S
Zn436  O1265   1.944   .     S
Zn437  O1307   1.929   1_545 S
Zn438  O860    1.931   1_455 S
Zn439  O851    1.929   1_455 S
Zn440  O1311   1.930   1_545 S
Zn441  O1297   1.931   1_545 S
Zn442  O857    1.929   1_455 S
Zn443  O866    1.930   1_455 S
Zn444  O854    1.943   .     S
C445   N805    1.427   .     S
C445   C448    1.410   .     A
C446   C458    1.409   .     A
C446   N806    1.427   .     S
C446   C1432   1.403   .     A
C447   C607    1.410   .     A
C447   C550    1.404   .     A
C447   C482    1.418   .     A
C448   C551    1.405   .     A
C449   C541    1.410   .     A
C449   C553    1.404   .     A
C449   C36     1.417   1_655 S
C450   C554    1.404   .     A
C450   C481    1.417   .     A
C450   C552    1.411   .     A
C451   C563    1.410   .     A
C451   C555    1.405   .     A
C451   C1370   1.419   1_545 S
C452   C479    1.410   .     A
C452   C556    1.404   .     A
C452   C1371   1.417   .     S
C453   C490    1.410   .     A
C453   C557    1.404   .     A
C453   C484    1.418   .     A
C454   C485    1.418   .     A
C454   C558    1.404   .     A
C454   C501    1.410   .     A
C455   C559    1.404   .     A
C455   C512    1.410   .     A
C455   C42     1.418   1_655 S
C456   C618    1.410   .     A
C456   C560    1.404   .     A
C456   C483    1.418   .     A
C457   N807    1.428   .     S
C457   C459    1.410   .     A
C457   C101    1.403   1_655 S
C458   C561    1.404   .     A
C458   C1372   1.418   .     S
C459   C562    1.404   .     A
C459   C41     1.418   1_655 S
C460   C564    1.404   .     A
C460   C468    1.410   .     A
C460   C486    1.418   .     A
C461   C608    1.414   .     A
C461   C610    1.413   .     A
C461   C580    1.453   .     S
C462   C581    1.453   .     S
C462   C609    1.415   .     A
C462   C606    1.413   .     A
C463   C573    1.452   .     S
C463   C605    1.413   .     A
C463   C612    1.414   .     A
C464   C604    1.413   .     A
C464   C611    1.414   .     A
C464   C575    1.452   .     S
C465   C614    1.414   .     A
C465   C603    1.413   .     A
C465   C576    1.453   .     S
C466   C577    1.453   .     S
C466   C602    1.414   .     A
C466   C613    1.413   .     A
C467   C578    1.451   .     S
C467   C601    1.414   .     A
C467   C616    1.413   .     A
C468   C546    1.403   .     A
C468   N808    1.427   .     S
C469   C615    1.413   .     A
C469   C600    1.414   .     A
C469   C579    1.452   .     S
C470   C599    1.413   .     A
C470   C589    1.451   .     S
C470   C619    1.414   .     A
C471   C598    1.413   .     A
C471   C590    1.452   .     S
C471   C617    1.414   .     A
C472   C597    1.413   .     A
C472   C621    1.414   .     A
C472   C582    1.453   .     S
C473   C583    1.453   .     S
C473   C595    1.414   .     A
C473   C620    1.413   .     A
C474   C594    1.414   .     A
C474   C623    1.413   .     A
C474   C584    1.452   .     S
C475   C593    1.414   .     A
C475   C622    1.413   .     A
C475   C586    1.452   .     S
C476   C625    1.413   .     A
C476   C592    1.414   .     A
C476   C587    1.453   .     S
C477   C591    1.413   .     A
C477   C588    1.453   .     S
C477   C624    1.414   .     A
C478   C626    1.418   .     A
C478   C4      1.418   1_655 S
C478   C36     1.416   1_655 S
C479   N809    1.427   .     S
C479   C1431   1.405   .     S
C480   C627    1.416   .     A
C481   C482    1.417   .     A
C481   C1516   1.416   .     S
C482   C1339   1.419   .     S
C483   C1340   1.417   1_545 S
C483   C484    1.416   1_556 S
C484   C1346   1.418   1_545 S
C484   C483    1.416   1_554 S
C485   C486    1.417   1_556 S
C486   C485    1.417   1_554 S
C487   H715    1.111   .     S
C487   H716    1.105   .     S
C487   H707    1.110   .     S
C487   C591    1.522   .     S
C488   H718    1.107   .     S
C488   H719    1.110   .     S
C488   H720    1.110   .     S
C488   C592    1.521   .     S
C489   H721    1.107   .     S
C489   H723    1.110   .     S
C489   H722    1.110   .     S
C489   C593    1.521   .     S
C490   N810    1.428   .     S
C490   C544    1.403   .     S
C491   C594    1.521   .     S
C491   H724    1.107   .     S
C491   H725    1.110   .     S
C491   H726    1.110   .     S
C492   H729    1.110   .     S
C492   C595    1.521   .     S
C492   H730    1.110   .     S
C492   H727    1.107   .     S
C493   C597    1.521   .     S
C493   H732    1.110   .     S
C493   H733    1.105   .     S
C493   H731    1.109   .     S
C494   H735    1.110   .     S
C494   H736    1.105   .     S
C494   H734    1.109   .     S
C494   C598    1.522   .     S
C495   C599    1.523   .     S
C495   H740    1.110   .     S
C495   H738    1.105   .     S
C495   H737    1.111   .     S
C496   H743    1.110   .     S
C496   H742    1.110   .     S
C496   H741    1.107   .     S
C496   C600    1.521   .     S
C497   H746    1.110   .     S
C497   H745    1.110   .     S
C497   H744    1.107   .     S
C497   C601    1.521   .     S
C498   H747    1.107   .     S
C498   H749    1.110   .     S
C498   H748    1.110   .     S
C498   C602    1.521   .     S
C499   H751    1.110   .     S
C499   C603    1.522   .     S
C499   H753    1.110   .     S
C499   H752    1.105   .     S
C500   H754    1.111   .     S
C500   H756    1.105   .     S
C500   C604    1.523   .     S
C500   H755    1.110   .     S
C501   C545    1.403   .     A
C501   N811    1.427   .     S
C502   H757    1.110   .     S
C502   H758    1.105   .     S
C502   C605    1.523   .     S
C502   H759    1.110   .     S
C503   C606    1.522   .     S
C503   H762    1.105   .     S
C503   H763    1.110   .     S
C503   H760    1.110   .     S
C504   C608    1.520   .     S
C504   H765    1.110   .     S
C504   H764    1.107   .     S
C504   H766    1.110   .     S
C505   H769    1.110   .     S
C505   H768    1.110   .     S
C505   H767    1.107   .     S
C505   C609    1.521   .     S
C506   H771    1.105   .     S
C506   C610    1.522   .     S
C506   H770    1.110   .     S
C506   H773    1.111   .     S
C507   H775    1.110   .     S
C507   H776    1.110   .     S
C507   C611    1.521   .     S
C507   H774    1.107   .     S
C508   H778    1.110   .     S
C508   H777    1.107   .     S
C508   C612    1.521   .     S
C508   H779    1.110   .     S
C509   H781    1.105   .     S
C509   H780    1.109   .     S
C509   C613    1.521   .     S
C509   H782    1.110   .     S
C510   H786    1.110   .     S
C510   H784    1.107   .     S
C510   H785    1.110   .     S
C510   C614    1.521   .     S
C511   H789    1.105   .     S
C511   H787    1.110   .     S
C511   C615    1.522   .     S
C511   H788    1.110   .     S
C512   N812    1.427   .     S
C512   C102    1.404   1_655 S
C513   C616    1.522   .     S
C513   H790    1.110   .     S
C513   H792    1.110   .     S
C513   H791    1.105   .     S
C514   H795    1.110   .     S
C514   H793    1.107   .     S
C514   H796    1.110   .     S
C514   C617    1.521   .     S
C515   C619    1.521   .     S
C515   H799    1.110   .     S
C515   H798    1.110   .     S
C515   H797    1.107   .     S
C516   H800    1.111   .     S
C516   H801    1.110   .     S
C516   H802    1.105   .     S
C516   C620    1.523   .     S
C517   H804    1.110   .     S
C517   H631    1.110   .     S
C517   C621    1.521   .     S
C517   H803    1.107   .     S
C518   H634    1.105   .     S
C518   C622    1.523   .     S
C518   H632    1.110   .     S
C518   H633    1.110   .     S
C519   C623    1.523   .     S
C519   H635    1.111   .     S
C519   H637    1.110   .     S
C519   H636    1.105   .     S
C520   H640    1.110   .     S
C520   H638    1.107   .     S
C520   H639    1.110   .     S
C520   C624    1.520   .     S
C521   C625    1.523   .     S
C521   H642    1.110   .     S
C521   H643    1.111   .     S
C521   H644    1.105   .     S
C522   H647    1.111   .     S
C522   H646    1.111   .     S
C522   H204    1.109   1_655 S
C522   N361    1.447   1_655 S
C523   C574    1.404   .     A
C523   C567    1.454   .     S
C523   C1      1.403   1_655 S
C524   N813    1.447   .     S
C524   H651    1.109   .     S
C524   H206    1.111   1_655 S
C524   H209    1.111   1_655 S
C525   H655    1.111   .     S
C525   H657    1.111   .     S
C525   H1544   1.109   1_545 S
C525   N1702   1.447   1_545 S
C526   H659    1.111   .     S
C526   H660    1.111   .     S
C526   H1549   1.110   .     S
C526   N1703   1.447   .     S
C527   N816    1.447   .     S
C527   H666    1.110   .     S
C527   H220    1.111   1_655 S
C527   H221    1.111   1_655 S
C528   H669    1.110   .     S
C528   N817    1.448   .     S
C528   H668    1.110   .     S
C528   H670    1.110   .     S
C529   N818    1.448   .     S
C529   H673    1.110   .     S
C529   H672    1.110   .     S
C529   H675    1.110   .     S
C530   H678    1.111   .     S
C530   H677    1.111   .     S
C530   H1567   1.110   1_545 S
C530   N1707   1.447   1_545 S
C531   H682    1.110   .     S
C531   H683    1.110   .     S
C531   H681    1.110   .     S
C531   N820    1.448   .     S
C532   H687    1.109   .     S
C532   N806    1.447   .     S
C532   H686    1.111   .     S
C532   H688    1.111   .     S
C533   N807    1.447   .     S
C533   H691    1.110   .     S
C533   H690    1.111   .     S
C533   H692    1.111   .     S
C534   C585    1.409   .     A
C534   C568    1.455   .     S
C535   H694    1.111   .     S
C535   N808    1.447   .     S
C535   H697    1.109   .     S
C535   H695    1.111   .     S
C536   H699    1.110   .     S
C536   H701    1.110   .     S
C536   N809    1.448   .     S
C536   H700    1.110   .     S
C537   H703    1.111   .     S
C537   N810    1.447   .     S
C537   H705    1.111   .     S
C537   H704    1.110   .     S
C538   H708    1.111   .     S
C538   N811    1.447   .     S
C538   H709    1.109   .     S
C538   H710    1.111   .     S
C539   H714    1.109   .     S
C539   H713    1.110   .     S
C539   N812    1.446   .     S
C539   H712    1.111   .     S
C540   C565    1.455   .     S
C540   C596    1.409   .     A
C540   C1440   1.405   1_545 S
C541   N813    1.428   .     S
C541   C90     1.405   1_655 S
C542   C1454   1.454   .     S
C542   C607    1.403   .     A
C542   C1451   1.404   .     S
C543   C618    1.405   .     A
C543   C571    1.456   .     S
C543   C1367   1.405   1_545 S
C544   C1460   1.454   1_545 S
C544   C1334   1.403   1_545 A
C545   C569    1.454   .     S
C546   C570    1.455   .     S
C547   H629    1.081   .     S
C547   C553    1.387   .     A
C547   C626    1.404   .     A
C548   C627    1.403   .     A
C548   C551    1.386   .     A
C548   H717    1.083   .     S
C549   C628    1.403   .     A
C549   C555    1.387   .     A
C549   H728    1.082   .     S
C550   H739    1.081   .     S
C550   C554    1.387   .     A
C551   H750    1.081   .     S
C552   N814    1.428   .     S
C552   C1428   1.405   .     S
C553   H761    1.081   .     S
C554   H772    1.081   .     S
C555   H783    1.081   .     S
C556   H794    1.081   .     S
C556   C561    1.386   1_556 S
C557   H630    1.081   .     S
C557   C560    1.386   1_554 S
C558   H641    1.081   .     S
C558   C564    1.387   1_556 S
C559   H652    1.081   .     S
C559   C562    1.387   1_554 S
C560   H663    1.081   .     S
C560   C557    1.386   1_556 S
C561   H674    1.081   .     S
C561   C556    1.386   1_554 S
C562   H685    1.081   .     S
C562   C559    1.387   1_556 S
C563   N815    1.428   .     S
C563   C1430   1.404   1_545 S
C564   H696    1.081   .     S
C564   C558    1.387   1_554 S
C565   O872    1.274   .     A
C565   O1753   1.276   1_545 S
C566   O1710   1.275   1_545 A
C566   C1430   1.454   1_545 S
C566   O869    1.275   .     S
C567   O823    1.273   .     A
C567   O426    1.275   1_655 S
C568   O824    1.273   .     A
C569   O825    1.274   .     A
C569   O829    1.275   .     A
C570   O826    1.275   .     S
C570   O830    1.275   .     S
C571   O827    1.275   .     S
C571   O831    1.275   .     S
C572   C1432   1.454   .     S
C572   O1716   1.274   .     S
C572   O1721   1.273   .     S
C573   O834    1.275   .     A
C573   O862    1.277   .     A
C574   N816    1.428   .     S
C574   C626    1.410   .     A
C575   O863    1.277   .     A
C575   O835    1.275   .     A
C576   O860    1.277   .     A
C576   O836    1.275   .     A
C577   O861    1.276   .     A
C577   O837    1.276   .     A
C578   O838    1.276   .     A
C578   O867    1.277   .     A
C579   O839    1.277   .     A
C579   O868    1.276   .     A
C580   O840    1.276   .     A
C580   O864    1.277   .     A
C581   O841    1.278   .     A
C581   O866    1.275   .     A
C582   O853    1.276   .     A
C582   O842    1.276   .     A
C583   O844    1.277   .     A
C583   O855    1.276   .     A
C584   O851    1.275   .     A
C584   O845    1.277   .     A
C585   C627    1.407   .     A
C585   N817    1.430   .     S
C586   O852    1.275   .     A
C586   O846    1.277   .     A
C587   O858    1.277   .     A
C587   O847    1.275   .     A
C588   O859    1.276   .     A
C588   O848    1.277   .     A
C589   O856    1.277   .     A
C589   O849    1.276   .     A
C590   O857    1.276   .     A
C590   O850    1.276   .     A
C591   C608    1.410   .     A
C592   C606    1.410   .     A
C593   C605    1.410   .     A
C594   C604    1.410   .     A
C595   C603    1.410   .     A
C596   N818    1.430   .     S
C596   C628    1.407   .     A
C597   C602    1.410   .     A
C598   C601    1.410   .     A
C599   C600    1.409   .     A
C607   N819    1.427   .     S
C609   C625    1.410   .     A
C610   C624    1.410   .     A
C611   C623    1.410   .     A
C612   C622    1.410   .     A
C613   C621    1.410   .     A
C614   C620    1.410   .     A
C615   C619    1.410   .     A
C616   C617    1.410   .     A
C618   N820    1.428   .     S
C628   C1369   1.416   1_545 S
H645   N805    1.030   .     S
H649   N813    1.031   .     S
H654   N814    1.031   .     S
H656   C1413   1.109   .     S
H658   N815    1.031   .     S
H661   C1414   1.110   1_545 S
H662   N816    1.031   .     S
H667   N817    1.031   .     S
H671   N818    1.031   .     S
H676   N819    1.031   .     S
H679   C1418   1.110   .     S
H680   N820    1.031   .     S
H684   N806    1.030   .     S
H689   N807    1.031   .     S
H693   N808    1.031   .     S
H698   N809    1.031   .     S
H702   N810    1.030   .     S
H706   N811    1.031   .     S
H711   N812    1.031   .     S
N814   C1413   1.447   .     S
N815   C1414   1.447   1_545 S
N819   C1418   1.447   .     S
O821   Zn873   1.943   .     S
O821   Zn1768  1.944   1_545 S
O821   Zn884   1.943   .     S
O821   Zn876   1.944   .     S
O822   C1454   1.275   .     A
O822   Zn875   1.949   .     S
O823   Zn878   1.949   .     S
O824   Zn877   1.949   .     S
O825   Zn887   1.949   .     S
O826   Zn886   1.949   .     S
O827   Zn881   1.949   .     S
O828   C1460   1.274   1_545 S
O828   Zn873   1.949   .     S
O829   Zn883   1.949   .     S
O830   Zn882   1.949   .     S
O831   Zn885   1.949   .     S
O832   Zn879   1.944   .     S
O832   Zn1763  1.944   1_545 S
O832   Zn881   1.943   .     S
O832   Zn885   1.943   .     S
O833   C1460   1.273   1_545 S
O833   Zn884   1.949   .     S
O834   Zn876   1.929   .     S
O835   Zn875   1.929   .     S
O836   Zn878   1.931   .     S
O837   Zn877   1.931   .     S
O838   Zn880   1.929   .     S
O839   Zn879   1.929   .     S
O840   Zn874   1.931   .     S
O841   Zn888   1.931   .     S
O842   Zn875   1.931   .     S
O843   Zn874   1.943   .     S
O843   Zn882   1.944   .     S
O843   Zn886   1.944   .     S
O844   Zn876   1.931   .     S
O845   Zn888   1.929   .     S
O846   Zn874   1.929   .     S
O847   Zn879   1.930   .     S
O848   Zn880   1.930   .     S
O849   Zn877   1.930   .     S
O850   Zn878   1.930   .     S
O851   Zn439   1.929   1_655 S
O852   Zn882   1.929   .     S
O853   Zn1773  1.931   .     S
O854   Zn877   1.943   .     S
O854   Zn883   1.944   .     S
O854   Zn887   1.944   .     S
O855   Zn884   1.931   .     S
O856   Zn887   1.929   .     S
O857   Zn442   1.929   1_655 S
O858   Zn881   1.931   .     S
O859   Zn1761  1.931   .     S
O860   Zn438   1.931   1_655 S
O861   Zn883   1.931   .     S
O862   Zn873   1.929   .     S
O863   Zn1769  1.929   .     S
O864   Zn886   1.930   .     S
O865   Zn880   1.949   .     S
O865   C1453   1.276   .     S
O866   Zn443   1.930   1_655 S
O867   Zn1772  1.930   .     S
O868   Zn885   1.930   .     S
O869   Zn879   1.949   .     S
O870   Zn874   1.949   .     S
O871   Zn888   1.949   .     S
O871   C124    1.276   1_655 S
O872   Zn876   1.949   .     S
Zn873  O1747   1.931   1_545 S
Zn875  O1720   1.944   .     S
Zn878  O399    1.943   1_655 S
Zn880  O1709   1.944   .     S
Zn881  O1751   1.929   1_545 S
Zn884  O1755   1.930   1_545 S
Zn885  O1741   1.931   1_545 S
Zn888  O410    1.943   1_655 S
C889   N1249   1.427   .     S
C889   C892    1.410   .     A
C889   C1411   1.403   1_455 S
C890   C902    1.409   .     A
C890   N1250   1.427   .     S
C890   C100    1.403   1_565 A
C891   C1051   1.410   .     A
C891   C994    1.404   .     A
C891   C926    1.418   .     A
C892   C995    1.405   .     A
C892   C1366   1.418   1_455 S
C893   C985    1.410   .     A
C893   C997    1.404   .     A
C893   C1368   1.417   .     S
C894   C998    1.404   .     A
C894   C925    1.417   .     A
C894   C996    1.411   .     A
C895   C1007   1.410   .     A
C895   C999    1.405   .     A
C896   C923    1.410   .     A
C896   C1000   1.404   .     A
C896   C39     1.417   1_565 S
C897   C934    1.410   .     A
C897   C1001   1.404   .     A
C897   C928    1.418   .     A
C898   C929    1.418   .     A
C898   C1002   1.404   .     A
C898   C945    1.410   .     A
C899   C1003   1.404   .     A
C899   C956    1.410   .     A
C899   C1374   1.418   .     S
C900   C1062   1.410   .     A
C900   C1004   1.404   .     A
C900   C927    1.418   .     A
C901   N1251   1.428   .     S
C901   C903    1.410   .     A
C901   C1433   1.403   .     S
C902   C1005   1.404   .     A
C902   C40     1.418   1_565 S
C903   C1006   1.404   .     A
C903   C1373   1.418   .     S
C904   C1008   1.404   .     A
C904   C912    1.410   .     A
C904   C930    1.418   .     A
C905   C1052   1.414   .     A
C905   C1054   1.413   .     A
C905   C1024   1.453   .     S
C906   C1025   1.453   .     S
C906   C1053   1.415   .     A
C906   C1050   1.413   .     A
C907   C1017   1.452   .     S
C907   C1049   1.413   .     A
C907   C1056   1.414   .     A
C908   C1048   1.413   .     A
C908   C1055   1.414   .     A
C908   C1019   1.452   .     S
C909   C1058   1.414   .     A
C909   C1047   1.413   .     A
C909   C1020   1.453   .     S
C910   C1021   1.453   .     S
C910   C1046   1.414   .     A
C910   C1057   1.413   .     A
C911   C1022   1.451   .     S
C911   C1045   1.414   .     A
C911   C1060   1.413   .     A
C912   C990    1.403   .     A
C912   N1252   1.427   .     S
C913   C1059   1.413   .     A
C913   C1044   1.414   .     A
C913   C1023   1.452   .     S
C914   C1043   1.413   .     A
C914   C1033   1.451   .     S
C914   C1063   1.414   .     A
C915   C1042   1.413   .     A
C915   C1034   1.452   .     S
C915   C1061   1.414   .     A
C916   C1041   1.413   .     A
C916   C1065   1.414   .     A
C916   C1026   1.453   .     S
C917   C1027   1.453   .     S
C917   C1039   1.414   .     A
C917   C1064   1.413   .     A
C918   C1038   1.414   .     A
C918   C1067   1.413   .     A
C918   C1028   1.452   .     S
C919   C1037   1.414   .     A
C919   C1066   1.413   .     A
C919   C1030   1.452   .     S
C920   C1069   1.413   .     A
C920   C1036   1.414   .     A
C920   C1031   1.453   .     S
C921   C1035   1.413   .     A
C921   C1032   1.453   .     S
C921   C1068   1.414   .     A
C922   C1070   1.418   .     A
C922   C1336   1.418   .     S
C922   C1368   1.416   .     S
C923   N1253   1.427   .     S
C923   C99     1.405   1_565 S
C924   C1071   1.416   .     A
C924   C1337   1.417   1_455 S
C924   C1366   1.416   1_455 S
C925   C926    1.417   .     A
C925   C184    1.416   1_565 S
C926   C7      1.419   1_565 S
C927   C928    1.416   1_556 S
C928   C927    1.416   1_554 S
C929   C1347   1.418   1_455 S
C929   C930    1.417   1_556 S
C930   C1343   1.418   1_455 S
C930   C929    1.417   1_554 S
C931   H1159   1.111   .     S
C931   H1160   1.105   .     S
C931   H1151   1.110   .     S
C931   C1035   1.522   .     S
C932   H1162   1.107   .     S
C932   H1163   1.110   .     S
C932   H1164   1.110   .     S
C932   C1036   1.521   .     S
C933   H1165   1.107   .     S
C933   H1167   1.110   .     S
C933   H1166   1.110   .     S
C933   C1037   1.521   .     S
C934   N1254   1.428   .     S
C934   C988    1.403   .     S
C935   C1038   1.521   .     S
C935   H1168   1.107   .     S
C935   H1169   1.110   .     S
C935   H1170   1.110   .     S
C936   H1173   1.110   .     S
C936   C1039   1.521   .     S
C936   H1174   1.110   .     S
C936   H1171   1.107   .     S
C937   C1041   1.521   .     S
C937   H1176   1.110   .     S
C937   H1177   1.105   .     S
C937   H1175   1.109   .     S
C938   H1179   1.110   .     S
C938   H1180   1.105   .     S
C938   H1178   1.109   .     S
C938   C1042   1.522   .     S
C939   C1043   1.523   .     S
C939   H1184   1.110   .     S
C939   H1182   1.105   .     S
C939   H1181   1.111   .     S
C940   H1187   1.110   .     S
C940   H1186   1.110   .     S
C940   H1185   1.107   .     S
C940   C1044   1.521   .     S
C941   H1190   1.110   .     S
C941   H1189   1.110   .     S
C941   H1188   1.107   .     S
C941   C1045   1.521   .     S
C942   H1191   1.107   .     S
C942   H1193   1.110   .     S
C942   H1192   1.110   .     S
C942   C1046   1.521   .     S
C943   H1195   1.110   .     S
C943   C1047   1.522   .     S
C943   H1197   1.110   .     S
C943   H1196   1.105   .     S
C944   H1198   1.111   .     S
C944   H1200   1.105   .     S
C944   C1048   1.523   .     S
C944   H1199   1.110   .     S
C945   C989    1.403   .     A
C945   N1255   1.427   .     S
C946   H1201   1.110   .     S
C946   H1202   1.105   .     S
C946   C1049   1.523   .     S
C946   H1203   1.110   .     S
C947   C1050   1.522   .     S
C947   H1206   1.105   .     S
C947   H1207   1.110   .     S
C947   H1204   1.110   .     S
C948   C1052   1.520   .     S
C948   H1209   1.110   .     S
C948   H1208   1.107   .     S
C948   H1210   1.110   .     S
C949   H1213   1.110   .     S
C949   H1212   1.110   .     S
C949   H1211   1.107   .     S
C949   C1053   1.521   .     S
C950   H1215   1.105   .     S
C950   C1054   1.522   .     S
C950   H1214   1.110   .     S
C950   H1217   1.111   .     S
C951   H1219   1.110   .     S
C951   H1220   1.110   .     S
C951   C1055   1.521   .     S
C951   H1218   1.107   .     S
C952   H1222   1.110   .     S
C952   H1221   1.107   .     S
C952   C1056   1.521   .     S
C952   H1223   1.110   .     S
C953   H1225   1.105   .     S
C953   H1224   1.109   .     S
C953   C1057   1.521   .     S
C953   H1226   1.110   .     S
C954   H1230   1.110   .     S
C954   H1228   1.107   .     S
C954   H1229   1.110   .     S
C954   C1058   1.521   .     S
C955   H1233   1.105   .     S
C955   H1231   1.110   .     S
C955   C1059   1.522   .     S
C955   H1232   1.110   .     S
C956   N1256   1.427   .     S
C956   C1434   1.404   .     S
C957   C1060   1.522   .     S
C957   H1234   1.110   .     S
C957   H1236   1.110   .     S
C957   H1235   1.105   .     S
C958   H1239   1.110   .     S
C958   H1237   1.107   .     S
C958   H1240   1.110   .     S
C958   C1061   1.521   .     S
C959   C1063   1.521   .     S
C959   H1243   1.110   .     S
C959   H1242   1.110   .     S
C959   H1241   1.107   .     S
C960   H1244   1.111   .     S
C960   H1245   1.110   .     S
C960   H1246   1.105   .     S
C960   C1064   1.523   .     S
C961   H1248   1.110   .     S
C961   H1075   1.110   .     S
C961   C1065   1.521   .     S
C961   H1247   1.107   .     S
C962   H1078   1.105   .     S
C962   C1066   1.523   .     S
C962   H1076   1.110   .     S
C962   H1077   1.110   .     S
C963   C1067   1.523   .     S
C963   H1079   1.111   .     S
C963   H1081   1.110   .     S
C963   H1080   1.105   .     S
C964   H1084   1.110   .     S
C964   H1082   1.107   .     S
C964   H1083   1.110   .     S
C964   C1068   1.520   .     S
C965   C1069   1.523   .     S
C965   H1086   1.110   .     S
C965   H1087   1.111   .     S
C965   H1088   1.105   .     S
C966   H1091   1.111   .     S
C966   H1090   1.111   .     S
C966   H1536   1.109   .     S
C966   N1693   1.447   .     S
C967   C1018   1.404   .     A
C967   C1011   1.454   .     S
C967   C1333   1.403   .     S
C968   N1257   1.447   .     S
C968   H1095   1.109   .     S
C968   H1538   1.111   .     S
C968   H1541   1.111   .     S
C969   H1099   1.111   .     S
C969   H1101   1.111   .     S
C970   H1103   1.111   .     S
C970   H1104   1.111   .     S
C970   H217    1.110   1_565 S
C970   N371    1.447   1_565 S
C971   N1260   1.447   .     S
C971   H1110   1.110   .     S
C971   H1552   1.111   .     S
C971   H1553   1.111   .     S
C972   H1113   1.110   .     S
C972   N1261   1.448   .     S
C972   H1112   1.110   .     S
C972   H1114   1.110   .     S
C973   N1262   1.448   .     S
C973   H1117   1.110   .     S
C973   H1116   1.110   .     S
C973   H1119   1.110   .     S
C974   H1122   1.111   .     S
C974   H1121   1.111   .     S
C975   H1126   1.110   .     S
C975   H1127   1.110   .     S
C975   H1125   1.110   .     S
C975   N1264   1.448   .     S
C976   H1131   1.109   .     S
C976   N1250   1.447   .     S
C976   H1130   1.111   .     S
C976   H1132   1.111   .     S
C977   N1251   1.447   .     S
C977   H1135   1.110   .     S
C977   H1134   1.111   .     S
C977   H1136   1.111   .     S
C978   C1029   1.409   .     A
C978   C1012   1.455   .     S
C978   C1429   1.405   1_455 S
C979   H1138   1.111   .     S
C979   N1252   1.447   .     S
C979   H1141   1.109   .     S
C979   H1139   1.111   .     S
C980   H1143   1.110   .     S
C980   H1145   1.110   .     S
C980   N1253   1.448   .     S
C980   H1144   1.110   .     S
C981   H1147   1.111   .     S
C981   N1254   1.447   .     S
C981   H1149   1.111   .     S
C981   H1148   1.110   .     S
C982   H1152   1.111   .     S
C982   N1255   1.447   .     S
C982   H1153   1.109   .     S
C982   H1154   1.111   .     S
C983   H1158   1.109   .     S
C983   H1157   1.110   .     S
C983   N1256   1.446   .     S
C983   H1156   1.111   .     S
C984   C1009   1.455   .     S
C984   C1040   1.409   .     A
C985   N1257   1.428   .     S
C985   C1422   1.405   .     S
C986   C122    1.454   1_565 S
C986   C1051   1.403   .     A
C986   C119    1.404   1_565 S
C987   C1062   1.405   .     A
C987   C1015   1.456   .     S
C989   C1013   1.454   .     S
C989   C1345   1.403   1_455 S
C990   C1014   1.455   .     S
C990   C1400   1.404   1_455 S
C991   H1073   1.081   .     S
C991   C997    1.387   .     A
C991   C1070   1.404   .     A
C992   C1071   1.403   .     A
C992   C995    1.386   .     A
C992   H1161   1.083   .     S
C993   C1072   1.403   .     A
C993   C999    1.387   .     A
C993   H1172   1.082   .     S
C994   H1183   1.081   .     S
C994   C998    1.387   .     A
C995   H1194   1.081   .     S
C996   N1258   1.428   .     S
C996   C96     1.405   1_565 S
C997   H1205   1.081   .     S
C998   H1216   1.081   .     S
C999   H1227   1.081   .     S
C1000  H1238   1.081   .     S
C1000  C1005   1.386   1_556 S
C1001  H1074   1.081   .     S
C1001  C1004   1.386   1_554 S
C1002  H1085   1.081   .     S
C1002  C1008   1.387   1_556 S
C1003  H1096   1.081   .     S
C1003  C1006   1.387   1_554 S
C1004  H1107   1.081   .     S
C1004  C1001   1.386   1_556 S
C1005  H1118   1.081   .     S
C1005  C1000   1.386   1_554 S
C1006  H1129   1.081   .     S
C1006  C1003   1.387   1_556 S
C1007  N1259   1.428   .     S
C1008  H1140   1.081   .     S
C1008  C1002   1.387   1_554 S
C1009  O1316   1.274   .     A
C1010  O1313   1.275   .     S
C1011  O1267   1.273   .     A
C1011  O1758   1.275   .     S
C1012  O1268   1.273   .     A
C1012  O1759   1.276   1_455 S
C1013  O1269   1.274   .     A
C1013  O1273   1.275   .     A
C1014  O1270   1.275   .     S
C1014  O1274   1.275   .     S
C1015  O1271   1.275   .     S
C1015  O1275   1.275   .     S
C1016  C100    1.454   1_565 S
C1016  O384    1.274   1_565 S
C1016  O389    1.273   1_565 S
C1017  O1278   1.275   .     A
C1017  O1306   1.277   .     A
C1018  N1260   1.428   .     S
C1018  C1070   1.410   .     A
C1019  O1307   1.277   .     A
C1019  O1279   1.275   .     A
C1020  O1304   1.277   .     A
C1020  O1280   1.275   .     A
C1021  O1305   1.276   .     A
C1021  O1281   1.276   .     A
C1022  O1282   1.276   .     A
C1022  O1311   1.277   .     A
C1023  O1283   1.277   .     A
C1023  O1312   1.276   .     A
C1024  O1284   1.276   .     A
C1024  O1308   1.277   .     A
C1025  O1285   1.278   .     A
C1025  O1310   1.275   .     A
C1026  O1297   1.276   .     A
C1026  O1286   1.276   .     A
C1027  O1288   1.277   .     A
C1027  O1299   1.276   .     A
C1028  O1295   1.275   .     A
C1028  O1289   1.277   .     A
C1029  C1071   1.407   .     A
C1029  N1261   1.430   .     S
C1030  O1296   1.275   .     A
C1030  O1290   1.277   .     A
C1031  O1302   1.277   .     A
C1031  O1291   1.275   .     A
C1032  O1303   1.276   .     A
C1032  O1292   1.277   .     A
C1033  O1300   1.277   .     A
C1033  O1293   1.276   .     A
C1034  O1301   1.276   .     A
C1034  O1294   1.276   .     A
C1035  C1052   1.410   .     A
C1036  C1050   1.410   .     A
C1037  C1049   1.410   .     A
C1038  C1048   1.410   .     A
C1039  C1047   1.410   .     A
C1040  N1262   1.430   .     S
C1040  C1072   1.407   .     A
C1041  C1046   1.410   .     A
C1042  C1045   1.410   .     A
C1043  C1044   1.409   .     A
C1051  N1263   1.427   .     S
C1053  C1069   1.410   .     A
C1054  C1068   1.410   .     A
C1055  C1067   1.410   .     A
C1056  C1066   1.410   .     A
C1057  C1065   1.410   .     A
C1058  C1064   1.410   .     A
C1059  C1063   1.410   .     A
C1060  C1061   1.410   .     A
C1062  N1264   1.428   .     S
H1089  N1249   1.030   .     S
H1092  C1410   1.109   1_455 S
H1093  N1257   1.031   .     S
H1094  C1412   1.111   1_455 S
H1097  C1412   1.111   1_455 S
H1098  N1258   1.031   .     S
H1100  C81     1.109   1_565 S
H1102  N1259   1.031   .     S
H1106  N1260   1.031   .     S
H1108  C1415   1.111   1_455 S
H1109  C1415   1.111   1_455 S
H1111  N1261   1.031   .     S
H1115  N1262   1.031   .     S
H1120  N1263   1.031   .     S
H1123  C86     1.110   1_565 S
H1124  N1264   1.031   .     S
H1128  N1250   1.030   .     S
H1133  N1251   1.031   .     S
H1137  N1252   1.031   .     S
H1142  N1253   1.031   .     S
H1146  N1254   1.030   .     S
H1150  N1255   1.031   .     S
H1155  N1256   1.031   .     S
N1249  C1410   1.447   1_455 S
N1258  C81     1.447   1_565 S
N1263  C86     1.447   1_565 S
O1265  Zn1317  1.943   .     S
O1265  Zn1328  1.943   .     S
O1265  Zn1320  1.944   .     S
O1266  C122    1.275   1_565 A
O1266  Zn1319  1.949   .     S
O1267  Zn1322  1.949   .     S
O1268  Zn1321  1.949   .     S
O1269  Zn1331  1.949   .     S
O1270  Zn1330  1.949   .     S
O1271  Zn1325  1.949   .     S
O1272  Zn1317  1.949   .     S
O1273  Zn1327  1.949   .     S
O1274  Zn1326  1.949   .     S
O1275  Zn1329  1.949   .     S
O1276  Zn1323  1.944   .     S
O1276  Zn1325  1.943   .     S
O1276  Zn1329  1.943   .     S
O1277  Zn1328  1.949   .     S
O1278  Zn1320  1.929   .     S
O1279  Zn1319  1.929   .     S
O1280  Zn1322  1.931   .     S
O1281  Zn1321  1.931   .     S
O1282  Zn1324  1.929   .     S
O1283  Zn1323  1.929   .     S
O1284  Zn1318  1.931   .     S
O1285  Zn1332  1.931   .     S
O1286  Zn1319  1.931   .     S
O1287  Zn1318  1.943   .     S
O1287  Zn1766  1.943   1_455 S
O1287  Zn1326  1.944   .     S
O1287  Zn1330  1.944   .     S
O1288  Zn1320  1.931   .     S
O1289  Zn1332  1.929   .     S
O1290  Zn1318  1.929   .     S
O1291  Zn1323  1.930   .     S
O1292  Zn1324  1.930   .     S
O1293  Zn1321  1.930   .     S
O1294  Zn1322  1.930   .     S
O1295  Zn1771  1.929   .     S
O1296  Zn1326  1.929   .     S
O1297  Zn441   1.931   1_565 S
O1298  Zn1321  1.943   .     S
O1298  Zn1327  1.944   .     S
O1298  Zn1331  1.944   .     S
O1298  Zn1776  1.943   1_455 S
O1299  Zn1328  1.931   .     S
O1300  Zn1331  1.929   .     S
O1301  Zn1774  1.929   .     S
O1302  Zn1325  1.931   .     S
O1303  Zn429   1.931   1_565 S
O1304  Zn1770  1.931   .     S
O1305  Zn1327  1.931   .     S
O1306  Zn1317  1.929   .     S
O1307  Zn437   1.929   1_565 S
O1308  Zn1330  1.930   .     S
O1309  Zn1324  1.949   .     S
O1309  C121    1.276   1_565 S
O1310  Zn1775  1.930   .     S
O1311  Zn440   1.930   1_565 S
O1312  Zn1329  1.930   .     S
O1313  Zn1323  1.949   .     S
O1314  Zn1318  1.949   .     S
O1314  C1455   1.275   1_455 S
O1315  Zn1332  1.949   .     S
O1315  C1456   1.276   .     S
O1316  Zn1320  1.949   .     S
Zn1319 O388    1.944   1_565 S
Zn1322 O1731   1.943   .     S
Zn1324 O377    1.944   1_565 S
Zn1326 O1748   1.931   1_455 S
Zn1327 O1739   1.929   1_455 S
Zn1330 O1745   1.929   1_455 S
Zn1331 O1754   1.930   1_455 S
Zn1332 O1742   1.943   .     S
C1333  N1693   1.427   .     S
C1333  C1336   1.410   .     A
C1334  C1346   1.409   .     A
C1334  N1694   1.427   .     S
C1334  C544    1.403   1_565 A
C1335  C1495   1.410   .     A
C1335  C1438   1.404   .     A
C1335  C1370   1.418   .     A
C1336  C1439   1.405   .     A
C1337  C1429   1.410   .     A
C1337  C1441   1.404   .     A
C1337  C924    1.417   1_655 S
C1338  C1442   1.404   .     A
C1338  C1369   1.417   .     A
C1338  C1440   1.411   .     A
C1339  C1451   1.410   .     A
C1339  C1443   1.405   .     A
C1340  C1367   1.410   .     A
C1340  C1444   1.404   .     A
C1340  C483    1.417   1_565 S
C1341  C1378   1.410   .     A
C1341  C1445   1.404   .     A
C1341  C1372   1.418   .     A
C1342  C1373   1.418   .     A
C1342  C1446   1.404   .     A
C1342  C1389   1.410   .     A
C1343  C1447   1.404   .     A
C1343  C1400   1.410   .     A
C1343  C930    1.418   1_655 S
C1344  C1506   1.410   .     A
C1344  C1448   1.404   .     A
C1344  C1371   1.418   .     A
C1345  N1695   1.428   .     S
C1345  C1347   1.410   .     A
C1345  C989    1.403   1_655 S
C1346  C1449   1.404   .     A
C1346  C484    1.418   1_565 S
C1347  C1450   1.404   .     A
C1347  C929    1.418   1_655 S
C1348  C1452   1.404   .     A
C1348  C1356   1.410   .     A
C1348  C1374   1.418   .     A
C1349  C1496   1.414   .     A
C1349  C1498   1.413   .     A
C1349  C1468   1.453   .     S
C1350  C1469   1.453   .     S
C1350  C1497   1.415   .     A
C1350  C1494   1.413   .     A
C1351  C1461   1.452   .     S
C1351  C1493   1.413   .     A
C1351  C1500   1.414   .     A
C1352  C1492   1.413   .     A
C1352  C1499   1.414   .     A
C1352  C1463   1.452   .     S
C1353  C1502   1.414   .     A
C1353  C1491   1.413   .     A
C1353  C1464   1.453   .     S
C1354  C1465   1.453   .     S
C1354  C1490   1.414   .     A
C1354  C1501   1.413   .     A
C1355  C1466   1.451   .     S
C1355  C1489   1.414   .     A
C1355  C1504   1.413   .     A
C1356  C1434   1.403   .     A
C1356  N1696   1.427   .     S
C1357  C1503   1.413   .     A
C1357  C1488   1.414   .     A
C1357  C1467   1.452   .     S
C1358  C1487   1.413   .     A
C1358  C1477   1.451   .     S
C1358  C1507   1.414   .     A
C1359  C1486   1.413   .     A
C1359  C1478   1.452   .     S
C1359  C1505   1.414   .     A
C1360  C1485   1.413   .     A
C1360  C1509   1.414   .     A
C1360  C1470   1.453   .     S
C1361  C1471   1.453   .     S
C1361  C1483   1.414   .     A
C1361  C1508   1.413   .     A
C1362  C1482   1.414   .     A
C1362  C1511   1.413   .     A
C1362  C1472   1.452   .     S
C1363  C1481   1.414   .     A
C1363  C1510   1.413   .     A
C1363  C1474   1.452   .     S
C1364  C1513   1.413   .     A
C1364  C1480   1.414   .     A
C1364  C1475   1.453   .     S
C1365  C1479   1.413   .     A
C1365  C1476   1.453   .     S
C1365  C1512   1.414   .     A
C1366  C1514   1.418   .     A
C1366  C892    1.418   1_655 S
C1366  C924    1.416   1_655 S
C1367  N1697   1.427   .     S
C1367  C543    1.405   1_565 S
C1368  C1515   1.416   .     A
C1369  C1370   1.417   .     A
C1369  C628    1.416   1_565 S
C1370  C451    1.419   1_565 S
C1371  C1372   1.416   1_556 S
C1372  C1371   1.416   1_554 S
C1373  C1374   1.417   1_556 S
C1374  C1373   1.417   1_554 S
C1375  H1603   1.111   .     S
C1375  H1604   1.105   .     S
C1375  H1595   1.110   .     S
C1375  C1479   1.522   .     S
C1376  H1606   1.107   .     S
C1376  H1607   1.110   .     S
C1376  H1608   1.110   .     S
C1376  C1480   1.521   .     S
C1377  H1609   1.107   .     S
C1377  H1611   1.110   .     S
C1377  H1610   1.110   .     S
C1377  C1481   1.521   .     S
C1378  N1698   1.428   .     S
C1378  C1432   1.403   .     S
C1379  C1482   1.521   .     S
C1379  H1612   1.107   .     S
C1379  H1613   1.110   .     S
C1379  H1614   1.110   .     S
C1380  H1617   1.110   .     S
C1380  C1483   1.521   .     S
C1380  H1618   1.110   .     S
C1380  H1615   1.107   .     S
C1381  C1485   1.521   .     S
C1381  H1620   1.110   .     S
C1381  H1621   1.105   .     S
C1381  H1619   1.109   .     S
C1382  H1623   1.110   .     S
C1382  H1624   1.105   .     S
C1382  H1622   1.109   .     S
C1382  C1486   1.522   .     S
C1383  C1487   1.523   .     S
C1383  H1628   1.110   .     S
C1383  H1626   1.105   .     S
C1383  H1625   1.111   .     S
C1384  H1631   1.110   .     S
C1384  H1630   1.110   .     S
C1384  H1629   1.107   .     S
C1384  C1488   1.521   .     S
C1385  H1634   1.110   .     S
C1385  H1633   1.110   .     S
C1385  H1632   1.107   .     S
C1385  C1489   1.521   .     S
C1386  H1635   1.107   .     S
C1386  H1637   1.110   .     S
C1386  H1636   1.110   .     S
C1386  C1490   1.521   .     S
C1387  H1639   1.110   .     S
C1387  C1491   1.522   .     S
C1387  H1641   1.110   .     S
C1387  H1640   1.105   .     S
C1388  H1642   1.111   .     S
C1388  H1644   1.105   .     S
C1388  C1492   1.523   .     S
C1388  H1643   1.110   .     S
C1389  C1433   1.403   .     A
C1389  N1699   1.427   .     S
C1390  H1645   1.110   .     S
C1390  H1646   1.105   .     S
C1390  C1493   1.523   .     S
C1390  H1647   1.110   .     S
C1391  C1494   1.522   .     S
C1391  H1650   1.105   .     S
C1391  H1651   1.110   .     S
C1391  H1648   1.110   .     S
C1392  C1496   1.520   .     S
C1392  H1653   1.110   .     S
C1392  H1652   1.107   .     S
C1392  H1654   1.110   .     S
C1393  H1657   1.110   .     S
C1393  H1656   1.110   .     S
C1393  H1655   1.107   .     S
C1393  C1497   1.521   .     S
C1394  H1659   1.105   .     S
C1394  C1498   1.522   .     S
C1394  H1658   1.110   .     S
C1394  H1661   1.111   .     S
C1395  H1663   1.110   .     S
C1395  H1664   1.110   .     S
C1395  C1499   1.521   .     S
C1395  H1662   1.107   .     S
C1396  H1666   1.110   .     S
C1396  H1665   1.107   .     S
C1396  C1500   1.521   .     S
C1396  H1667   1.110   .     S
C1397  H1669   1.105   .     S
C1397  H1668   1.109   .     S
C1397  C1501   1.521   .     S
C1397  H1670   1.110   .     S
C1398  H1674   1.110   .     S
C1398  H1672   1.107   .     S
C1398  H1673   1.110   .     S
C1398  C1502   1.521   .     S
C1399  H1677   1.105   .     S
C1399  H1675   1.110   .     S
C1399  C1503   1.522   .     S
C1399  H1676   1.110   .     S
C1400  N1700   1.427   .     S
C1400  C990    1.404   1_655 S
C1401  C1504   1.522   .     S
C1401  H1678   1.110   .     S
C1401  H1680   1.110   .     S
C1401  H1679   1.105   .     S
C1402  H1683   1.110   .     S
C1402  H1681   1.107   .     S
C1402  H1684   1.110   .     S
C1402  C1505   1.521   .     S
C1403  C1507   1.521   .     S
C1403  H1687   1.110   .     S
C1403  H1686   1.110   .     S
C1403  H1685   1.107   .     S
C1404  H1688   1.111   .     S
C1404  H1689   1.110   .     S
C1404  H1690   1.105   .     S
C1404  C1508   1.523   .     S
C1405  H1692   1.110   .     S
C1405  H1519   1.110   .     S
C1405  C1509   1.521   .     S
C1405  H1691   1.107   .     S
C1406  H1522   1.105   .     S
C1406  C1510   1.523   .     S
C1406  H1520   1.110   .     S
C1406  H1521   1.110   .     S
C1407  C1511   1.523   .     S
C1407  H1523   1.111   .     S
C1407  H1525   1.110   .     S
C1407  H1524   1.105   .     S
C1408  H1528   1.110   .     S
C1408  H1526   1.107   .     S
C1408  H1527   1.110   .     S
C1408  C1512   1.520   .     S
C1409  C1513   1.523   .     S
C1409  H1530   1.110   .     S
C1409  H1531   1.111   .     S
C1409  H1532   1.105   .     S
C1410  H1535   1.111   .     S
C1410  H1534   1.111   .     S
C1410  H1092   1.109   1_655 S
C1410  N1249   1.447   1_655 S
C1411  C1462   1.404   .     A
C1411  C1455   1.454   .     S
C1411  C889    1.403   1_655 S
C1412  N1701   1.447   .     S
C1412  H1539   1.109   .     S
C1412  H1094   1.111   1_655 S
C1412  H1097   1.111   1_655 S
C1413  H1543   1.111   .     S
C1413  H1545   1.111   .     S
C1414  H1547   1.111   .     S
C1414  H1548   1.111   .     S
C1414  H661    1.110   1_565 S
C1414  N815    1.447   1_565 S
C1415  N1704   1.447   .     S
C1415  H1554   1.110   .     S
C1415  H1108   1.111   1_655 S
C1415  H1109   1.111   1_655 S
C1416  H1557   1.110   .     S
C1416  N1705   1.448   .     S
C1416  H1556   1.110   .     S
C1416  H1558   1.110   .     S
C1417  N1706   1.448   .     S
C1417  H1561   1.110   .     S
C1417  H1560   1.110   .     S
C1417  H1563   1.110   .     S
C1418  H1566   1.111   .     S
C1418  H1565   1.111   .     S
C1419  H1570   1.110   .     S
C1419  H1571   1.110   .     S
C1419  H1569   1.110   .     S
C1419  N1708   1.448   .     S
C1420  H1575   1.109   .     S
C1420  N1694   1.447   .     S
C1420  H1574   1.111   .     S
C1420  H1576   1.111   .     S
C1421  N1695   1.447   .     S
C1421  H1579   1.110   .     S
C1421  H1578   1.111   .     S
C1421  H1580   1.111   .     S
C1422  C1473   1.409   .     A
C1422  C1456   1.455   .     S
C1423  H1582   1.111   .     S
C1423  N1696   1.447   .     S
C1423  H1585   1.109   .     S
C1423  H1583   1.111   .     S
C1424  H1587   1.110   .     S
C1424  H1589   1.110   .     S
C1424  N1697   1.448   .     S
C1424  H1588   1.110   .     S
C1425  H1591   1.111   .     S
C1425  N1698   1.447   .     S
C1425  H1593   1.111   .     S
C1425  H1592   1.110   .     S
C1426  H1596   1.111   .     S
C1426  N1699   1.447   .     S
C1426  H1597   1.109   .     S
C1426  H1598   1.111   .     S
C1427  H1602   1.109   .     S
C1427  H1601   1.110   .     S
C1427  N1700   1.446   .     S
C1427  H1600   1.111   .     S
C1428  C1453   1.455   .     S
C1428  C1484   1.409   .     A
C1429  N1701   1.428   .     S
C1429  C978    1.405   1_655 S
C1430  C566    1.454   1_565 S
C1430  C1495   1.403   .     A
C1430  C563    1.404   1_565 S
C1431  C1506   1.405   .     A
C1431  C1459   1.456   .     S
C1433  C1457   1.454   .     S
C1434  C1458   1.455   .     S
C1435  H1517   1.081   .     S
C1435  C1441   1.387   .     A
C1435  C1514   1.404   .     A
C1436  C1515   1.403   .     A
C1436  C1439   1.386   .     A
C1436  H1605   1.083   .     S
C1437  C1516   1.403   .     A
C1437  C1443   1.387   .     A
C1437  H1616   1.082   .     S
C1438  H1627   1.081   .     S
C1438  C1442   1.387   .     A
C1439  H1638   1.081   .     S
C1440  N1702   1.428   .     S
C1440  C540    1.405   1_565 S
C1441  H1649   1.081   .     S
C1442  H1660   1.081   .     S
C1443  H1671   1.081   .     S
C1444  H1682   1.081   .     S
C1444  C1449   1.386   1_556 S
C1445  H1518   1.081   .     S
C1445  C1448   1.386   1_554 S
C1446  H1529   1.081   .     S
C1446  C1452   1.387   1_556 S
C1447  H1540   1.081   .     S
C1447  C1450   1.387   1_554 S
C1448  H1551   1.081   .     S
C1448  C1445   1.386   1_556 S
C1449  H1562   1.081   .     S
C1449  C1444   1.386   1_554 S
C1450  H1573   1.081   .     S
C1450  C1447   1.387   1_556 S
C1451  N1703   1.428   .     S
C1452  H1584   1.081   .     S
C1452  C1446   1.387   1_554 S
C1453  O1760   1.274   .     A
C1454  O1757   1.275   .     S
C1455  O1711   1.273   .     A
C1455  O1314   1.275   1_655 S
C1456  O1712   1.273   .     A
C1457  O1713   1.274   .     A
C1457  O1717   1.275   .     A
C1458  O1714   1.275   .     S
C1458  O1718   1.275   .     S
C1459  O1715   1.275   .     S
C1459  O1719   1.275   .     S
C1460  C544    1.454   1_565 S
C1460  O828    1.274   1_565 S
C1460  O833    1.273   1_565 S
C1461  O1722   1.275   .     A
C1461  O1750   1.277   .     A
C1462  N1704   1.428   .     S
C1462  C1514   1.410   .     A
C1463  O1751   1.277   .     A
C1463  O1723   1.275   .     A
C1464  O1748   1.277   .     A
C1464  O1724   1.275   .     A
C1465  O1749   1.276   .     A
C1465  O1725   1.276   .     A
C1466  O1726   1.276   .     A
C1466  O1755   1.277   .     A
C1467  O1727   1.277   .     A
C1467  O1756   1.276   .     A
C1468  O1728   1.276   .     A
C1468  O1752   1.277   .     A
C1469  O1729   1.278   .     A
C1469  O1754   1.275   .     A
C1470  O1741   1.276   .     A
C1470  O1730   1.276   .     A
C1471  O1732   1.277   .     A
C1471  O1743   1.276   .     A
C1472  O1739   1.275   .     A
C1472  O1733   1.277   .     A
C1473  C1515   1.407   .     A
C1473  N1705   1.430   .     S
C1474  O1740   1.275   .     A
C1474  O1734   1.277   .     A
C1475  O1746   1.277   .     A
C1475  O1735   1.275   .     A
C1476  O1747   1.276   .     A
C1476  O1736   1.277   .     A
C1477  O1744   1.277   .     A
C1477  O1737   1.276   .     A
C1478  O1745   1.276   .     A
C1478  O1738   1.276   .     A
C1479  C1496   1.410   .     A
C1480  C1494   1.410   .     A
C1481  C1493   1.410   .     A
C1482  C1492   1.410   .     A
C1483  C1491   1.410   .     A
C1484  N1706   1.430   .     S
C1484  C1516   1.407   .     A
C1485  C1490   1.410   .     A
C1486  C1489   1.410   .     A
C1487  C1488   1.409   .     A
C1495  N1707   1.427   .     S
C1497  C1513   1.410   .     A
C1498  C1512   1.410   .     A
C1499  C1511   1.410   .     A
C1500  C1510   1.410   .     A
C1501  C1509   1.410   .     A
C1502  C1508   1.410   .     A
C1503  C1507   1.410   .     A
C1504  C1505   1.410   .     A
C1506  N1708   1.428   .     S
H1533  N1693   1.030   .     S
H1537  N1701   1.031   .     S
H1542  N1702   1.031   .     S
H1544  C525    1.109   1_565 S
H1546  N1703   1.031   .     S
H1550  N1704   1.031   .     S
H1555  N1705   1.031   .     S
H1559  N1706   1.031   .     S
H1564  N1707   1.031   .     S
H1567  C530    1.110   1_565 S
H1568  N1708   1.031   .     S
H1572  N1694   1.030   .     S
H1577  N1695   1.031   .     S
H1581  N1696   1.031   .     S
H1586  N1697   1.031   .     S
H1590  N1698   1.030   .     S
H1594  N1699   1.031   .     S
H1599  N1700   1.031   .     S
N1702  C525    1.447   1_565 S
N1707  C530    1.447   1_565 S
O1709  Zn1761  1.943   .     S
O1709  Zn1772  1.943   .     S
O1709  Zn1764  1.944   .     S
O1710  C566    1.275   1_565 A
O1710  Zn1763  1.949   .     S
O1711  Zn1766  1.949   .     S
O1712  Zn1765  1.949   .     S
O1713  Zn1775  1.949   .     S
O1714  Zn1774  1.949   .     S
O1715  Zn1769  1.949   .     S
O1716  Zn1761  1.949   .     S
O1717  Zn1771  1.949   .     S
O1718  Zn1770  1.949   .     S
O1719  Zn1773  1.949   .     S
O1720  Zn1767  1.944   .     S
O1720  Zn1769  1.943   .     S
O1720  Zn1773  1.943   .     S
O1721  Zn1772  1.949   .     S
O1722  Zn1764  1.929   .     S
O1723  Zn1763  1.929   .     S
O1724  Zn1766  1.931   .     S
O1725  Zn1765  1.931   .     S
O1726  Zn1768  1.929   .     S
O1727  Zn1767  1.929   .     S
O1728  Zn1762  1.931   .     S
O1729  Zn1776  1.931   .     S
O1730  Zn1763  1.931   .     S
O1731  Zn1762  1.943   .     S
O1731  Zn1770  1.944   .     S
O1731  Zn1774  1.944   .     S
O1732  Zn1764  1.931   .     S
O1733  Zn1776  1.929   .     S
O1734  Zn1762  1.929   .     S
O1735  Zn1767  1.930   .     S
O1736  Zn1768  1.930   .     S
O1737  Zn1765  1.930   .     S
O1738  Zn1766  1.930   .     S
O1739  Zn1327  1.929   1_655 S
O1740  Zn1770  1.929   .     S
O1741  Zn885   1.931   1_565 S
O1742  Zn1765  1.943   .     S
O1742  Zn1771  1.944   .     S
O1742  Zn1775  1.944   .     S
O1743  Zn1772  1.931   .     S
O1744  Zn1775  1.929   .     S
O1745  Zn1330  1.929   1_655 S
O1746  Zn1769  1.931   .     S
O1747  Zn873   1.931   1_565 S
O1748  Zn1326  1.931   1_655 S
O1749  Zn1771  1.931   .     S
O1750  Zn1761  1.929   .     S
O1751  Zn881   1.929   1_565 S
O1752  Zn1774  1.930   .     S
O1753  Zn1768  1.949   .     S
O1753  C565    1.276   1_565 S
O1754  Zn1331  1.930   1_655 S
O1755  Zn884   1.930   1_565 S
O1756  Zn1773  1.930   .     S
O1757  Zn1767  1.949   .     S
O1758  Zn1762  1.949   .     S
O1759  Zn1776  1.949   .     S
O1759  C1012   1.276   1_655 S
O1760  Zn1764  1.949   .     S
Zn1763 O832    1.944   1_565 S
Zn1766 O1287   1.943   1_655 S
Zn1768 O821    1.944   1_565 S
Zn1776 O1298   1.943   1_655 S
