data_str_m1_o2_o5_pcu_sym.43
_audit_creation_date              2020-01-03
_audit_creation_method            'Materials Studio'
_symmetry_space_group_name_H-M    'P1'
_symmetry_Int_Tables_number       1
_symmetry_cell_setting            triclinic
loop_
_symmetry_equiv_pos_as_xyz
  x,y,z
_cell_length_a                    24.4364
_cell_length_b                    24.4314
_cell_length_c                    22.4585
_cell_angle_alpha                 89.9775
_cell_angle_beta                  89.9759
_cell_angle_gamma                 90.0051
loop_
_atom_site_label
_atom_site_type_symbol
_atom_site_fract_x
_atom_site_fract_y
_atom_site_fract_z
_atom_site_U_iso_or_equiv
_atom_site_adp_type
_atom_site_occupancy
C1     C     0.22844   0.27156   0.24998   0.00000  Uiso   1.00
C2     C     0.23033   0.72691   0.24710   0.00000  Uiso   1.00
C3     C     0.20189   0.63302   0.26396   0.00000  Uiso   1.00
C4     C     0.35541   0.19216   0.71037   0.00000  Uiso   1.00
C5     C     0.63286   0.79794   0.25867   0.00000  Uiso   1.00
C6     C     0.17968   0.65593   0.69884   0.00000  Uiso   1.00
C7     C     0.79831   0.36597   0.26384   0.00000  Uiso   1.00
C8     C     0.34407   0.81971   0.30008   0.00000  Uiso   1.00
C9     C     0.63510   0.20101   0.73463   0.00000  Uiso   1.00
C10    C     0.17319   0.33812   0.30320   0.00000  Uiso   1.00
C11    C     0.79972   0.63575   0.72890   0.00000  Uiso   1.00
C12    C     0.65841   0.17716   0.30254   0.00000  Uiso   1.00
C13    C     0.72856   0.77149   0.74994   0.00000  Uiso   1.00
C14    C     0.36528   0.79882   0.73530   0.00000  Uiso   1.00
C15    C     0.81500   0.65099   0.29715   0.00000  Uiso   1.00
C16    C     0.20134   0.36662   0.76340   0.00000  Uiso   1.00
C17    C     0.14733   0.35266   0.24999   0.00000  Uiso   1.00
C18    C     0.85236   0.64768   0.74998   0.00000  Uiso   1.00
C19    C     0.35295   0.85193   0.24937   0.00000  Uiso   1.00
C20    C     0.64810   0.14681   0.74877   0.00000  Uiso   1.00
C21    C     0.85234   0.64766   0.24998   0.00000  Uiso   1.00
C22    C     0.14721   0.35277   0.75001   0.00000  Uiso   1.00
C23    C     0.64781   0.14742   0.25042   0.00000  Uiso   1.00
C24    C     0.27114   0.22888   0.24998   0.00000  Uiso   1.00
C25    C     0.35209   0.85301   0.74927   0.00000  Uiso   1.00
C26    C     0.85308   0.35169   0.74897   0.00000  Uiso   1.00
C27    C     0.14808   0.64693   0.24900   0.00000  Uiso   1.00
C28    C     0.64750   0.85251   0.74997   0.00000  Uiso   1.00
C29    C     0.35237   0.14765   0.25000   0.00000  Uiso   1.00
C30    C     0.14726   0.64796   0.74956   0.00000  Uiso   1.00
C31    C     0.85254   0.35233   0.25037   0.00000  Uiso   1.00
C32    C     0.35206   0.14795   0.75001   0.00000  Uiso   1.00
C33    C     0.64727   0.85271   0.24999   0.00000  Uiso   1.00
C34    C     0.26170   0.29244   0.11699   0.00000  Uiso   1.00
C35    C     0.22711   0.73041   0.74825   0.00000  Uiso   1.00
C36    C     0.26941   0.27395   0.05289   0.00000  Uiso   1.00
C37    C     0.86100   0.82305   0.74288   0.00000  Uiso   1.00
C38    C     0.86918   0.88204   0.76248   0.00000  Uiso   1.00
C39    C     0.28549   0.74902   0.11079   0.00000  Uiso   1.00
C40    C     0.24472   0.70933   0.08327   0.00000  Uiso   1.00
C41    C     0.81524   0.11863   0.72248   0.00000  Uiso   1.00
C42    C     0.87733   0.11941   0.71827   0.00000  Uiso   1.00
C43    C     0.76793   0.74624   0.11289   0.00000  Uiso   1.00
C44    C     0.76470   0.79007   0.06494   0.00000  Uiso   1.00
C45    C     0.16117   0.20095   0.65661   0.00000  Uiso   1.00
C46    C     0.77167   0.27108   0.25128   0.00000  Uiso   1.00
C47    C     0.15475   0.14117   0.63921   0.00000  Uiso   1.00
C48    C     0.71726   0.25143   0.11381   0.00000  Uiso   1.00
C49    C     0.75841   0.29054   0.08593   0.00000  Uiso   1.00
C50    C     0.18431   0.87814   0.72245   0.00000  Uiso   1.00
C51    C     0.12212   0.87775   0.72050   0.00000  Uiso   1.00
C52    C     0.76159   0.26342   0.88625   0.00000  Uiso   1.00
C53    C     0.75366   0.22312   0.93709   0.00000  Uiso   1.00
C54    C     0.14715   0.82490   0.26363   0.00000  Uiso   1.00
C55    C     0.12070   0.87766   0.24214   0.00000  Uiso   1.00
C56    C     0.69650   0.75557   0.89552   0.00000  Uiso   1.00
C57    C     0.27086   0.22915   0.75006   0.00000  Uiso   1.00
C58    C     0.72214   0.70753   0.92840   0.00000  Uiso   1.00
C59    C     0.17431   0.14426   0.24359   0.00000  Uiso   1.00
C60    C     0.12230   0.12403   0.21367   0.00000  Uiso   1.00
C61    C     0.23924   0.73610   0.88728   0.00000  Uiso   1.00
C62    C     0.24906   0.77788   0.93623   0.00000  Uiso   1.00
C63    C     0.87866   0.18370   0.27051   0.00000  Uiso   1.00
C64    C     0.87622   0.12156   0.27314   0.00000  Uiso   1.00
C65    C     0.24072   0.17610   0.88930   0.00000  Uiso   1.00
C66    C     0.19514   0.19473   0.93071   0.00000  Uiso   1.00
C67    C     0.82143   0.85179   0.29077   0.00000  Uiso   1.00
C68    C     0.72834   0.77162   0.24995   0.00000  Uiso   1.00
C69    C     0.87640   0.87972   0.28163   0.00000  Uiso   1.00
C70    C     0.74426   0.80364   0.60428   0.00000  Uiso   1.00
C71    C     0.79228   0.77811   0.57126   0.00000  Uiso   1.00
C72    C     0.35564   0.32578   0.25636   0.00000  Uiso   1.00
C73    C     0.37577   0.37784   0.28626   0.00000  Uiso   1.00
C74    C     0.77899   0.25441   0.60878   0.00000  Uiso   1.00
C75    C     0.73639   0.22418   0.57199   0.00000  Uiso   1.00
C76    C     0.31667   0.62056   0.23010   0.00000  Uiso   1.00
C77    C     0.37888   0.62061   0.23086   0.00000  Uiso   1.00
C78    C     0.32391   0.25933   0.61079   0.00000  Uiso   1.00
C79    C    -0.00001   0.50000   0.47332   0.00000  Uiso   1.00
C80    C     0.30511   0.30483   0.56936   0.00000  Uiso   1.00
C81    C     0.64828   0.67848   0.20914   0.00000  Uiso   1.00
C82    C     0.62047   0.62344   0.21826   0.00000  Uiso   1.00
C83    C     0.22075   0.74584   0.61006   0.00000  Uiso   1.00
C84    C     0.26276   0.78462   0.58314   0.00000  Uiso   1.00
C85    C     0.68387   0.37818   0.23241   0.00000  Uiso   1.00
C86    C     0.62177   0.37518   0.22964   0.00000  Uiso   1.00
C87    C     0.25657   0.76922   0.38681   0.00000  Uiso   1.00
C88    C     0.24190   0.72785   0.43477   0.00000  Uiso   1.00
C89    C     0.64830   0.32368   0.77185   0.00000  Uiso   1.00
C90    C     0.00001   0.50000   0.52668   0.00000  Uiso   1.00
C91    C     0.62329   0.37838   0.75448   0.00000  Uiso   1.00
C92    C     0.20759   0.23827   0.38296   0.00000  Uiso   1.00
C93    C     0.22608   0.23055   0.44705   0.00000  Uiso   1.00
C94    C     0.67709   0.63880   0.75682   0.00000  Uiso   1.00
C95    C     0.61818   0.63042   0.73709   0.00000  Uiso   1.00
C96    C     0.74969   0.21589   0.38926   0.00000  Uiso   1.00
C97    C     0.78586   0.25661   0.42203   0.00000  Uiso   1.00
C98    C     0.35288   0.67603   0.77277   0.00000  Uiso   1.00
C99    C     0.37946   0.62214   0.75519   0.00000  Uiso   1.00
C100   C     0.75367   0.73206   0.38702   0.00000  Uiso   1.00
C101   C     0.50000  -0.00001   0.47333   0.00000  Uiso   1.00
C102   C     0.70974   0.73539   0.43485   0.00000  Uiso   1.00
C103   C     0.29889   0.33881   0.84361   0.00000  Uiso   1.00
C104   C     0.35858   0.34567   0.86112   0.00000  Uiso   1.00
C105   C     0.77121   0.72885   0.74993   0.00000  Uiso   1.00
C106   C     0.50000   0.00001   0.52667   0.00000  Uiso   1.00
C107   C     0.49999  -0.00000   0.97332   0.00000  Uiso   1.00
C108   C     0.50001  -0.00000   0.02668   0.00000  Uiso   1.00
C109   C     0.00000   0.49999   0.97332   0.00000  Uiso   1.00
C110   C     0.00000   0.50001   0.02668   0.00000  Uiso   1.00
C111   C     0.00000   0.50001   0.09000   0.00000  Uiso   1.00
C112   C     0.00000   0.49999   0.91000   0.00000  Uiso   1.00
C113   C     0.50001  -0.00000   0.09000   0.00000  Uiso   1.00
C114   C     0.49999  -0.00000   0.91000   0.00000  Uiso   1.00
C115   C     0.50000   0.00001   0.59000   0.00000  Uiso   1.00
C116   C     0.27339   0.76925   0.24768   0.00000  Uiso   1.00
C117   C     0.50000  -0.00001   0.41000   0.00000  Uiso   1.00
C118   C     0.00001   0.50000   0.59000   0.00000  Uiso   1.00
C119   C    -0.00001   0.50000   0.41000   0.00000  Uiso   1.00
C120   C     0.10522   0.60515   0.24992   0.00000  Uiso   1.00
C121   C     0.89485   0.39470   0.74990   0.00000  Uiso   1.00
C122   C     0.60511   0.89489   0.25000   0.00000  Uiso   1.00
C123   C     0.39467   0.10534   0.75000   0.00000  Uiso   1.00
C124   C     0.89481   0.39479   0.25004   0.00000  Uiso   1.00
C125   C     0.10521   0.60523   0.74999   0.00000  Uiso   1.00
C126   C     0.39477   0.10523   0.25000   0.00000  Uiso   1.00
C127   C     0.73048   0.22659   0.74620   0.00000  Uiso   1.00
C128   C     0.60518   0.89482   0.74999   0.00000  Uiso   1.00
C129   C     0.89477   0.60524   0.75000   0.00000  Uiso   1.00
C130   C     0.10512   0.39487   0.25000   0.00000  Uiso   1.00
C131   C     0.39480   0.89487   0.74996   0.00000  Uiso   1.00
C132   C     0.60526   0.10518   0.25007   0.00000  Uiso   1.00
C133   C     0.10508   0.39491   0.75000   0.00000  Uiso   1.00
C134   C     0.89476   0.60524   0.25000   0.00000  Uiso   1.00
C135   C     0.60520   0.10513   0.74991   0.00000  Uiso   1.00
C136   C     0.39483   0.89477   0.24999   0.00000  Uiso   1.00
C137   C     0.20353   0.28779   0.19595   0.00000  Uiso   1.00
C138   C     0.77109   0.72888   0.24996   0.00000  Uiso   1.00
C139   C     0.82447   0.74135   0.76961   0.00000  Uiso   1.00
C140   C     0.28413   0.80005   0.19592   0.00000  Uiso   1.00
C141   C     0.74417   0.17140   0.75677   0.00000  Uiso   1.00
C142   C     0.80795   0.72458   0.20154   0.00000  Uiso   1.00
C143   C     0.17399   0.25834   0.73458   0.00000  Uiso   1.00
C144   C     0.71750   0.19955   0.19833   0.00000  Uiso   1.00
C145   C     0.25626   0.82794   0.75839   0.00000  Uiso   1.00
C146   C     0.80574   0.27699   0.79831   0.00000  Uiso   1.00
C147   C     0.17587   0.74102   0.23255   0.00000  Uiso   1.00
C148   C     0.71172   0.79511   0.80401   0.00000  Uiso   1.00
C149   C     0.22820   0.27180   0.75007   0.00000  Uiso   1.00
C150   C     0.26000   0.17664   0.22584   0.00000  Uiso   1.00
C151   C     0.19478   0.72211   0.79961   0.00000  Uiso   1.00
C152   C     0.82652   0.25676   0.24015   0.00000  Uiso   1.00
C153   C     0.26791   0.18588   0.79130   0.00000  Uiso   1.00
C154   C     0.74288   0.82736   0.24329   0.00000  Uiso   1.00
C155   C     0.70492   0.78835   0.69588   0.00000  Uiso   1.00
C156   C     0.32336   0.24003   0.27412   0.00000  Uiso   1.00
C157   C     0.78240   0.30176   0.69609   0.00000  Uiso   1.00
C158   C     0.24364   0.67219   0.26072   0.00000  Uiso   1.00
C159   C     0.31411   0.23212   0.70879   0.00000  Uiso   1.00
C160   C     0.72905   0.22841   0.25107   0.00000  Uiso   1.00
C161   C     0.67261   0.75707   0.25662   0.00000  Uiso   1.00
C162   C     0.21836   0.69789   0.69733   0.00000  Uiso   1.00
C163   C     0.75719   0.32594   0.26206   0.00000  Uiso   1.00
C164   C     0.30366   0.77932   0.30009   0.00000  Uiso   1.00
C165   C     0.67552   0.24133   0.73501   0.00000  Uiso   1.00
C166   C     0.21221   0.29646   0.30402   0.00000  Uiso   1.00
C167   C     0.75871   0.67557   0.73026   0.00000  Uiso   1.00
C168   C     0.69977   0.21661   0.30350   0.00000  Uiso   1.00
C169   C     0.32507   0.75831   0.73618   0.00000  Uiso   1.00
C170   C     0.77539   0.69203   0.29839   0.00000  Uiso   1.00
C171   C     0.27011   0.77281   0.74777   0.00000  Uiso   1.00
C172   C     0.24162   0.32604   0.76554   0.00000  Uiso   1.00
C173   C     0.16188   0.32680   0.19678   0.00000  Uiso   1.00
C174   C     0.86428   0.70033   0.77102   0.00000  Uiso   1.00
C175   C     0.32258   0.84222   0.19757   0.00000  Uiso   1.00
C176   C     0.70239   0.13224   0.76054   0.00000  Uiso   1.00
C177   C     0.84899   0.68499   0.20280   0.00000  Uiso   1.00
C178   C     0.13339   0.29862   0.73665   0.00000  Uiso   1.00
C179   C     0.67796   0.15828   0.19864   0.00000  Uiso   1.00
C180   C     0.29782   0.86733   0.76154   0.00000  Uiso   1.00
C181   C     0.84604   0.31747   0.79845   0.00000  Uiso   1.00
C182   C     0.77360   0.26889   0.74681   0.00000  Uiso   1.00
C183   C     0.13557   0.70058   0.23203   0.00000  Uiso   1.00
C184   C     0.67248   0.83695   0.80346   0.00000  Uiso   1.00
C185   C     0.30110   0.13704   0.22469   0.00000  Uiso   1.00
C186   C     0.15432   0.68179   0.79934   0.00000  Uiso   1.00
C187   C     0.86634   0.29803   0.23746   0.00000  Uiso   1.00
C188   C     0.30788   0.14458   0.78967   0.00000  Uiso   1.00
C189   C     0.70202   0.86712   0.24129   0.00000  Uiso   1.00
C190   C     0.66306   0.82756   0.69647   0.00000  Uiso   1.00
C191   C     0.36296   0.19893   0.27529   0.00000  Uiso   1.00
C192   C     0.82087   0.34390   0.69808   0.00000  Uiso   1.00
H1     H     0.29998   0.28313   0.14170   0.00000  Uiso   1.00
H2     H     0.82910   0.90068   0.77405   0.00000  Uiso   1.00
H3     H     0.39444   0.66207   0.21963   0.00000  Uiso   1.00
H4     H     0.29956   0.22192   0.60027   0.00000  Uiso   1.00
H5     H     0.36794   0.25140   0.60186   0.00000  Uiso   1.00
H6     H     0.26068   0.31251   0.57570   0.00000  Uiso   1.00
H7     H     0.31259   0.29286   0.52238   0.00000  Uiso   1.00
H8     H     0.32813   0.34303   0.57890   0.00000  Uiso   1.00
H9     H     0.68819   0.67096   0.18685   0.00000  Uiso   1.00
H10    H     0.62166   0.70388   0.17972   0.00000  Uiso   1.00
H11    H     0.58013   0.62931   0.24015   0.00000  Uiso   1.00
H12    H     0.61412   0.60315   0.17456   0.00000  Uiso   1.00
H13    H     0.31514   0.72445   0.13769   0.00000  Uiso   1.00
H14    H     0.64640   0.59671   0.24663   0.00000  Uiso   1.00
H15    H     0.18991   0.77124   0.63432   0.00000  Uiso   1.00
H16    H     0.19918   0.72402   0.57359   0.00000  Uiso   1.00
H17    H     0.29464   0.76111   0.55895   0.00000  Uiso   1.00
H18    H     0.24234   0.81307   0.55161   0.00000  Uiso   1.00
H19    H     0.28262   0.80895   0.61886   0.00000  Uiso   1.00
H20    H     0.69993   0.37090   0.18655   0.00000  Uiso   1.00
H21    H     0.69564   0.41998   0.24716   0.00000  Uiso   1.00
H22    H     0.60406   0.38333   0.27432   0.00000  Uiso   1.00
H23    H     0.60606   0.40619   0.19778   0.00000  Uiso   1.00
H24    H     0.30877   0.76958   0.07465   0.00000  Uiso   1.00
H25    H     0.60884   0.33385   0.21456   0.00000  Uiso   1.00
H26    H     0.21842   0.77842   0.36176   0.00000  Uiso   1.00
H27    H     0.27192   0.80724   0.40842   0.00000  Uiso   1.00
H28    H     0.27871   0.71743   0.46141   0.00000  Uiso   1.00
H29    H     0.21008   0.74526   0.46451   0.00000  Uiso   1.00
H30    H     0.22565   0.68996   0.41393   0.00000  Uiso   1.00
H31    H     0.68596   0.33207   0.79801   0.00000  Uiso   1.00
H32    H     0.61812   0.30127   0.80007   0.00000  Uiso   1.00
H33    H     0.58523   0.37167   0.72846   0.00000  Uiso   1.00
H34    H     0.61321   0.40218   0.79515   0.00000  Uiso   1.00
H35    H     0.21377   0.73200   0.05684   0.00000  Uiso   1.00
H36    H     0.65274   0.40220   0.72710   0.00000  Uiso   1.00
H37    H     0.21691   0.19999   0.35823   0.00000  Uiso   1.00
H38    H     0.16248   0.24538   0.38320   0.00000  Uiso   1.00
H39    H     0.27078   0.22239   0.44847   0.00000  Uiso   1.00
H40    H     0.20415   0.19533   0.46729   0.00000  Uiso   1.00
H41    H     0.21692   0.26795   0.47331   0.00000  Uiso   1.00
H42    H     0.67672   0.66556   0.79697   0.00000  Uiso   1.00
H43    H     0.69475   0.59821   0.76870   0.00000  Uiso   1.00
H44    H     0.61682   0.60321   0.69752   0.00000  Uiso   1.00
H45    H     0.59429   0.61131   0.77368   0.00000  Uiso   1.00
H46    H     0.26647   0.68013   0.05368   0.00000  Uiso   1.00
H47    H     0.59939   0.67045   0.72559   0.00000  Uiso   1.00
H48    H     0.77710   0.18909   0.36209   0.00000  Uiso   1.00
H49    H     0.72809   0.18987   0.42238   0.00000  Uiso   1.00
H50    H     0.76045   0.28403   0.45012   0.00000  Uiso   1.00
H51    H     0.81535   0.23440   0.45086   0.00000  Uiso   1.00
H52    H     0.80904   0.28177   0.38942   0.00000  Uiso   1.00
H53    H     0.31524   0.66647   0.79853   0.00000  Uiso   1.00
H54    H     0.38226   0.69896   0.80147   0.00000  Uiso   1.00
H55    H     0.41754   0.63006   0.72958   0.00000  Uiso   1.00
H56    H     0.38982   0.59829   0.79575   0.00000  Uiso   1.00
H57    H     0.22350   0.68594   0.11885   0.00000  Uiso   1.00
H58    H     0.35087   0.59777   0.72734   0.00000  Uiso   1.00
H59    H     0.75714   0.77335   0.36667   0.00000  Uiso   1.00
H60    H     0.79328   0.72078   0.40825   0.00000  Uiso   1.00
H61    H     0.66932   0.74363   0.41408   0.00000  Uiso   1.00
H62    H     0.71927   0.76923   0.46608   0.00000  Uiso   1.00
H63    H     0.70771   0.69627   0.45995   0.00000  Uiso   1.00
H64    H     0.28417   0.29921   0.86245   0.00000  Uiso   1.00
H65    H     0.27495   0.37303   0.86347   0.00000  Uiso   1.00
H66    H     0.37451   0.38523   0.84399   0.00000  Uiso   1.00
H67    H     0.36242   0.34514   0.91039   0.00000  Uiso   1.00
H68    H     0.79857   0.12825   0.67740   0.00000  Uiso   1.00
H69    H     0.38328   0.31165   0.84230   0.00000  Uiso   1.00
H70    H     0.14204   0.33804   0.15539   0.00000  Uiso   1.00
H71    H     0.90481   0.71014   0.78740   0.00000  Uiso   1.00
H72    H     0.32986   0.86614   0.15770   0.00000  Uiso   1.00
H73    H     0.71246   0.09022   0.77130   0.00000  Uiso   1.00
H74    H     0.87779   0.68307   0.16617   0.00000  Uiso   1.00
H75    H     0.09146   0.28790   0.72614   0.00000  Uiso   1.00
H76    H     0.66989   0.13582   0.15799   0.00000  Uiso   1.00
H77    H     0.28752   0.90932   0.77214   0.00000  Uiso   1.00
H78    H     0.87127   0.32255   0.83772   0.00000  Uiso   1.00
H79    H     0.80217   0.07676   0.73569   0.00000  Uiso   1.00
H80    H     0.09419   0.71156   0.21950   0.00000  Uiso   1.00
H81    H     0.66065   0.85630   0.84492   0.00000  Uiso   1.00
H82    H     0.29234   0.09758   0.20488   0.00000  Uiso   1.00
H83    H     0.12890   0.67659   0.83848   0.00000  Uiso   1.00
H84    H     0.90820   0.28757   0.22647   0.00000  Uiso   1.00
H85    H     0.30445   0.10986   0.81935   0.00000  Uiso   1.00
H86    H     0.71338   0.90956   0.23460   0.00000  Uiso   1.00
H87    H     0.64369   0.83939   0.65503   0.00000  Uiso   1.00
H88    H     0.40241   0.20771   0.29511   0.00000  Uiso   1.00
H89    H     0.82652   0.36949   0.65914   0.00000  Uiso   1.00
H90    H     0.89556   0.10887   0.76210   0.00000  Uiso   1.00
H91    H     0.21174   0.59145   0.27686   0.00000  Uiso   1.00
H92    H     0.39010   0.19558   0.68067   0.00000  Uiso   1.00
H93    H     0.59043   0.78658   0.26537   0.00000  Uiso   1.00
H94    H     0.17393   0.63075   0.65964   0.00000  Uiso   1.00
H95    H     0.78778   0.40788   0.27454   0.00000  Uiso   1.00
H96    H     0.36794   0.82630   0.34009   0.00000  Uiso   1.00
H97    H     0.59326   0.21248   0.72462   0.00000  Uiso   1.00
H98    H     0.16196   0.35795   0.34459   0.00000  Uiso   1.00
H99    H     0.78993   0.59520   0.71253   0.00000  Uiso   1.00
H100   H     0.63553   0.16897   0.34291   0.00000  Uiso   1.00
H101   H     0.89124   0.08909   0.68469   0.00000  Uiso   1.00
H102   H     0.40711   0.78754   0.72497   0.00000  Uiso   1.00
H103   H     0.81692   0.62220   0.33380   0.00000  Uiso   1.00
H104   H     0.21203   0.40857   0.77390   0.00000  Uiso   1.00
H105   H     0.25457   0.33755   0.11677   0.00000  Uiso   1.00
H106   H     0.89154   0.16077   0.70471   0.00000  Uiso   1.00
H107   H     0.72662   0.74287   0.13322   0.00000  Uiso   1.00
H108   H     0.77916   0.70656   0.09178   0.00000  Uiso   1.00
H109   H     0.75648   0.83056   0.08558   0.00000  Uiso   1.00
H110   H     0.73089   0.78050   0.03369   0.00000  Uiso   1.00
H111   H     0.80385   0.79200   0.03988   0.00000  Uiso   1.00
H112   H     0.20061   0.21595   0.63763   0.00000  Uiso   1.00
H113   H     0.12673   0.22460   0.63680   0.00000  Uiso   1.00
H114   H     0.11536   0.12494   0.65648   0.00000  Uiso   1.00
H115   H     0.15519   0.13726   0.58995   0.00000  Uiso   1.00
H116   H     0.27759   0.22925   0.05147   0.00000  Uiso   1.00
H117   H     0.18900   0.11676   0.65797   0.00000  Uiso   1.00
H118   H     0.68815   0.27647   0.14090   0.00000  Uiso   1.00
H119   H     0.69357   0.23109   0.07787   0.00000  Uiso   1.00
H120   H     0.78872   0.26744   0.05905   0.00000  Uiso   1.00
H121   H     0.73687   0.32021   0.05671   0.00000  Uiso   1.00
H122   H     0.78035   0.31341   0.12136   0.00000  Uiso   1.00
H123   H     0.19956   0.86564   0.67762   0.00000  Uiso   1.00
H124   H     0.19815   0.92057   0.73210   0.00000  Uiso   1.00
H125   H     0.10528   0.89107   0.76409   0.00000  Uiso   1.00
H126   H     0.10749   0.90614   0.68531   0.00000  Uiso   1.00
H127   H     0.30460   0.29591   0.03265   0.00000  Uiso   1.00
H128   H     0.10718   0.83582   0.71043   0.00000  Uiso   1.00
H129   H     0.72135   0.26839   0.86383   0.00000  Uiso   1.00
H130   H     0.77506   0.30342   0.90501   0.00000  Uiso   1.00
H131   H     0.79278   0.21731   0.96141   0.00000  Uiso   1.00
H132   H     0.72221   0.23895   0.96831   0.00000  Uiso   1.00
H133   H     0.73977   0.18302   0.91934   0.00000  Uiso   1.00
H134   H     0.18401   0.83600   0.28992   0.00000  Uiso   1.00
H135   H     0.11715   0.80314   0.29269   0.00000  Uiso   1.00
H136   H     0.08340   0.86822   0.21583   0.00000  Uiso   1.00
H137   H     0.10906   0.90332   0.28093   0.00000  Uiso   1.00
H138   H     0.23200   0.28309   0.02665   0.00000  Uiso   1.00
H139   H     0.14988   0.90091   0.21385   0.00000  Uiso   1.00
H140   H     0.65913   0.74004   0.87238   0.00000  Uiso   1.00
H141   H     0.68387   0.78708   0.92844   0.00000  Uiso   1.00
H142   H     0.73241   0.67448   0.89634   0.00000  Uiso   1.00
H143   H     0.69298   0.69132   0.96199   0.00000  Uiso   1.00
H144   H     0.76021   0.72070   0.95123   0.00000  Uiso   1.00
H145   H     0.16274   0.17717   0.27535   0.00000  Uiso   1.00
H146   H     0.19288   0.10932   0.26837   0.00000  Uiso   1.00
H147   H     0.13218   0.09069   0.18182   0.00000  Uiso   1.00
H148   H     0.09350   0.10809   0.24778   0.00000  Uiso   1.00
H149   H     0.83415   0.82326   0.70279   0.00000  Uiso   1.00
H150   H     0.10231   0.15816   0.18929   0.00000  Uiso   1.00
H151   H     0.27893   0.72959   0.86413   0.00000  Uiso   1.00
H152   H     0.22541   0.69700   0.90786   0.00000  Uiso   1.00
H153   H     0.21067   0.78513   0.96148   0.00000  Uiso   1.00
H154   H     0.28106   0.76256   0.96705   0.00000  Uiso   1.00
H155   H     0.26313   0.81714   0.91649   0.00000  Uiso   1.00
H156   H     0.87073   0.19960   0.31630   0.00000  Uiso   1.00
H157   H     0.92050   0.19591   0.25628   0.00000  Uiso   1.00
H158   H     0.88509   0.10403   0.22854   0.00000  Uiso   1.00
H159   H     0.90698   0.10607   0.30539   0.00000  Uiso   1.00
H160   H     0.90162   0.80553   0.73092   0.00000  Uiso   1.00
H161   H     0.83485   0.10820   0.28764   0.00000  Uiso   1.00
H162   H     0.27802   0.20061   0.89981   0.00000  Uiso   1.00
H163   H     0.24882   0.13210   0.89825   0.00000  Uiso   1.00
H164   H     0.18725   0.23913   0.92431   0.00000  Uiso   1.00
H165   H     0.20714   0.18735   0.97769   0.00000  Uiso   1.00
H166   H     0.15706   0.17152   0.92119   0.00000  Uiso   1.00
H167   H     0.82902   0.81190   0.31308   0.00000  Uiso   1.00
H168   H     0.79598   0.87839   0.32017   0.00000  Uiso   1.00
H169   H     0.87044   0.92005   0.25972   0.00000  Uiso   1.00
H170   H     0.89667   0.88614   0.32532   0.00000  Uiso   1.00
H171   H     0.89647   0.88357   0.80198   0.00000  Uiso   1.00
H172   H     0.90318   0.85383   0.25327   0.00000  Uiso   1.00
H173   H     0.75976   0.84107   0.62736   0.00000  Uiso   1.00
H174   H     0.71265   0.81619   0.57145   0.00000  Uiso   1.00
H175   H     0.82544   0.76794   0.60322   0.00000  Uiso   1.00
H176   H     0.80832   0.80732   0.53760   0.00000  Uiso   1.00
H177   H     0.77915   0.73999   0.54848   0.00000  Uiso   1.00
H178   H     0.32271   0.33728   0.22460   0.00000  Uiso   1.00
H179   H     0.39060   0.30726   0.23157   0.00000  Uiso   1.00
H180   H     0.40912   0.36804   0.31811   0.00000  Uiso   1.00
H181   H     0.39164   0.40667   0.25213   0.00000  Uiso   1.00
H182   H     0.88809   0.90596   0.72579   0.00000  Uiso   1.00
H183   H     0.34160   0.39778   0.31064   0.00000  Uiso   1.00
H184   H     0.80222   0.22309   0.63474   0.00000  Uiso   1.00
H185   H     0.80789   0.27560   0.57826   0.00000  Uiso   1.00
H186   H     0.71266   0.25362   0.54456   0.00000  Uiso   1.00
H187   H     0.75684   0.19425   0.54220   0.00000  Uiso   1.00
H188   H     0.70788   0.20183   0.60192   0.00000  Uiso   1.00
H189   H     0.30319   0.63146   0.18413   0.00000  Uiso   1.00
H190   H     0.30224   0.57857   0.24102   0.00000  Uiso   1.00
H191   H     0.39399   0.60883   0.27571   0.00000  Uiso   1.00
H192   H     0.39467   0.59089   0.19763   0.00000  Uiso   1.00
O1     O     0.00000   0.50000   0.25000   0.00000  Uiso   1.00
O2     O     0.00000   0.45454   0.88202   0.00000  Uiso   1.00
O3     O     0.54546  -0.00000   0.11798   0.00000  Uiso   1.00
O4     O     0.45454   0.00000   0.88202   0.00000  Uiso   1.00
O5     O     0.50000   0.95454   0.61798   0.00000  Uiso   1.00
O6     O     0.50000   0.04546   0.38202   0.00000  Uiso   1.00
O7     O     0.95454   0.50000   0.61798   0.00000  Uiso   1.00
O8     O     0.04546   0.50000   0.38202   0.00000  Uiso   1.00
O9     O     0.50000   0.04546   0.61798   0.00000  Uiso   1.00
O10    O     0.50000   0.95454   0.38202   0.00000  Uiso   1.00
O11    O     0.04546   0.50000   0.61798   0.00000  Uiso   1.00
O12    O     0.00000   0.50000   0.75000   0.00000  Uiso   1.00
O13    O     0.95454   0.50000   0.38202   0.00000  Uiso   1.00
O14    O     0.06399   0.60947   0.21539   0.00000  Uiso   1.00
O15    O     0.93601   0.39053   0.78461   0.00000  Uiso   1.00
O16    O     0.60947   0.93601   0.21539   0.00000  Uiso   1.00
O17    O     0.39053   0.06399   0.78461   0.00000  Uiso   1.00
O18    O     0.93601   0.39053   0.21539   0.00000  Uiso   1.00
O19    O     0.06399   0.60947   0.78461   0.00000  Uiso   1.00
O20    O     0.39053   0.06399   0.21539   0.00000  Uiso   1.00
O21    O     0.60947   0.93601   0.78461   0.00000  Uiso   1.00
O22    O     0.93601   0.60947   0.78461   0.00000  Uiso   1.00
O23    O     0.50000   0.00000   0.25000   0.00000  Uiso   1.00
O24    O     0.06399   0.39053   0.21539   0.00000  Uiso   1.00
O25    O     0.39053   0.93601   0.78461   0.00000  Uiso   1.00
O26    O     0.60947   0.06399   0.21539   0.00000  Uiso   1.00
O27    O     0.06399   0.39053   0.78461   0.00000  Uiso   1.00
O28    O     0.93601   0.60947   0.21539   0.00000  Uiso   1.00
O29    O     0.60947   0.06399   0.78461   0.00000  Uiso   1.00
O30    O     0.39053   0.93601   0.21539   0.00000  Uiso   1.00
O31    O     0.56399   0.10947   0.71539   0.00000  Uiso   1.00
O32    O     0.43601   0.89053   0.28461   0.00000  Uiso   1.00
O33    O     0.10947   0.43601   0.71539   0.00000  Uiso   1.00
O34    O     0.50000   0.00000   0.75000   0.00000  Uiso   1.00
O35    O     0.89053   0.56399   0.28461   0.00000  Uiso   1.00
O36    O     0.43601   0.89053   0.71539   0.00000  Uiso   1.00
O37    O     0.56399   0.10947   0.28461   0.00000  Uiso   1.00
O38    O     0.89053   0.56399   0.71539   0.00000  Uiso   1.00
O39    O     0.10947   0.43601   0.28461   0.00000  Uiso   1.00
O40    O     0.43601   0.10947   0.28461   0.00000  Uiso   1.00
O41    O     0.56399   0.89053   0.71539   0.00000  Uiso   1.00
O42    O     0.89053   0.43601   0.28461   0.00000  Uiso   1.00
O43    O     0.10947   0.56399   0.71539   0.00000  Uiso   1.00
O44    O     0.56399   0.89053   0.28461   0.00000  Uiso   1.00
O45    O     0.00000   0.45454   0.11798   0.00000  Uiso   1.00
O46    O     0.43601   0.10947   0.71539   0.00000  Uiso   1.00
O47    O     0.10947   0.56399   0.28461   0.00000  Uiso   1.00
O48    O     0.89053   0.43601   0.71539   0.00000  Uiso   1.00
O49    O     0.21729   0.26370   0.14227   0.00000  Uiso   1.00
O50    O     0.83704   0.79322   0.78997   0.00000  Uiso   1.00
O51    O     0.25662   0.78923   0.14351   0.00000  Uiso   1.00
O52    O     0.79842   0.15701   0.76585   0.00000  Uiso   1.00
O53    O     0.80761   0.76186   0.15518   0.00000  Uiso   1.00
O54    O     0.16037   0.20530   0.71928   0.00000  Uiso   1.00
O55    O     0.74580   0.21102   0.14656   0.00000  Uiso   1.00
O56    O     0.00000   0.54546   0.88202   0.00000  Uiso   1.00
O57    O     0.20209   0.84225   0.76784   0.00000  Uiso   1.00
O58    O     0.80130   0.24245   0.84685   0.00000  Uiso   1.00
O59    O     0.16233   0.79320   0.21381   0.00000  Uiso   1.00
O60    O     0.73598   0.77835   0.85667   0.00000  Uiso   1.00
O61    O     0.21016   0.16481   0.19972   0.00000  Uiso   1.00
O62    O     0.19895   0.75652   0.84824   0.00000  Uiso   1.00
O63    O     0.83966   0.20255   0.22880   0.00000  Uiso   1.00
O64    O     0.22344   0.18320   0.82974   0.00000  Uiso   1.00
O65    O     0.79659   0.84341   0.23482   0.00000  Uiso   1.00
O66    O     0.72170   0.76411   0.64320   0.00000  Uiso   1.00
O67    O     0.45454  -0.00000   0.11798   0.00000  Uiso   1.00
O68    O     0.33517   0.28988   0.30025   0.00000  Uiso   1.00
O69    O     0.75230   0.29366   0.64478   0.00000  Uiso   1.00
O70    O     0.29741   0.65818   0.27303   0.00000  Uiso   1.00
O71    O     0.31673   0.27660   0.67034   0.00000  Uiso   1.00
O72    O     0.65656   0.70335   0.26509   0.00000  Uiso   1.00
O73    O     0.24807   0.70680   0.64589   0.00000  Uiso   1.00
O74    O     0.70299   0.33892   0.27370   0.00000  Uiso   1.00
O75    O     0.29734   0.74659   0.34983   0.00000  Uiso   1.00
O76    O     0.66138   0.29429   0.71970   0.00000  Uiso   1.00
O77    O     0.23630   0.28271   0.35770   0.00000  Uiso   1.00
O78    O     0.54546   0.00000   0.88202   0.00000  Uiso   1.00
O79    O     0.70688   0.66301   0.70985   0.00000  Uiso   1.00
O80    O     0.71057   0.24500   0.35536   0.00000  Uiso   1.00
O81    O     0.33937   0.70542   0.72075   0.00000  Uiso   1.00
O82    O     0.73810   0.69235   0.34474   0.00000  Uiso   1.00
O83    O     0.29463   0.33968   0.78093   0.00000  Uiso   1.00
O84    O     0.00000   0.54546   0.11798   0.00000  Uiso   1.00
Zn1    Zn    0.06497   0.50000   0.29947   0.00000  Uiso   1.00
Zn2    Zn    0.43503   0.00000   0.20053   0.00000  Uiso   1.00
Zn3    Zn    0.00000   0.43503   0.79947   0.00000  Uiso   1.00
Zn4    Zn    0.00000   0.56497   0.20053   0.00000  Uiso   1.00
Zn5    Zn    0.43503   0.00000   0.79947   0.00000  Uiso   1.00
Zn6    Zn    0.56497   0.00000   0.20053   0.00000  Uiso   1.00
Zn7    Zn    0.00000   0.56497   0.79947   0.00000  Uiso   1.00
Zn8    Zn    0.00000   0.43503   0.20053   0.00000  Uiso   1.00
Zn9    Zn    0.93503   0.50000   0.70053   0.00000  Uiso   1.00
Zn10   Zn    0.50000   0.93503   0.29947   0.00000  Uiso   1.00
Zn11   Zn    0.50000   0.06497   0.70053   0.00000  Uiso   1.00
Zn12   Zn    0.93503   0.50000   0.29947   0.00000  Uiso   1.00
Zn13   Zn    0.06497   0.50000   0.70053   0.00000  Uiso   1.00
Zn14   Zn    0.50000   0.06497   0.29947   0.00000  Uiso   1.00
Zn15   Zn    0.50000   0.93503   0.70053   0.00000  Uiso   1.00
Zn16   Zn    0.56497   0.00000   0.79947   0.00000  Uiso   1.00
loop_
_geom_bond_atom_site_label_1
_geom_bond_atom_site_label_2
_geom_bond_distance
_geom_bond_site_symmetry_2
_ccdc_geom_bond_type
C1     C137    1.414   .     A
C1     C166    1.414   .     A
C1     C24     1.475   .     S
C2     C116    1.476   .     S
C2     C147    1.413   .     A
C2     C158    1.409   .     A
C3     C158    1.401   .     A
C3     C27     1.399   .     A
C3     H91     1.083   .     S
C4     C32     1.402   .     A
C4     H92     1.082   .     S
C4     C159    1.405   .     A
C5     C161    1.394   .     A
C5     H93     1.084   .     S
C5     C33     1.397   .     A
C6     C30     1.401   .     A
C6     H94     1.083   .     S
C6     C162    1.395   .     A
C7     C163    1.403   .     A
C7     C31     1.400   .     A
C7     H95     1.083   .     S
C8     H96     1.084   .     S
C8     C19     1.401   .     A
C8     C164    1.396   .     A
C9     C20     1.398   .     A
C9     H97     1.084   .     S
C9     C165    1.395   .     A
C10    H98     1.084   .     S
C10    C166    1.395   .     A
C10    C17     1.398   .     A
C11    C167    1.397   .     A
C11    C18     1.401   .     A
C11    H99     1.083   .     S
C12    C23     1.402   .     A
C12    H100    1.083   .     S
C12    C168    1.397   .     A
C13    C105    1.474   .     S
C13    C155    1.406   .     A
C13    C148    1.406   .     A
C14    C169    1.395   .     A
C14    C25     1.398   .     A
C14    H102    1.084   .     S
C15    C170    1.394   .     A
C15    H103    1.083   .     S
C15    C21     1.400   .     A
C16    H104    1.084   .     S
C16    C22     1.398   .     A
C16    C172    1.398   .     A
C17    C173    1.398   .     A
C17    C130    1.459   .     S
C18    C174    1.401   .     A
C18    C129    1.466   .     S
C19    C136    1.464   .     S
C19    C175    1.401   .     A
C20    C176    1.399   .     A
C20    C135    1.461   .     S
C21    C177    1.400   .     A
C21    C134    1.466   .     S
C22    C133    1.456   .     S
C22    C178    1.398   .     A
C23    C179    1.402   .     A
C23    C132    1.465   .     S
C24    C156    1.413   .     A
C24    C150    1.413   .     A
C25    C180    1.399   .     A
C25    C131    1.461   .     S
C26    C121    1.465   .     S
C26    C192    1.401   .     A
C26    C181    1.401   .     A
C27    C120    1.463   .     S
C27    C183    1.399   .     A
C28    C190    1.400   .     A
C28    C184    1.400   .     A
C28    C128    1.462   .     S
C29    C185    1.400   .     A
C29    C126    1.466   .     S
C29    C191    1.400   .     A
C30    C186    1.401   .     A
C30    C125    1.465   .     S
C31    C187    1.399   .     A
C31    C124    1.464   .     S
C32    C123    1.472   .     S
C32    C188    1.402   .     A
C33    C189    1.397   .     A
C33    C122    1.457   .     S
C34    O49     1.411   .     S
C34    C36     1.521   .     S
C34    H1      1.111   .     S
C34    H105    1.116   .     S
C35    C171    1.475   .     S
C35    C151    1.412   .     A
C35    C162    1.409   .     A
C36    H138    1.111   .     S
C36    H127    1.111   .     S
C36    H116    1.111   .     S
C37    C38     1.520   .     S
C37    H149    1.114   .     S
C37    O50     1.411   .     S
C37    H160    1.114   .     S
C38    H182    1.110   .     S
C38    H2      1.111   .     S
C38    H171    1.111   .     S
C39    O51     1.415   .     S
C39    C40     1.522   .     S
C39    H24     1.111   .     S
C39    H13     1.118   .     S
C40    H46     1.110   .     S
C40    H35     1.110   .     S
C40    H57     1.110   .     S
C41    H79     1.112   .     S
C41    C42     1.520   .     S
C41    O52     1.413   .     S
C41    H68     1.116   .     S
C42    H106    1.111   .     S
C42    H90     1.111   .     S
C42    H101    1.110   .     S
C43    C44     1.520   .     S
C43    O53     1.410   .     S
C43    H108    1.114   .     S
C43    H107    1.111   .     S
C44    H109    1.111   .     S
C44    H111    1.111   .     S
C44    H110    1.109   .     S
C45    H113    1.114   .     S
C45    H112    1.115   .     S
C45    C47     1.520   .     S
C45    O54     1.412   .     S
C46    C160    1.474   .     S
C46    C163    1.407   .     A
C46    C152    1.407   .     A
C47    H115    1.111   .     S
C47    H117    1.111   .     S
C47    H114    1.111   .     S
C48    H119    1.111   .     S
C48    O55     1.415   .     S
C48    H118    1.118   .     S
C48    C49     1.522   .     S
C49    H122    1.111   .     S
C49    H120    1.110   .     S
C49    H121    1.110   .     S
C50    O57     1.413   .     S
C50    H123    1.116   .     S
C50    C51     1.520   .     S
C50    H124    1.112   .     S
C51    H125    1.111   .     S
C51    H128    1.111   .     S
C51    H126    1.110   .     S
C52    H130    1.114   .     S
C52    C53     1.520   .     S
C52    H129    1.112   .     S
C52    O58     1.410   .     S
C53    H133    1.111   .     S
C53    H132    1.110   .     S
C53    H131    1.110   .     S
C54    H135    1.116   .     S
C54    C55     1.520   .     S
C54    H134    1.111   .     S
C54    O59     1.411   .     S
C55    H136    1.111   .     S
C55    H137    1.111   .     S
C55    H139    1.111   .     S
C56    H140    1.117   .     S
C56    O60     1.414   .     S
C56    C58     1.522   .     S
C56    H141    1.111   .     S
C57    C159    1.407   .     A
C57    C153    1.407   .     A
C57    C149    1.474   .     S
C58    H142    1.111   .     S
C58    H143    1.110   .     S
C58    H144    1.110   .     S
C59    C60     1.520   .     S
C59    O61     1.411   .     S
C59    H146    1.115   .     S
C59    H145    1.111   .     S
C60    H148    1.111   .     S
C60    H147    1.111   .     S
C60    H150    1.111   .     S
C61    O62     1.410   .     S
C61    H151    1.112   .     S
C61    H152    1.114   .     S
C61    C62     1.520   .     S
C62    H155    1.111   .     S
C62    H153    1.110   .     S
C62    H154    1.110   .     S
C63    H157    1.112   .     S
C63    O63     1.413   .     S
C63    H156    1.116   .     S
C63    C64     1.521   .     S
C64    H159    1.110   .     S
C64    H161    1.111   .     S
C64    H158    1.111   .     S
C65    H162    1.116   .     S
C65    O64     1.413   .     S
C65    H163    1.111   .     S
C65    C66     1.521   .     S
C66    H166    1.111   .     S
C66    H164    1.111   .     S
C66    H165    1.110   .     S
C67    H168    1.116   .     S
C67    O65     1.411   .     S
C67    H167    1.111   .     S
C67    C69     1.520   .     S
C68    C138    1.477   .     S
C68    C161    1.415   .     A
C68    C154    1.415   .     A
C69    H170    1.111   .     S
C69    H172    1.111   .     S
C69    H169    1.111   .     S
C70    O66     1.414   .     S
C70    H173    1.117   .     S
C70    C71     1.522   .     S
C70    H174    1.111   .     S
C71    H176    1.110   .     S
C71    H175    1.111   .     S
C71    H177    1.110   .     S
C72    H178    1.111   .     S
C72    C73     1.520   .     S
C72    O68     1.411   .     S
C72    H179    1.115   .     S
C73    H183    1.111   .     S
C73    H181    1.111   .     S
C73    H180    1.111   .     S
C74    O69     1.414   .     S
C74    H184    1.117   .     S
C74    C75     1.521   .     S
C74    H185    1.112   .     S
C75    H187    1.110   .     S
C75    H188    1.111   .     S
C75    H186    1.110   .     S
C76    O70     1.413   .     S
C76    H189    1.116   .     S
C76    C77     1.520   .     S
C76    H190    1.112   .     S
C77    H191    1.111   .     S
C77    H3      1.111   .     S
C77    H192    1.110   .     S
C78    O71     1.413   .     S
C78    C80     1.521   .     S
C78    H4      1.116   .     S
C78    H5      1.111   .     S
C79    C119    1.422   .     S
C79    C90     1.198   .     S
C80    H7      1.110   .     S
C80    H6      1.111   .     S
C80    H8      1.111   .     S
C81    H10     1.116   .     S
C81    H9      1.111   .     S
C81    C82     1.520   .     S
C81    O72     1.411   .     S
C82    H14     1.111   .     S
C82    H11     1.111   .     S
C82    H12     1.111   .     S
C83    H15     1.118   .     S
C83    C84     1.522   .     S
C83    O73     1.415   .     S
C83    H16     1.111   .     S
C84    H17     1.110   .     S
C84    H19     1.110   .     S
C84    H18     1.110   .     S
C85    C86     1.521   .     S
C85    O74     1.413   .     S
C85    H21     1.112   .     S
C85    H20     1.116   .     S
C86    H22     1.111   .     S
C86    H23     1.111   .     S
C86    H25     1.111   .     S
C87    O75     1.410   .     S
C87    C88     1.520   .     S
C87    H26     1.112   .     S
C87    H27     1.113   .     S
C88    H30     1.111   .     S
C88    H28     1.110   .     S
C88    H29     1.110   .     S
C89    H32     1.116   .     S
C89    O76     1.410   .     S
C89    C91     1.520   .     S
C89    H31     1.111   .     S
C90    C118    1.422   .     S
C91    H36     1.111   .     S
C91    H34     1.110   .     S
C91    H33     1.111   .     S
C92    O77     1.411   .     S
C92    C93     1.521   .     S
C92    H37     1.111   .     S
C92    H38     1.116   .     S
C93    H39     1.111   .     S
C93    H41     1.111   .     S
C93    H40     1.111   .     S
C94    O79     1.411   .     S
C94    H42     1.114   .     S
C94    H43     1.114   .     S
C94    C95     1.520   .     S
C95    H47     1.111   .     S
C95    H45     1.110   .     S
C95    H44     1.111   .     S
C96    H49     1.111   .     S
C96    H48     1.118   .     S
C96    O80     1.414   .     S
C96    C97     1.521   .     S
C97    H50     1.110   .     S
C97    H52     1.111   .     S
C97    H51     1.110   .     S
C98    H53     1.111   .     S
C98    C99     1.520   .     S
C98    H54     1.116   .     S
C98    O81     1.411   .     S
C99    H55     1.111   .     S
C99    H58     1.111   .     S
C99    H56     1.111   .     S
C100   O82     1.410   .     S
C100   H59     1.111   .     S
C100   C102    1.520   .     S
C100   H60     1.114   .     S
C101   C117    1.422   .     S
C101   C106    1.198   .     S
C102   H63     1.111   .     S
C102   H61     1.111   .     S
C102   H62     1.109   .     S
C103   H64     1.115   .     S
C103   O83     1.412   .     S
C103   C104    1.520   .     S
C103   H65     1.114   .     S
C104   H67     1.111   .     S
C104   H66     1.111   .     S
C104   H69     1.111   .     S
C105   C139    1.408   .     A
C105   C167    1.408   .     A
C106   C115    1.422   .     S
C107   C114    1.422   .     S
C107   C108    1.198   1_556 S
C108   C113    1.422   .     S
C108   C107    1.198   1_554 S
C109   C112    1.422   .     S
C109   C110    1.198   1_556 S
C110   C111    1.422   .     S
C110   C109    1.198   1_554 S
C111   O45     1.276   .     A
C111   O84     1.276   .     A
C112   O2      1.276   .     A
C112   O56     1.276   .     S
C113   O67     1.276   .     A
C113   O3      1.276   .     A
C114   O4      1.276   .     S
C114   O78     1.276   .     S
C115   O9      1.276   .     A
C115   O5      1.276   1_545 S
C116   C164    1.412   .     A
C116   C140    1.409   .     A
C117   O10     1.276   1_545 A
C117   O6      1.276   .     S
C118   O11     1.276   .     A
C118   O7      1.276   1_455 S
C119   O13     1.276   1_455 A
C119   O8      1.276   .     S
C120   O14     1.276   .     A
C120   O47     1.276   .     A
C121   O15     1.277   .     A
C121   O48     1.277   .     A
C122   O16     1.274   .     A
C122   O44     1.274   .     A
C123   O17     1.278   .     A
C123   O46     1.278   .     A
C124   O42     1.276   .     A
C124   O18     1.277   .     A
C125   O43     1.277   .     A
C125   O19     1.276   .     A
C126   O40     1.277   .     A
C126   O20     1.277   .     A
C127   C165    1.413   .     A
C127   C182    1.476   .     S
C127   C141    1.410   .     A
C128   O21     1.276   .     A
C128   O41     1.276   .     A
C129   O22     1.277   .     A
C129   O38     1.277   .     A
C130   O39     1.275   .     A
C130   O24     1.275   .     A
C131   O25     1.276   .     A
C131   O36     1.276   .     A
C132   O26     1.277   .     A
C132   O37     1.276   .     A
C133   O33     1.274   .     A
C133   O27     1.274   .     A
C134   O28     1.277   .     A
C134   O35     1.277   .     A
C135   O31     1.276   .     A
C135   O29     1.276   .     A
C136   O32     1.276   .     A
C136   O30     1.277   .     A
C137   C173    1.395   .     A
C137   O49     1.383   .     S
C138   C170    1.416   .     A
C138   C142    1.416   .     A
C139   O50     1.382   .     S
C139   C174    1.397   .     A
C140   O51     1.381   .     S
C140   C175    1.395   .     A
C141   C176    1.402   .     A
C141   O52     1.386   .     S
C142   C177    1.394   .     A
C142   O53     1.383   .     S
C143   C149    1.409   .     A
C143   C178    1.398   .     A
C143   O54     1.382   .     S
C144   O55     1.381   .     S
C144   C179    1.396   .     A
C144   C160    1.407   .     A
C145   C180    1.401   .     A
C145   C171    1.409   .     A
C145   O57     1.385   .     S
C146   C181    1.396   .     A
C146   O58     1.382   .     S
C146   C182    1.412   .     A
C147   C183    1.395   .     A
C147   O59     1.383   .     S
C148   O60     1.385   .     S
C148   C184    1.402   .     A
C149   C172    1.409   .     A
C150   C185    1.395   .     A
C150   O61     1.383   .     S
C151   O62     1.382   .     S
C151   C186    1.396   .     A
C152   C187    1.402   .     A
C152   O63     1.387   .     S
C153   C188    1.405   .     A
C153   O64     1.389   .     S
C154   C189    1.394   .     A
C154   O65     1.383   .     S
C155   C190    1.402   .     A
C155   O66     1.385   .     S
C156   C191    1.395   .     A
C156   O68     1.383   .     S
C157   O69     1.382   .     S
C157   C182    1.410   .     A
C157   C192    1.395   .     A
C158   O70     1.386   .     S
C159   O71     1.389   .     S
C160   C168    1.407   .     A
C161   O72     1.383   .     S
C162   O73     1.381   .     S
C163   O74     1.387   .     S
C164   O75     1.382   .     S
C165   O76     1.383   .     S
C166   O77     1.383   .     S
C167   O79     1.382   .     S
C168   O80     1.381   .     S
C169   C171    1.413   .     A
C169   O81     1.383   .     S
C170   O82     1.383   .     S
C172   O83     1.382   .     S
C173   H70     1.084   .     S
C174   H71     1.083   .     S
C175   H72     1.084   .     S
C176   H73     1.083   .     S
C177   H74     1.083   .     S
C178   H75     1.084   .     S
C179   H76     1.084   .     S
C180   H77     1.083   .     S
C181   H78     1.084   .     S
C183   H80     1.084   .     S
C184   H81     1.083   .     S
C185   H82     1.083   .     S
C186   H83     1.084   .     S
C187   H84     1.083   .     S
C188   H85     1.082   .     S
C189   H86     1.084   .     S
C190   H87     1.083   .     S
C191   H88     1.083   .     S
C192   H89     1.083   .     S
O1     Zn4     1.937   .     S
O1     Zn1     1.938   .     S
O1     Zn8     1.938   .     S
O1     Zn12    1.937   1_455 S
O2     Zn3     1.914   .     S
O3     Zn6     1.914   .     S
O4     Zn5     1.914   .     S
O5     Zn15    1.914   .     S
O5     C115    1.276   1_565 S
O6     Zn14    1.914   .     S
O7     Zn9     1.914   .     S
O7     C118    1.276   1_655 S
O8     Zn1     1.914   .     S
O9     Zn11    1.914   .     S
O10    Zn10    1.914   .     S
O10    C117    1.276   1_565 A
O11    Zn13    1.914   .     S
O12    Zn3     1.937   .     S
O12    Zn7     1.938   .     S
O12    Zn13    1.937   .     S
O12    Zn9     1.938   1_455 S
O13    C119    1.276   1_655 A
O13    Zn12    1.914   .     S
O14    Zn4     1.934   .     S
O15    Zn3     1.934   1_655 S
O16    Zn6     1.933   1_565 S
O17    Zn5     1.933   .     S
O18    Zn8     1.933   1_655 S
O19    Zn7     1.933   .     S
O20    Zn2     1.933   .     S
O21    Zn16    1.933   1_565 S
O22    Zn7     1.934   1_655 S
O23    Zn2     1.938   .     S
O23    Zn6     1.937   .     S
O23    Zn14    1.938   .     S
O23    Zn10    1.937   1_545 S
O24    Zn8     1.934   .     S
O25    Zn5     1.933   1_565 S
O26    Zn6     1.933   .     S
O27    Zn3     1.934   .     S
O28    Zn4     1.934   1_655 S
O29    Zn16    1.933   .     S
O30    Zn2     1.933   1_565 S
O31    Zn11    1.934   .     S
O32    Zn10    1.934   .     S
O33    Zn13    1.933   .     S
O34    Zn5     1.937   .     S
O34    Zn16    1.938   .     S
O34    Zn11    1.937   .     S
O34    Zn15    1.938   1_545 S
O35    Zn12    1.933   .     S
O36    Zn15    1.933   .     S
O37    Zn14    1.933   .     S
O38    Zn9     1.933   .     S
O39    Zn1     1.933   .     S
O40    Zn14    1.934   .     S
O41    Zn15    1.934   .     S
O42    Zn12    1.933   .     S
O43    Zn13    1.933   .     S
O44    Zn10    1.934   .     S
O45    Zn8     1.914   .     S
O46    Zn11    1.934   .     S
O47    Zn1     1.933   .     S
O48    Zn9     1.933   .     S
O56    Zn7     1.914   .     S
O67    Zn2     1.914   .     S
O78    Zn16    1.914   .     S
O84    Zn4     1.914   .     S
Zn2    O30     1.933   1_545 S
Zn3    O15     1.934   1_455 S
Zn4    O28     1.934   1_455 S
Zn5    O25     1.933   1_545 S
Zn6    O16     1.933   1_545 S
Zn7    O22     1.934   1_455 S
Zn8    O18     1.933   1_455 S
Zn9    O12     1.938   1_655 S
Zn10   O23     1.937   1_565 S
Zn12   O1      1.937   1_655 S
Zn15   O34     1.938   1_565 S
Zn16   O21     1.933   1_545 S
