data_str_m1_o1_o17_pcu_sym.82
_audit_creation_date              2020-01-03
_audit_creation_method            'Materials Studio'
_symmetry_space_group_name_H-M    'P1'
_symmetry_Int_Tables_number       1
_symmetry_cell_setting            triclinic
loop_
_symmetry_equiv_pos_as_xyz
  x,y,z
_cell_length_a                    36.4987
_cell_length_b                    36.6192
_cell_length_c                    34.4569
_cell_angle_alpha                 89.9117
_cell_angle_beta                  89.8601
_cell_angle_gamma                 89.9825
loop_
_atom_site_label
_atom_site_type_symbol
_atom_site_fract_x
_atom_site_fract_y
_atom_site_fract_z
_atom_site_U_iso_or_equiv
_atom_site_adp_type
_atom_site_occupancy
C1     C     0.46672   0.24745   0.41892   0.00000  Uiso   1.00
C2     C     0.28328   0.00260   0.08108   0.00000  Uiso   1.00
C3     C     0.25273   0.03336   0.54064   0.00000  Uiso   1.00
C4     C     0.46651   0.24737   0.45940   0.00000  Uiso   1.00
C5     C     0.03349   0.25230   0.54060   0.00000  Uiso   1.00
C6     C     0.25275   0.03332   0.45923   0.00000  Uiso   1.00
C7     C     0.24749   0.46668   0.54078   0.00000  Uiso   1.00
C8     C     0.28342   0.00272   0.95919   0.00000  Uiso   1.00
C9     C     0.21657   0.49765   0.04080   0.00000  Uiso   1.00
C10    C     0.49727   0.21664   0.95936   0.00000  Uiso   1.00
C11    C     0.00244   0.28336   0.04063   0.00000  Uiso   1.00
C12    C     0.21651   0.49764   0.95940   0.00000  Uiso   1.00
C13    C     0.00253   0.28307   0.91875   0.00000  Uiso   1.00
C14    C     0.28348   0.00269   0.04060   0.00000  Uiso   1.00
C15    C     0.00251   0.28332   0.95922   0.00000  Uiso   1.00
C16    C     0.49725   0.21667   0.04077   0.00000  Uiso   1.00
C17    C     0.09786   0.34824   0.24947   0.00000  Uiso   1.00
C18    C     0.40224   0.15166   0.75053   0.00000  Uiso   1.00
C19    C     0.15159   0.09769   0.24951   0.00000  Uiso   1.00
C20    C     0.34809   0.40192   0.75009   0.00000  Uiso   1.00
C21    C     0.40161   0.15229   0.25051   0.00000  Uiso   1.00
C22    C     0.09853   0.34759   0.74953   0.00000  Uiso   1.00
C23    C     0.34835   0.40224   0.24945   0.00000  Uiso   1.00
C24    C     0.49732   0.21692   0.08124   0.00000  Uiso   1.00
C25    C     0.15160   0.09772   0.75054   0.00000  Uiso   1.00
C26    C     0.09840   0.15228   0.74946   0.00000  Uiso   1.00
C27    C     0.40165   0.34776   0.25056   0.00000  Uiso   1.00
C28    C     0.15147   0.40241   0.75047   0.00000  Uiso   1.00
C29    C     0.34840   0.09771   0.24949   0.00000  Uiso   1.00
C30    C     0.40191   0.34808   0.74991   0.00000  Uiso   1.00
C31    C     0.09841   0.15231   0.25048   0.00000  Uiso   1.00
C32    C     0.34776   0.09834   0.74947   0.00000  Uiso   1.00
C33    C     0.15214   0.40175   0.25053   0.00000  Uiso   1.00
C34    C     0.49999   0.24982   0.47964   0.00000  Uiso   1.00
C35    C     0.28317   0.00265   0.91872   0.00000  Uiso   1.00
C36    C     0.00002   0.24981   0.52037   0.00000  Uiso   1.00
C37    C     0.25015   0.49999   0.47964   0.00000  Uiso   1.00
C38    C     0.25012   0.00001   0.52037   0.00000  Uiso   1.00
C39    C     0.24998   0.00019   0.97963   0.00000  Uiso   1.00
C40    C     0.25001   0.00018   0.02036   0.00000  Uiso   1.00
C41    C     0.49988   0.24999   0.97963   0.00000  Uiso   1.00
C42    C     0.49985   0.25001   0.02036   0.00000  Uiso   1.00
C43    C     0.11854   0.43713   0.30221   0.00000  Uiso   1.00
C44    C     0.36558   0.07980   0.68155   0.00000  Uiso   1.00
C45    C     0.05409   0.11167   0.28623   0.00000  Uiso   1.00
C46    C     0.21683   0.49766   0.08127   0.00000  Uiso   1.00
C47    C     0.45155   0.39481   0.74043   0.00000  Uiso   1.00
C48    C     0.36452   0.07858   0.31780   0.00000  Uiso   1.00
C49    C     0.13928   0.41755   0.68012   0.00000  Uiso   1.00
C50    C     0.43553   0.37913   0.30465   0.00000  Uiso   1.00
C51    C     0.06260   0.11932   0.69795   0.00000  Uiso   1.00
C52    C     0.12026   0.06402   0.69621   0.00000  Uiso   1.00
C53    C     0.37741   0.43388   0.30650   0.00000  Uiso   1.00
C54    C     0.08251   0.36245   0.68019   0.00000  Uiso   1.00
C55    C     0.42288   0.13232   0.31674   0.00000  Uiso   1.00
C56    C     0.39515   0.45122   0.74065   0.00000  Uiso   1.00
C57    C     0.49734   0.21685   0.91888   0.00000  Uiso   1.00
C58    C     0.11091   0.05569   0.28844   0.00000  Uiso   1.00
C59    C     0.42029   0.13711   0.68151   0.00000  Uiso   1.00
C60    C     0.06389   0.37888   0.30421   0.00000  Uiso   1.00
C61    C     0.38442   0.17021   0.81845   0.00000  Uiso   1.00
C62    C     0.13146   0.31286   0.19780   0.00000  Uiso   1.00
C63    C     0.29845   0.35519   0.75957   0.00000  Uiso   1.00
C64    C     0.19591   0.13833   0.21376   0.00000  Uiso   1.00
C65    C     0.11072   0.33245   0.81988   0.00000  Uiso   1.00
C66    C     0.38548   0.17142   0.18220   0.00000  Uiso   1.00
C67    C     0.18740   0.13068   0.80204   0.00000  Uiso   1.00
C68    C     0.00241   0.28314   0.08111   0.00000  Uiso   1.00
C69    C     0.31447   0.37086   0.19535   0.00000  Uiso   1.00
C70    C     0.37259   0.31612   0.19350   0.00000  Uiso   1.00
C71    C     0.12974   0.18598   0.80379   0.00000  Uiso   1.00
C72    C     0.32712   0.11768   0.18326   0.00000  Uiso   1.00
C73    C     0.16749   0.38755   0.81981   0.00000  Uiso   1.00
C74    C     0.13909   0.19431   0.21156   0.00000  Uiso   1.00
C75    C     0.35485   0.29878   0.75935   0.00000  Uiso   1.00
C76    C     0.18611   0.37112   0.19579   0.00000  Uiso   1.00
C77    C     0.32971   0.11289   0.81849   0.00000  Uiso   1.00
C78    C     0.49994   0.24991   0.39850   0.00000  Uiso   1.00
C79    C     0.00006   0.24990   0.60150   0.00000  Uiso   1.00
C80    C     0.25010   0.49996   0.39848   0.00000  Uiso   1.00
C81    C     0.03328   0.25231   0.58108   0.00000  Uiso   1.00
C82    C     0.25004   0.00004   0.60152   0.00000  Uiso   1.00
C83    C     0.24994   0.00010   0.89849   0.00000  Uiso   1.00
C84    C     0.25006   0.00009   0.10150   0.00000  Uiso   1.00
C85    C     0.49996   0.24996   0.89848   0.00000  Uiso   1.00
C86    C     0.49990   0.25003   0.10152   0.00000  Uiso   1.00
C87    C     0.06656   0.25474   0.47955   0.00000  Uiso   1.00
C88    C     0.43345   0.24486   0.52046   0.00000  Uiso   1.00
C89    C     0.24495   0.43367   0.47991   0.00000  Uiso   1.00
C90    C     0.25536   0.06633   0.52010   0.00000  Uiso   1.00
C91    C     0.43342   0.24488   0.47998   0.00000  Uiso   1.00
C92    C     0.25269   0.03308   0.41876   0.00000  Uiso   1.00
C93    C     0.06658   0.25475   0.52003   0.00000  Uiso   1.00
C94    C     0.25536   0.06632   0.47962   0.00000  Uiso   1.00
C95    C     0.24490   0.43369   0.52039   0.00000  Uiso   1.00
C96    C     0.31654   0.00525   0.97954   0.00000  Uiso   1.00
C97    C     0.18345   0.49514   0.02045   0.00000  Uiso   1.00
C98    C     0.49465   0.18367   0.97990   0.00000  Uiso   1.00
C99    C     0.00504   0.31633   0.02009   0.00000  Uiso   1.00
C100   C     0.18343   0.49513   0.97997   0.00000  Uiso   1.00
C101   C     0.31657   0.00524   0.02002   0.00000  Uiso   1.00
C102   C     0.00509   0.31631   0.97961   0.00000  Uiso   1.00
C103   C     0.24747   0.46693   0.58125   0.00000  Uiso   1.00
C104   C     0.49464   0.18368   0.02038   0.00000  Uiso   1.00
C105   C     0.25002   0.49998   0.35600   0.00000  Uiso   1.00
C106   C     0.25000   0.00002   0.64400   0.00000  Uiso   1.00
C107   C     0.49997   0.24998   0.35603   0.00000  Uiso   1.00
C108   C     0.00003   0.24997   0.64397   0.00000  Uiso   1.00
C109   C    -0.00000   0.24998   0.85600   0.00000  Uiso   1.00
C110   C     0.49998   0.25002   0.14400   0.00000  Uiso   1.00
C111   C     0.24997   0.00003   0.85603   0.00000  Uiso   1.00
C112   C     0.25003   0.00002   0.14397   0.00000  Uiso   1.00
C113   C     0.17979   0.06969   0.25023   0.00000  Uiso   1.00
C114   C     0.03318   0.25229   0.41873   0.00000  Uiso   1.00
C115   C     0.31996   0.43005   0.75003   0.00000  Uiso   1.00
C116   C     0.43024   0.17983   0.25051   0.00000  Uiso   1.00
C117   C     0.06980   0.32013   0.74951   0.00000  Uiso   1.00
C118   C     0.31990   0.42998   0.24976   0.00000  Uiso   1.00
C119   C     0.18002   0.06995   0.75014   0.00000  Uiso   1.00
C120   C     0.07005   0.31986   0.24977   0.00000  Uiso   1.00
C121   C     0.42976   0.18032   0.75056   0.00000  Uiso   1.00
C122   C     0.18020   0.42987   0.75049   0.00000  Uiso   1.00
C123   C     0.31976   0.07017   0.24949   0.00000  Uiso   1.00
C124   C     0.43004   0.31995   0.74996   0.00000  Uiso   1.00
C125   C     0.46683   0.24741   0.58127   0.00000  Uiso   1.00
C126   C     0.07021   0.18031   0.24977   0.00000  Uiso   1.00
C127   C     0.32024   0.06968   0.74943   0.00000  Uiso   1.00
C128   C     0.17995   0.43014   0.25023   0.00000  Uiso   1.00
C129   C     0.06998   0.18005   0.74985   0.00000  Uiso   1.00
C130   C     0.43010   0.32002   0.25024   0.00000  Uiso   1.00
C131   C     0.12213   0.40471   0.27629   0.00000  Uiso   1.00
C132   C     0.36958   0.10389   0.71604   0.00000  Uiso   1.00
C133   C     0.09064   0.11835   0.26809   0.00000  Uiso   1.00
C134   C     0.41241   0.38509   0.74688   0.00000  Uiso   1.00
C135   C     0.37026   0.10213   0.28293   0.00000  Uiso   1.00
C136   C     0.24759   0.46686   0.41889   0.00000  Uiso   1.00
C137   C     0.13190   0.39570   0.71589   0.00000  Uiso   1.00
C138   C     0.40384   0.37666   0.27752   0.00000  Uiso   1.00
C139   C     0.09513   0.12241   0.72386   0.00000  Uiso   1.00
C140   C     0.12206   0.09490   0.72430   0.00000  Uiso   1.00
C141   C     0.37680   0.40408   0.27708   0.00000  Uiso   1.00
C142   C     0.10528   0.36801   0.71544   0.00000  Uiso   1.00
C143   C     0.39722   0.12954   0.28333   0.00000  Uiso   1.00
C144   C     0.38526   0.41225   0.74698   0.00000  Uiso   1.00
C145   C     0.11752   0.09079   0.26767   0.00000  Uiso   1.00
C146   C     0.39708   0.13075   0.71658   0.00000  Uiso   1.00
C147   C     0.25266   0.03314   0.58112   0.00000  Uiso   1.00
C148   C     0.09481   0.37756   0.27588   0.00000  Uiso   1.00
C149   C     0.38042   0.14611   0.78396   0.00000  Uiso   1.00
C150   C     0.12787   0.34529   0.22371   0.00000  Uiso   1.00
C151   C     0.33759   0.36491   0.75312   0.00000  Uiso   1.00
C152   C     0.15936   0.13165   0.23191   0.00000  Uiso   1.00
C153   C     0.11810   0.35430   0.78411   0.00000  Uiso   1.00
C154   C     0.37974   0.14786   0.21707   0.00000  Uiso   1.00
C155   C     0.15488   0.12759   0.77614   0.00000  Uiso   1.00
C156   C     0.34616   0.37334   0.22248   0.00000  Uiso   1.00
C157   C     0.37320   0.34592   0.22292   0.00000  Uiso   1.00
C158   C     0.21672   0.49763   0.91892   0.00000  Uiso   1.00
C159   C     0.12794   0.15510   0.77569   0.00000  Uiso   1.00
C160   C     0.35278   0.12046   0.21667   0.00000  Uiso   1.00
C161   C     0.14472   0.38199   0.78456   0.00000  Uiso   1.00
C162   C     0.13248   0.15921   0.23233   0.00000  Uiso   1.00
C163   C     0.36474   0.33775   0.75301   0.00000  Uiso   1.00
C164   C     0.15519   0.37244   0.22412   0.00000  Uiso   1.00
C165   C     0.35292   0.11925   0.78342   0.00000  Uiso   1.00
C166   C     0.03344   0.25229   0.45920   0.00000  Uiso   1.00
C167   C     0.46657   0.24734   0.54081   0.00000  Uiso   1.00
C168   C     0.24756   0.46664   0.45937   0.00000  Uiso   1.00
H169   H     0.44100   0.24552   0.40336   0.00000  Uiso   1.00
H170   H     0.30899   0.00458   0.09663   0.00000  Uiso   1.00
H171   H     0.00463   0.30869   0.90308   0.00000  Uiso   1.00
H172   H     0.49528   0.19130   0.09692   0.00000  Uiso   1.00
H173   H     0.30887   0.00465   0.90302   0.00000  Uiso   1.00
H174   H     0.19112   0.49566   0.09697   0.00000  Uiso   1.00
H175   H     0.49527   0.19124   0.90330   0.00000  Uiso   1.00
H176   H     0.00445   0.30877   0.09668   0.00000  Uiso   1.00
H177   H     0.09241   0.25666   0.46416   0.00000  Uiso   1.00
H178   H     0.40760   0.24293   0.53585   0.00000  Uiso   1.00
H179   H     0.24294   0.40789   0.46467   0.00000  Uiso   1.00
H180   H     0.05900   0.25430   0.59663   0.00000  Uiso   1.00
H181   H     0.25739   0.09211   0.53535   0.00000  Uiso   1.00
H182   H     0.40755   0.24296   0.46476   0.00000  Uiso   1.00
H183   H     0.09246   0.25668   0.53524   0.00000  Uiso   1.00
H184   H     0.25740   0.09208   0.46426   0.00000  Uiso   1.00
H185   H     0.24285   0.40792   0.53575   0.00000  Uiso   1.00
H186   H     0.34239   0.00723   0.96415   0.00000  Uiso   1.00
H187   H     0.15760   0.49318   0.03584   0.00000  Uiso   1.00
H188   H     0.49262   0.15789   0.96465   0.00000  Uiso   1.00
H189   H     0.00706   0.34211   0.03534   0.00000  Uiso   1.00
H190   H     0.15755   0.49315   0.96476   0.00000  Uiso   1.00
H191   H     0.25472   0.05870   0.40308   0.00000  Uiso   1.00
H192   H     0.34244   0.00720   0.03524   0.00000  Uiso   1.00
H193   H     0.00714   0.34208   0.96425   0.00000  Uiso   1.00
H194   H     0.49261   0.15791   0.03574   0.00000  Uiso   1.00
H195   H     0.14265   0.47146   0.34014   0.00000  Uiso   1.00
H196   H     0.33320   0.06114   0.63855   0.00000  Uiso   1.00
H197   H     0.01388   0.13018   0.32140   0.00000  Uiso   1.00
H198   H     0.49707   0.38775   0.70806   0.00000  Uiso   1.00
H199   H     0.35883   0.07564   0.37598   0.00000  Uiso   1.00
H200   H     0.14874   0.41764   0.62240   0.00000  Uiso   1.00
H201   H     0.46787   0.35387   0.34382   0.00000  Uiso   1.00
H202   H     0.24536   0.44131   0.59692   0.00000  Uiso   1.00
H203   H     0.02956   0.14350   0.65869   0.00000  Uiso   1.00
H204   H     0.11308   0.04795   0.64077   0.00000  Uiso   1.00
H205   H     0.38243   0.44792   0.36283   0.00000  Uiso   1.00
H206   H     0.06741   0.32899   0.63661   0.00000  Uiso   1.00
H207   H     0.44430   0.16339   0.35933   0.00000  Uiso   1.00
H208   H     0.38836   0.49660   0.70831   0.00000  Uiso   1.00
H209   H     0.09522   0.03064   0.33794   0.00000  Uiso   1.00
H210   H     0.42248   0.14472   0.62354   0.00000  Uiso   1.00
H211   H     0.04785   0.38531   0.35985   0.00000  Uiso   1.00
H212   H     0.41680   0.18887   0.86145   0.00000  Uiso   1.00
H213   H     0.05889   0.25423   0.40304   0.00000  Uiso   1.00
H214   H     0.10735   0.27854   0.15986   0.00000  Uiso   1.00
H215   H     0.25293   0.36224   0.79194   0.00000  Uiso   1.00
H216   H     0.23612   0.11982   0.17860   0.00000  Uiso   1.00
H217   H     0.10126   0.33236   0.87760   0.00000  Uiso   1.00
H218   H     0.39117   0.17436   0.12402   0.00000  Uiso   1.00
H219   H     0.22044   0.10650   0.84132   0.00000  Uiso   1.00
H220   H     0.28213   0.39613   0.15618   0.00000  Uiso   1.00
H221   H     0.36756   0.30208   0.13718   0.00000  Uiso   1.00
H222   H     0.13692   0.20205   0.85923   0.00000  Uiso   1.00
H223   H     0.30570   0.08661   0.14067   0.00000  Uiso   1.00
H224   H     0.44112   0.24545   0.59698   0.00000  Uiso   1.00
H225   H     0.18259   0.42101   0.86339   0.00000  Uiso   1.00
H226   H     0.15479   0.21936   0.16206   0.00000  Uiso   1.00
H227   H     0.36164   0.25340   0.79169   0.00000  Uiso   1.00
H228   H     0.20215   0.36469   0.14015   0.00000  Uiso   1.00
H229   H     0.32751   0.10530   0.87646   0.00000  Uiso   1.00
H230   H     0.24555   0.44123   0.40332   0.00000  Uiso   1.00
H231   H     0.25474   0.05876   0.59670   0.00000  Uiso   1.00
H232   H     0.19101   0.49560   0.90336   0.00000  Uiso   1.00
O233   O     0.25000  -0.00000   0.25000   0.00000  Uiso   1.00
O234   O     0.25000   0.46963   0.66245   0.00000  Uiso   1.00
O235   O     0.30411   0.40122   0.17328   0.00000  Uiso   1.00
O236   O     0.37654   0.28432   0.20356   0.00000  Uiso   1.00
O237   O     0.36746   0.32457   0.15430   0.00000  Uiso   1.00
O238   O     0.12548   0.21740   0.79261   0.00000  Uiso   1.00
O239   O     0.13631   0.17895   0.84306   0.00000  Uiso   1.00
O240   O     0.30907   0.14430   0.17357   0.00000  Uiso   1.00
O241   O     0.32410   0.08501   0.16261   0.00000  Uiso   1.00
O242   O     0.18689   0.36273   0.83170   0.00000  Uiso   1.00
O243   O     0.16591   0.42065   0.83990   0.00000  Uiso   1.00
O244   O     0.13429   0.22340   0.22817   0.00000  Uiso   1.00
O245   O     0.46964   0.25000   0.33755   0.00000  Uiso   1.00
O246   O     0.15112   0.19391   0.17300   0.00000  Uiso   1.00
O247   O     0.33483   0.28303   0.73645   0.00000  Uiso   1.00
O248   O     0.36964   0.27988   0.79092   0.00000  Uiso   1.00
O249   O     0.21764   0.37541   0.20681   0.00000  Uiso   1.00
O250   O     0.17900   0.36499   0.15647   0.00000  Uiso   1.00
O251   O     0.29641   0.11056   0.81541   0.00000  Uiso   1.00
O252   O     0.34606   0.10962   0.85499   0.00000  Uiso   1.00
O253   O     0.03037   0.25000   0.66245   0.00000  Uiso   1.00
O254   O     0.00000   0.21963   0.83755   0.00000  Uiso   1.00
O255   O     0.00000   0.28036   0.16245   0.00000  Uiso   1.00
O256   O     0.28037  -0.00000   0.83755   0.00000  Uiso   1.00
O257   O     0.21964  -0.00000   0.16245   0.00000  Uiso   1.00
O258   O     0.00000   0.28037   0.83755   0.00000  Uiso   1.00
O259   O     0.00000   0.21963   0.16245   0.00000  Uiso   1.00
O260   O     0.21964  -0.00000   0.83755   0.00000  Uiso   1.00
O261   O     0.25000  -0.00000   0.75000   0.00000  Uiso   1.00
O262   O     0.28037  -0.00000   0.16245   0.00000  Uiso   1.00
O263   O     0.20725   0.07307   0.27302   0.00000  Uiso   1.00
O264   O     0.29276   0.42692   0.72698   0.00000  Uiso   1.00
O265   O     0.42693   0.20724   0.27302   0.00000  Uiso   1.00
O266   O     0.07308   0.29275   0.72698   0.00000  Uiso   1.00
O267   O     0.29276   0.42692   0.27302   0.00000  Uiso   1.00
O268   O     0.20725   0.07307   0.72698   0.00000  Uiso   1.00
O269   O     0.07308   0.29275   0.27302   0.00000  Uiso   1.00
O270   O     0.42693   0.20724   0.72698   0.00000  Uiso   1.00
O271   O     0.20725   0.42692   0.72698   0.00000  Uiso   1.00
O272   O     0.00000   0.25000   0.25000   0.00000  Uiso   1.00
O273   O     0.29276   0.07307   0.27302   0.00000  Uiso   1.00
O274   O     0.42693   0.29275   0.72698   0.00000  Uiso   1.00
O275   O     0.07308   0.20724   0.27302   0.00000  Uiso   1.00
O276   O     0.29276   0.07307   0.72698   0.00000  Uiso   1.00
O277   O     0.20725   0.42692   0.27302   0.00000  Uiso   1.00
O278   O     0.07308   0.20724   0.72698   0.00000  Uiso   1.00
O279   O     0.42693   0.29275   0.27302   0.00000  Uiso   1.00
O280   O     0.45725   0.32307   0.77302   0.00000  Uiso   1.00
O281   O     0.04276   0.17692   0.22698   0.00000  Uiso   1.00
O282   O     0.17693   0.45724   0.77302   0.00000  Uiso   1.00
O283   O     0.00000   0.25000   0.75000   0.00000  Uiso   1.00
O284   O     0.32308   0.04275   0.22698   0.00000  Uiso   1.00
O285   O     0.04276   0.17692   0.77302   0.00000  Uiso   1.00
O286   O     0.45725   0.32307   0.22698   0.00000  Uiso   1.00
O287   O     0.32308   0.04275   0.77302   0.00000  Uiso   1.00
O288   O     0.17693   0.45724   0.22698   0.00000  Uiso   1.00
O289   O     0.45725   0.17692   0.22698   0.00000  Uiso   1.00
O290   O     0.04276   0.32307   0.77302   0.00000  Uiso   1.00
O291   O     0.17693   0.04275   0.22698   0.00000  Uiso   1.00
O292   O     0.32308   0.45724   0.77302   0.00000  Uiso   1.00
O293   O     0.04276   0.32307   0.22698   0.00000  Uiso   1.00
O294   O     0.25000   0.46963   0.33755   0.00000  Uiso   1.00
O295   O     0.45725   0.17692   0.77302   0.00000  Uiso   1.00
O296   O     0.32308   0.45724   0.22698   0.00000  Uiso   1.00
O297   O     0.17693   0.04275   0.77302   0.00000  Uiso   1.00
O298   O     0.08933   0.45340   0.30437   0.00000  Uiso   1.00
O299   O     0.14850   0.44907   0.32399   0.00000  Uiso   1.00
O300   O     0.39172   0.06176   0.67029   0.00000  Uiso   1.00
O301   O     0.33239   0.07848   0.66145   0.00000  Uiso   1.00
O302   O     0.03737   0.08350   0.27925   0.00000  Uiso   1.00
O303   O     0.03880   0.13772   0.31111   0.00000  Uiso   1.00
O304   O     0.46739   0.41492   0.76316   0.00000  Uiso   1.00
O305   O     0.25000   0.03036   0.66245   0.00000  Uiso   1.00
O306   O     0.47048   0.37981   0.70894   0.00000  Uiso   1.00
O307   O     0.36125   0.04552   0.31424   0.00000  Uiso   1.00
O308   O     0.36287   0.09437   0.35469   0.00000  Uiso   1.00
O309   O     0.14136   0.45084   0.68190   0.00000  Uiso   1.00
O310   O     0.14381   0.39993   0.64445   0.00000  Uiso   1.00
O311   O     0.45254   0.40777   0.30758   0.00000  Uiso   1.00
O312   O     0.44589   0.34878   0.32672   0.00000  Uiso   1.00
O313   O     0.04512   0.09085   0.69688   0.00000  Uiso   1.00
O314   O     0.05201   0.14896   0.67494   0.00000  Uiso   1.00
O315   O     0.12452   0.03260   0.70739   0.00000  Uiso   1.00
O316   O     0.03037   0.25000   0.33755   0.00000  Uiso   1.00
O317   O     0.11369   0.07105   0.65694   0.00000  Uiso   1.00
O318   O     0.37346   0.46567   0.29645   0.00000  Uiso   1.00
O319   O     0.38253   0.42543   0.34570   0.00000  Uiso   1.00
O320   O     0.06311   0.38726   0.66830   0.00000  Uiso   1.00
O321   O     0.08409   0.32935   0.66010   0.00000  Uiso   1.00
O322   O     0.44093   0.10570   0.32643   0.00000  Uiso   1.00
O323   O     0.42590   0.16499   0.33739   0.00000  Uiso   1.00
O324   O     0.41517   0.46697   0.76355   0.00000  Uiso   1.00
O325   O     0.38036   0.47012   0.70908   0.00000  Uiso   1.00
O326   O     0.11571   0.02660   0.27183   0.00000  Uiso   1.00
O327   O     0.46964   0.25000   0.66245   0.00000  Uiso   1.00
O328   O     0.09888   0.05609   0.32700   0.00000  Uiso   1.00
O329   O     0.45359   0.13943   0.68459   0.00000  Uiso   1.00
O330   O     0.40393   0.14039   0.64501   0.00000  Uiso   1.00
O331   O     0.03236   0.37459   0.29319   0.00000  Uiso   1.00
O332   O     0.07100   0.38501   0.34353   0.00000  Uiso   1.00
O333   O     0.35827   0.18824   0.82971   0.00000  Uiso   1.00
O334   O     0.41760   0.17153   0.83855   0.00000  Uiso   1.00
O335   O     0.16067   0.29660   0.19563   0.00000  Uiso   1.00
O336   O     0.10150   0.30093   0.17601   0.00000  Uiso   1.00
O337   O     0.28261   0.33509   0.73683   0.00000  Uiso   1.00
O338   O     0.25000   0.03036   0.33755   0.00000  Uiso   1.00
O339   O     0.27952   0.37018   0.79106   0.00000  Uiso   1.00
O340   O     0.21263   0.16650   0.22075   0.00000  Uiso   1.00
O341   O     0.21120   0.11228   0.18888   0.00000  Uiso   1.00
O342   O     0.10864   0.29916   0.81809   0.00000  Uiso   1.00
O343   O     0.10619   0.35007   0.85555   0.00000  Uiso   1.00
O344   O     0.38875   0.20448   0.18576   0.00000  Uiso   1.00
O345   O     0.38713   0.15563   0.14531   0.00000  Uiso   1.00
O346   O     0.20488   0.15915   0.80312   0.00000  Uiso   1.00
O347   O     0.19799   0.10104   0.82506   0.00000  Uiso   1.00
O348   O     0.29746   0.34223   0.19243   0.00000  Uiso   1.00
Zn349  Zn    0.20660  -0.00000   0.21735   0.00000  Uiso   1.00
Zn350  Zn    0.04341   0.25000   0.28265   0.00000  Uiso   1.00
Zn351  Zn    0.25000   0.45659   0.71735   0.00000  Uiso   1.00
Zn352  Zn    0.25000   0.04340   0.28265   0.00000  Uiso   1.00
Zn353  Zn    0.04341   0.25000   0.71735   0.00000  Uiso   1.00
Zn354  Zn    0.45660   0.25000   0.28265   0.00000  Uiso   1.00
Zn355  Zn    0.25000   0.04340   0.71735   0.00000  Uiso   1.00
Zn356  Zn    0.25000   0.45659   0.28265   0.00000  Uiso   1.00
Zn357  Zn    0.29341  -0.00000   0.78265   0.00000  Uiso   1.00
Zn358  Zn    0.00000   0.20659   0.21735   0.00000  Uiso   1.00
Zn359  Zn    0.00000   0.29340   0.78265   0.00000  Uiso   1.00
Zn360  Zn    0.29341  -0.00000   0.21735   0.00000  Uiso   1.00
Zn361  Zn    0.20660  -0.00000   0.78265   0.00000  Uiso   1.00
Zn362  Zn    0.00000   0.29340   0.21735   0.00000  Uiso   1.00
Zn363  Zn    0.00000   0.20659   0.78265   0.00000  Uiso   1.00
Zn364  Zn    0.45660   0.25000   0.71735   0.00000  Uiso   1.00
C365   C     0.96672   0.24745   0.41892   0.00000  Uiso   1.00
C366   C     0.78328   0.00260   0.08108   0.00000  Uiso   1.00
C367   C     0.75273   0.03336   0.54064   0.00000  Uiso   1.00
C368   C     0.96651   0.24737   0.45940   0.00000  Uiso   1.00
C369   C     0.53349   0.25230   0.54060   0.00000  Uiso   1.00
C370   C     0.75275   0.03332   0.45923   0.00000  Uiso   1.00
C371   C     0.74749   0.46668   0.54078   0.00000  Uiso   1.00
C372   C     0.78342   0.00272   0.95919   0.00000  Uiso   1.00
C373   C     0.71657   0.49765   0.04080   0.00000  Uiso   1.00
C374   C     0.99727   0.21664   0.95936   0.00000  Uiso   1.00
C375   C     0.50244   0.28336   0.04063   0.00000  Uiso   1.00
C376   C     0.71651   0.49764   0.95940   0.00000  Uiso   1.00
C377   C     0.50253   0.28307   0.91875   0.00000  Uiso   1.00
C378   C     0.78348   0.00269   0.04060   0.00000  Uiso   1.00
C379   C     0.50251   0.28332   0.95922   0.00000  Uiso   1.00
C380   C     0.99725   0.21667   0.04077   0.00000  Uiso   1.00
C381   C     0.59786   0.34824   0.24947   0.00000  Uiso   1.00
C382   C     0.90224   0.15166   0.75053   0.00000  Uiso   1.00
C383   C     0.65159   0.09769   0.24951   0.00000  Uiso   1.00
C384   C     0.84809   0.40192   0.75009   0.00000  Uiso   1.00
C385   C     0.90161   0.15229   0.25051   0.00000  Uiso   1.00
C386   C     0.59853   0.34759   0.74953   0.00000  Uiso   1.00
C387   C     0.84835   0.40224   0.24945   0.00000  Uiso   1.00
C388   C     0.99732   0.21692   0.08124   0.00000  Uiso   1.00
C389   C     0.65160   0.09772   0.75054   0.00000  Uiso   1.00
C390   C     0.59840   0.15228   0.74946   0.00000  Uiso   1.00
C391   C     0.90165   0.34776   0.25056   0.00000  Uiso   1.00
C392   C     0.65147   0.40241   0.75047   0.00000  Uiso   1.00
C393   C     0.84840   0.09771   0.24949   0.00000  Uiso   1.00
C394   C     0.90191   0.34808   0.74991   0.00000  Uiso   1.00
C395   C     0.59841   0.15231   0.25048   0.00000  Uiso   1.00
C396   C     0.84776   0.09834   0.74947   0.00000  Uiso   1.00
C397   C     0.65214   0.40175   0.25053   0.00000  Uiso   1.00
C398   C     0.99999   0.24982   0.47964   0.00000  Uiso   1.00
C399   C     0.78317   0.00265   0.91872   0.00000  Uiso   1.00
C400   C     0.50002   0.24981   0.52037   0.00000  Uiso   1.00
C401   C     0.75015   0.49999   0.47964   0.00000  Uiso   1.00
C402   C     0.75012   0.00001   0.52037   0.00000  Uiso   1.00
C403   C     0.74998   0.00019   0.97963   0.00000  Uiso   1.00
C404   C     0.75001   0.00018   0.02036   0.00000  Uiso   1.00
C405   C     0.99988   0.24999   0.97963   0.00000  Uiso   1.00
C406   C     0.99985   0.25001   0.02036   0.00000  Uiso   1.00
C407   C     0.61854   0.43713   0.30221   0.00000  Uiso   1.00
C408   C     0.86558   0.07980   0.68155   0.00000  Uiso   1.00
C409   C     0.55409   0.11167   0.28623   0.00000  Uiso   1.00
C410   C     0.71683   0.49766   0.08127   0.00000  Uiso   1.00
C411   C     0.95155   0.39481   0.74043   0.00000  Uiso   1.00
C412   C     0.86452   0.07858   0.31780   0.00000  Uiso   1.00
C413   C     0.63928   0.41755   0.68012   0.00000  Uiso   1.00
C414   C     0.93553   0.37913   0.30465   0.00000  Uiso   1.00
C415   C     0.56260   0.11932   0.69795   0.00000  Uiso   1.00
C416   C     0.62026   0.06402   0.69621   0.00000  Uiso   1.00
C417   C     0.87741   0.43388   0.30650   0.00000  Uiso   1.00
C418   C     0.58251   0.36245   0.68019   0.00000  Uiso   1.00
C419   C     0.92288   0.13232   0.31674   0.00000  Uiso   1.00
C420   C     0.89515   0.45122   0.74065   0.00000  Uiso   1.00
C421   C     0.99734   0.21685   0.91888   0.00000  Uiso   1.00
C422   C     0.61091   0.05569   0.28844   0.00000  Uiso   1.00
C423   C     0.92029   0.13711   0.68151   0.00000  Uiso   1.00
C424   C     0.56389   0.37888   0.30421   0.00000  Uiso   1.00
C425   C     0.88442   0.17021   0.81845   0.00000  Uiso   1.00
C426   C     0.63146   0.31286   0.19780   0.00000  Uiso   1.00
C427   C     0.79845   0.35519   0.75957   0.00000  Uiso   1.00
C428   C     0.69591   0.13833   0.21376   0.00000  Uiso   1.00
C429   C     0.61072   0.33245   0.81988   0.00000  Uiso   1.00
C430   C     0.88548   0.17142   0.18220   0.00000  Uiso   1.00
C431   C     0.68740   0.13068   0.80204   0.00000  Uiso   1.00
C432   C     0.50241   0.28314   0.08111   0.00000  Uiso   1.00
C433   C     0.81447   0.37086   0.19535   0.00000  Uiso   1.00
C434   C     0.87259   0.31612   0.19350   0.00000  Uiso   1.00
C435   C     0.62974   0.18598   0.80379   0.00000  Uiso   1.00
C436   C     0.82712   0.11768   0.18326   0.00000  Uiso   1.00
C437   C     0.66749   0.38755   0.81981   0.00000  Uiso   1.00
C438   C     0.63909   0.19431   0.21156   0.00000  Uiso   1.00
C439   C     0.85485   0.29878   0.75935   0.00000  Uiso   1.00
C440   C     0.68611   0.37112   0.19579   0.00000  Uiso   1.00
C441   C     0.82971   0.11289   0.81849   0.00000  Uiso   1.00
C442   C     0.99994   0.24991   0.39850   0.00000  Uiso   1.00
C443   C     0.50006   0.24990   0.60150   0.00000  Uiso   1.00
C444   C     0.75010   0.49996   0.39848   0.00000  Uiso   1.00
C445   C     0.53328   0.25231   0.58108   0.00000  Uiso   1.00
C446   C     0.75004   0.00004   0.60152   0.00000  Uiso   1.00
C447   C     0.74994   0.00010   0.89849   0.00000  Uiso   1.00
C448   C     0.75006   0.00009   0.10150   0.00000  Uiso   1.00
C449   C     0.99996   0.24996   0.89848   0.00000  Uiso   1.00
C450   C     0.99990   0.25003   0.10152   0.00000  Uiso   1.00
C451   C     0.56656   0.25474   0.47955   0.00000  Uiso   1.00
C452   C     0.93345   0.24486   0.52046   0.00000  Uiso   1.00
C453   C     0.74495   0.43367   0.47991   0.00000  Uiso   1.00
C454   C     0.75536   0.06633   0.52010   0.00000  Uiso   1.00
C455   C     0.93342   0.24488   0.47998   0.00000  Uiso   1.00
C456   C     0.75269   0.03308   0.41876   0.00000  Uiso   1.00
C457   C     0.56658   0.25475   0.52003   0.00000  Uiso   1.00
C458   C     0.75536   0.06632   0.47962   0.00000  Uiso   1.00
C459   C     0.74490   0.43369   0.52039   0.00000  Uiso   1.00
C460   C     0.81654   0.00525   0.97954   0.00000  Uiso   1.00
C461   C     0.68345   0.49514   0.02045   0.00000  Uiso   1.00
C462   C     0.99465   0.18367   0.97990   0.00000  Uiso   1.00
C463   C     0.50504   0.31633   0.02009   0.00000  Uiso   1.00
C464   C     0.68343   0.49513   0.97997   0.00000  Uiso   1.00
C465   C     0.81657   0.00524   0.02002   0.00000  Uiso   1.00
C466   C     0.50509   0.31631   0.97961   0.00000  Uiso   1.00
C467   C     0.74747   0.46693   0.58125   0.00000  Uiso   1.00
C468   C     0.99464   0.18368   0.02038   0.00000  Uiso   1.00
C469   C     0.75002   0.49998   0.35600   0.00000  Uiso   1.00
C470   C     0.75000   0.00002   0.64400   0.00000  Uiso   1.00
C471   C     0.99997   0.24998   0.35603   0.00000  Uiso   1.00
C472   C     0.50003   0.24997   0.64397   0.00000  Uiso   1.00
C473   C     0.50000   0.24998   0.85600   0.00000  Uiso   1.00
C474   C     0.99998   0.25002   0.14400   0.00000  Uiso   1.00
C475   C     0.74997   0.00003   0.85603   0.00000  Uiso   1.00
C476   C     0.75003   0.00002   0.14397   0.00000  Uiso   1.00
C477   C     0.67979   0.06969   0.25023   0.00000  Uiso   1.00
C478   C     0.53318   0.25229   0.41873   0.00000  Uiso   1.00
C479   C     0.81996   0.43005   0.75003   0.00000  Uiso   1.00
C480   C     0.93024   0.17983   0.25051   0.00000  Uiso   1.00
C481   C     0.56980   0.32013   0.74951   0.00000  Uiso   1.00
C482   C     0.81990   0.42998   0.24976   0.00000  Uiso   1.00
C483   C     0.68002   0.06995   0.75014   0.00000  Uiso   1.00
C484   C     0.57005   0.31986   0.24977   0.00000  Uiso   1.00
C485   C     0.92976   0.18032   0.75056   0.00000  Uiso   1.00
C486   C     0.68020   0.42987   0.75049   0.00000  Uiso   1.00
C487   C     0.81976   0.07017   0.24949   0.00000  Uiso   1.00
C488   C     0.93004   0.31995   0.74996   0.00000  Uiso   1.00
C489   C     0.96683   0.24741   0.58127   0.00000  Uiso   1.00
C490   C     0.57021   0.18031   0.24977   0.00000  Uiso   1.00
C491   C     0.82024   0.06968   0.74943   0.00000  Uiso   1.00
C492   C     0.67995   0.43014   0.25023   0.00000  Uiso   1.00
C493   C     0.56998   0.18005   0.74985   0.00000  Uiso   1.00
C494   C     0.93010   0.32002   0.25024   0.00000  Uiso   1.00
C495   C     0.62213   0.40471   0.27629   0.00000  Uiso   1.00
C496   C     0.86958   0.10389   0.71604   0.00000  Uiso   1.00
C497   C     0.59064   0.11835   0.26809   0.00000  Uiso   1.00
C498   C     0.91241   0.38509   0.74688   0.00000  Uiso   1.00
C499   C     0.87026   0.10213   0.28293   0.00000  Uiso   1.00
C500   C     0.74759   0.46686   0.41889   0.00000  Uiso   1.00
C501   C     0.63190   0.39570   0.71589   0.00000  Uiso   1.00
C502   C     0.90384   0.37666   0.27752   0.00000  Uiso   1.00
C503   C     0.59513   0.12241   0.72386   0.00000  Uiso   1.00
C504   C     0.62206   0.09490   0.72430   0.00000  Uiso   1.00
C505   C     0.87680   0.40408   0.27708   0.00000  Uiso   1.00
C506   C     0.60528   0.36801   0.71544   0.00000  Uiso   1.00
C507   C     0.89722   0.12954   0.28333   0.00000  Uiso   1.00
C508   C     0.88526   0.41225   0.74698   0.00000  Uiso   1.00
C509   C     0.61752   0.09079   0.26767   0.00000  Uiso   1.00
C510   C     0.89708   0.13075   0.71658   0.00000  Uiso   1.00
C511   C     0.75266   0.03314   0.58112   0.00000  Uiso   1.00
C512   C     0.59481   0.37756   0.27588   0.00000  Uiso   1.00
C513   C     0.88042   0.14611   0.78396   0.00000  Uiso   1.00
C514   C     0.62787   0.34529   0.22371   0.00000  Uiso   1.00
C515   C     0.83759   0.36491   0.75312   0.00000  Uiso   1.00
C516   C     0.65936   0.13165   0.23191   0.00000  Uiso   1.00
C517   C     0.61810   0.35430   0.78411   0.00000  Uiso   1.00
C518   C     0.87974   0.14786   0.21707   0.00000  Uiso   1.00
C519   C     0.65488   0.12759   0.77614   0.00000  Uiso   1.00
C520   C     0.84616   0.37334   0.22248   0.00000  Uiso   1.00
C521   C     0.87320   0.34592   0.22292   0.00000  Uiso   1.00
C522   C     0.71672   0.49763   0.91892   0.00000  Uiso   1.00
C523   C     0.62794   0.15510   0.77569   0.00000  Uiso   1.00
C524   C     0.85278   0.12046   0.21667   0.00000  Uiso   1.00
C525   C     0.64472   0.38199   0.78456   0.00000  Uiso   1.00
C526   C     0.63248   0.15921   0.23233   0.00000  Uiso   1.00
C527   C     0.86474   0.33775   0.75301   0.00000  Uiso   1.00
C528   C     0.65519   0.37244   0.22412   0.00000  Uiso   1.00
C529   C     0.85292   0.11925   0.78342   0.00000  Uiso   1.00
C530   C     0.53344   0.25229   0.45920   0.00000  Uiso   1.00
C531   C     0.96657   0.24734   0.54081   0.00000  Uiso   1.00
C532   C     0.74756   0.46664   0.45937   0.00000  Uiso   1.00
H533   H     0.94100   0.24552   0.40336   0.00000  Uiso   1.00
H534   H     0.80899   0.00458   0.09663   0.00000  Uiso   1.00
H535   H     0.50463   0.30869   0.90308   0.00000  Uiso   1.00
H536   H     0.99528   0.19130   0.09692   0.00000  Uiso   1.00
H537   H     0.80887   0.00465   0.90302   0.00000  Uiso   1.00
H538   H     0.69112   0.49566   0.09697   0.00000  Uiso   1.00
H539   H     0.99527   0.19124   0.90330   0.00000  Uiso   1.00
H540   H     0.50445   0.30877   0.09668   0.00000  Uiso   1.00
H541   H     0.59241   0.25666   0.46416   0.00000  Uiso   1.00
H542   H     0.90760   0.24293   0.53585   0.00000  Uiso   1.00
H543   H     0.74294   0.40789   0.46467   0.00000  Uiso   1.00
H544   H     0.55900   0.25430   0.59663   0.00000  Uiso   1.00
H545   H     0.75739   0.09211   0.53535   0.00000  Uiso   1.00
H546   H     0.90755   0.24296   0.46476   0.00000  Uiso   1.00
H547   H     0.59246   0.25668   0.53524   0.00000  Uiso   1.00
H548   H     0.75740   0.09208   0.46426   0.00000  Uiso   1.00
H549   H     0.74285   0.40792   0.53575   0.00000  Uiso   1.00
H550   H     0.84239   0.00723   0.96415   0.00000  Uiso   1.00
H551   H     0.65760   0.49318   0.03584   0.00000  Uiso   1.00
H552   H     0.99262   0.15789   0.96465   0.00000  Uiso   1.00
H553   H     0.50706   0.34211   0.03534   0.00000  Uiso   1.00
H554   H     0.65755   0.49315   0.96476   0.00000  Uiso   1.00
H555   H     0.75472   0.05870   0.40308   0.00000  Uiso   1.00
H556   H     0.84244   0.00720   0.03524   0.00000  Uiso   1.00
H557   H     0.50714   0.34208   0.96425   0.00000  Uiso   1.00
H558   H     0.99261   0.15791   0.03574   0.00000  Uiso   1.00
H559   H     0.64265   0.47146   0.34014   0.00000  Uiso   1.00
H560   H     0.83320   0.06114   0.63855   0.00000  Uiso   1.00
H561   H     0.51388   0.13018   0.32140   0.00000  Uiso   1.00
H562   H     0.99707   0.38775   0.70806   0.00000  Uiso   1.00
H563   H     0.85883   0.07564   0.37598   0.00000  Uiso   1.00
H564   H     0.64874   0.41764   0.62240   0.00000  Uiso   1.00
H565   H     0.96787   0.35387   0.34382   0.00000  Uiso   1.00
H566   H     0.74536   0.44131   0.59692   0.00000  Uiso   1.00
H567   H     0.52956   0.14350   0.65869   0.00000  Uiso   1.00
H568   H     0.61308   0.04795   0.64077   0.00000  Uiso   1.00
H569   H     0.88243   0.44792   0.36283   0.00000  Uiso   1.00
H570   H     0.56741   0.32899   0.63661   0.00000  Uiso   1.00
H571   H     0.94430   0.16339   0.35933   0.00000  Uiso   1.00
H572   H     0.88836   0.49660   0.70831   0.00000  Uiso   1.00
H573   H     0.59522   0.03064   0.33794   0.00000  Uiso   1.00
H574   H     0.92248   0.14472   0.62354   0.00000  Uiso   1.00
H575   H     0.54785   0.38531   0.35985   0.00000  Uiso   1.00
H576   H     0.91680   0.18887   0.86145   0.00000  Uiso   1.00
H577   H     0.55889   0.25423   0.40304   0.00000  Uiso   1.00
H578   H     0.60735   0.27854   0.15986   0.00000  Uiso   1.00
H579   H     0.75293   0.36224   0.79194   0.00000  Uiso   1.00
H580   H     0.73612   0.11982   0.17860   0.00000  Uiso   1.00
H581   H     0.60126   0.33236   0.87760   0.00000  Uiso   1.00
H582   H     0.89117   0.17436   0.12402   0.00000  Uiso   1.00
H583   H     0.72044   0.10650   0.84132   0.00000  Uiso   1.00
H584   H     0.78213   0.39613   0.15618   0.00000  Uiso   1.00
H585   H     0.86756   0.30208   0.13718   0.00000  Uiso   1.00
H586   H     0.63692   0.20205   0.85923   0.00000  Uiso   1.00
H587   H     0.80570   0.08661   0.14067   0.00000  Uiso   1.00
H588   H     0.94112   0.24545   0.59698   0.00000  Uiso   1.00
H589   H     0.68259   0.42101   0.86339   0.00000  Uiso   1.00
H590   H     0.65479   0.21936   0.16206   0.00000  Uiso   1.00
H591   H     0.86164   0.25340   0.79169   0.00000  Uiso   1.00
H592   H     0.70215   0.36469   0.14015   0.00000  Uiso   1.00
H593   H     0.82751   0.10530   0.87646   0.00000  Uiso   1.00
H594   H     0.74555   0.44123   0.40332   0.00000  Uiso   1.00
H595   H     0.75474   0.05876   0.59670   0.00000  Uiso   1.00
H596   H     0.69101   0.49560   0.90336   0.00000  Uiso   1.00
O597   O     0.75000  -0.00000   0.25000   0.00000  Uiso   1.00
O598   O     0.75000   0.46963   0.66245   0.00000  Uiso   1.00
O599   O     0.80411   0.40122   0.17328   0.00000  Uiso   1.00
O600   O     0.87654   0.28432   0.20356   0.00000  Uiso   1.00
O601   O     0.86746   0.32457   0.15430   0.00000  Uiso   1.00
O602   O     0.62548   0.21740   0.79261   0.00000  Uiso   1.00
O603   O     0.63631   0.17895   0.84306   0.00000  Uiso   1.00
O604   O     0.80907   0.14430   0.17357   0.00000  Uiso   1.00
O605   O     0.82410   0.08501   0.16261   0.00000  Uiso   1.00
O606   O     0.68689   0.36273   0.83170   0.00000  Uiso   1.00
O607   O     0.66591   0.42065   0.83990   0.00000  Uiso   1.00
O608   O     0.63429   0.22340   0.22817   0.00000  Uiso   1.00
O609   O     0.96964   0.25000   0.33755   0.00000  Uiso   1.00
O610   O     0.65112   0.19391   0.17300   0.00000  Uiso   1.00
O611   O     0.83483   0.28303   0.73645   0.00000  Uiso   1.00
O612   O     0.86964   0.27988   0.79092   0.00000  Uiso   1.00
O613   O     0.71764   0.37541   0.20681   0.00000  Uiso   1.00
O614   O     0.67900   0.36499   0.15647   0.00000  Uiso   1.00
O615   O     0.79641   0.11056   0.81541   0.00000  Uiso   1.00
O616   O     0.84606   0.10962   0.85499   0.00000  Uiso   1.00
O617   O     0.53037   0.25000   0.66245   0.00000  Uiso   1.00
O618   O     0.50000   0.21963   0.83755   0.00000  Uiso   1.00
O619   O     0.50000   0.28036   0.16245   0.00000  Uiso   1.00
O620   O     0.78037  -0.00000   0.83755   0.00000  Uiso   1.00
O621   O     0.71964  -0.00000   0.16245   0.00000  Uiso   1.00
O622   O     0.50000   0.28037   0.83755   0.00000  Uiso   1.00
O623   O     0.50000   0.21963   0.16245   0.00000  Uiso   1.00
O624   O     0.71964  -0.00000   0.83755   0.00000  Uiso   1.00
O625   O     0.75000  -0.00000   0.75000   0.00000  Uiso   1.00
O626   O     0.78037  -0.00000   0.16245   0.00000  Uiso   1.00
O627   O     0.70725   0.07307   0.27302   0.00000  Uiso   1.00
O628   O     0.79276   0.42692   0.72698   0.00000  Uiso   1.00
O629   O     0.92693   0.20724   0.27302   0.00000  Uiso   1.00
O630   O     0.57308   0.29275   0.72698   0.00000  Uiso   1.00
O631   O     0.79276   0.42692   0.27302   0.00000  Uiso   1.00
O632   O     0.70725   0.07307   0.72698   0.00000  Uiso   1.00
O633   O     0.57308   0.29275   0.27302   0.00000  Uiso   1.00
O634   O     0.92693   0.20724   0.72698   0.00000  Uiso   1.00
O635   O     0.70725   0.42692   0.72698   0.00000  Uiso   1.00
O636   O     0.50000   0.25000   0.25000   0.00000  Uiso   1.00
O637   O     0.79276   0.07307   0.27302   0.00000  Uiso   1.00
O638   O     0.92693   0.29275   0.72698   0.00000  Uiso   1.00
O639   O     0.57308   0.20724   0.27302   0.00000  Uiso   1.00
O640   O     0.79276   0.07307   0.72698   0.00000  Uiso   1.00
O641   O     0.70725   0.42692   0.27302   0.00000  Uiso   1.00
O642   O     0.57308   0.20724   0.72698   0.00000  Uiso   1.00
O643   O     0.92693   0.29275   0.27302   0.00000  Uiso   1.00
O644   O     0.95725   0.32307   0.77302   0.00000  Uiso   1.00
O645   O     0.54276   0.17692   0.22698   0.00000  Uiso   1.00
O646   O     0.67693   0.45724   0.77302   0.00000  Uiso   1.00
O647   O     0.50000   0.25000   0.75000   0.00000  Uiso   1.00
O648   O     0.82308   0.04275   0.22698   0.00000  Uiso   1.00
O649   O     0.54276   0.17692   0.77302   0.00000  Uiso   1.00
O650   O     0.95725   0.32307   0.22698   0.00000  Uiso   1.00
O651   O     0.82308   0.04275   0.77302   0.00000  Uiso   1.00
O652   O     0.67693   0.45724   0.22698   0.00000  Uiso   1.00
O653   O     0.95725   0.17692   0.22698   0.00000  Uiso   1.00
O654   O     0.54276   0.32307   0.77302   0.00000  Uiso   1.00
O655   O     0.67693   0.04275   0.22698   0.00000  Uiso   1.00
O656   O     0.82308   0.45724   0.77302   0.00000  Uiso   1.00
O657   O     0.54276   0.32307   0.22698   0.00000  Uiso   1.00
O658   O     0.75000   0.46963   0.33755   0.00000  Uiso   1.00
O659   O     0.95725   0.17692   0.77302   0.00000  Uiso   1.00
O660   O     0.82308   0.45724   0.22698   0.00000  Uiso   1.00
O661   O     0.67693   0.04275   0.77302   0.00000  Uiso   1.00
O662   O     0.58933   0.45340   0.30437   0.00000  Uiso   1.00
O663   O     0.64850   0.44907   0.32399   0.00000  Uiso   1.00
O664   O     0.89172   0.06176   0.67029   0.00000  Uiso   1.00
O665   O     0.83239   0.07848   0.66145   0.00000  Uiso   1.00
O666   O     0.53737   0.08350   0.27925   0.00000  Uiso   1.00
O667   O     0.53880   0.13772   0.31111   0.00000  Uiso   1.00
O668   O     0.96739   0.41492   0.76316   0.00000  Uiso   1.00
O669   O     0.75000   0.03036   0.66245   0.00000  Uiso   1.00
O670   O     0.97048   0.37981   0.70894   0.00000  Uiso   1.00
O671   O     0.86125   0.04552   0.31424   0.00000  Uiso   1.00
O672   O     0.86287   0.09437   0.35469   0.00000  Uiso   1.00
O673   O     0.64136   0.45084   0.68190   0.00000  Uiso   1.00
O674   O     0.64381   0.39993   0.64445   0.00000  Uiso   1.00
O675   O     0.95254   0.40777   0.30758   0.00000  Uiso   1.00
O676   O     0.94589   0.34878   0.32672   0.00000  Uiso   1.00
O677   O     0.54512   0.09085   0.69688   0.00000  Uiso   1.00
O678   O     0.55201   0.14896   0.67494   0.00000  Uiso   1.00
O679   O     0.62452   0.03260   0.70739   0.00000  Uiso   1.00
O680   O     0.53037   0.25000   0.33755   0.00000  Uiso   1.00
O681   O     0.61369   0.07105   0.65694   0.00000  Uiso   1.00
O682   O     0.87346   0.46567   0.29645   0.00000  Uiso   1.00
O683   O     0.88253   0.42543   0.34570   0.00000  Uiso   1.00
O684   O     0.56311   0.38726   0.66830   0.00000  Uiso   1.00
O685   O     0.58409   0.32935   0.66010   0.00000  Uiso   1.00
O686   O     0.94093   0.10570   0.32643   0.00000  Uiso   1.00
O687   O     0.92590   0.16499   0.33739   0.00000  Uiso   1.00
O688   O     0.91517   0.46697   0.76355   0.00000  Uiso   1.00
O689   O     0.88036   0.47012   0.70908   0.00000  Uiso   1.00
O690   O     0.61571   0.02660   0.27183   0.00000  Uiso   1.00
O691   O     0.96964   0.25000   0.66245   0.00000  Uiso   1.00
O692   O     0.59888   0.05609   0.32700   0.00000  Uiso   1.00
O693   O     0.95359   0.13943   0.68459   0.00000  Uiso   1.00
O694   O     0.90393   0.14039   0.64501   0.00000  Uiso   1.00
O695   O     0.53236   0.37459   0.29319   0.00000  Uiso   1.00
O696   O     0.57100   0.38501   0.34353   0.00000  Uiso   1.00
O697   O     0.85827   0.18824   0.82971   0.00000  Uiso   1.00
O698   O     0.91760   0.17153   0.83855   0.00000  Uiso   1.00
O699   O     0.66067   0.29660   0.19563   0.00000  Uiso   1.00
O700   O     0.60150   0.30093   0.17601   0.00000  Uiso   1.00
O701   O     0.78261   0.33509   0.73683   0.00000  Uiso   1.00
O702   O     0.75000   0.03036   0.33755   0.00000  Uiso   1.00
O703   O     0.77952   0.37018   0.79106   0.00000  Uiso   1.00
O704   O     0.71263   0.16650   0.22075   0.00000  Uiso   1.00
O705   O     0.71120   0.11228   0.18888   0.00000  Uiso   1.00
O706   O     0.60864   0.29916   0.81809   0.00000  Uiso   1.00
O707   O     0.60619   0.35007   0.85555   0.00000  Uiso   1.00
O708   O     0.88875   0.20448   0.18576   0.00000  Uiso   1.00
O709   O     0.88713   0.15563   0.14531   0.00000  Uiso   1.00
O710   O     0.70488   0.15915   0.80312   0.00000  Uiso   1.00
O711   O     0.69799   0.10104   0.82506   0.00000  Uiso   1.00
O712   O     0.79746   0.34223   0.19243   0.00000  Uiso   1.00
Zn713  Zn    0.70660  -0.00000   0.21735   0.00000  Uiso   1.00
Zn714  Zn    0.54341   0.25000   0.28265   0.00000  Uiso   1.00
Zn715  Zn    0.75000   0.45659   0.71735   0.00000  Uiso   1.00
Zn716  Zn    0.75000   0.04340   0.28265   0.00000  Uiso   1.00
Zn717  Zn    0.54341   0.25000   0.71735   0.00000  Uiso   1.00
Zn718  Zn    0.95660   0.25000   0.28265   0.00000  Uiso   1.00
Zn719  Zn    0.75000   0.04340   0.71735   0.00000  Uiso   1.00
Zn720  Zn    0.75000   0.45659   0.28265   0.00000  Uiso   1.00
Zn721  Zn    0.79341  -0.00000   0.78265   0.00000  Uiso   1.00
Zn722  Zn    0.50000   0.20659   0.21735   0.00000  Uiso   1.00
Zn723  Zn    0.50000   0.29340   0.78265   0.00000  Uiso   1.00
Zn724  Zn    0.79341  -0.00000   0.21735   0.00000  Uiso   1.00
Zn725  Zn    0.70660  -0.00000   0.78265   0.00000  Uiso   1.00
Zn726  Zn    0.50000   0.29340   0.21735   0.00000  Uiso   1.00
Zn727  Zn    0.50000   0.20659   0.78265   0.00000  Uiso   1.00
Zn728  Zn    0.95660   0.25000   0.71735   0.00000  Uiso   1.00
C729   C     0.46672   0.74745   0.41892   0.00000  Uiso   1.00
C730   C     0.28328   0.50260   0.08108   0.00000  Uiso   1.00
C731   C     0.25273   0.53336   0.54064   0.00000  Uiso   1.00
C732   C     0.46651   0.74737   0.45940   0.00000  Uiso   1.00
C733   C     0.03349   0.75230   0.54060   0.00000  Uiso   1.00
C734   C     0.25275   0.53332   0.45923   0.00000  Uiso   1.00
C735   C     0.24749   0.96668   0.54078   0.00000  Uiso   1.00
C736   C     0.28342   0.50272   0.95919   0.00000  Uiso   1.00
C737   C     0.21657   0.99765   0.04080   0.00000  Uiso   1.00
C738   C     0.49727   0.71664   0.95936   0.00000  Uiso   1.00
C739   C     0.00244   0.78336   0.04063   0.00000  Uiso   1.00
C740   C     0.21651   0.99764   0.95940   0.00000  Uiso   1.00
C741   C     0.00253   0.78307   0.91875   0.00000  Uiso   1.00
C742   C     0.28348   0.50269   0.04060   0.00000  Uiso   1.00
C743   C     0.00251   0.78332   0.95922   0.00000  Uiso   1.00
C744   C     0.49725   0.71667   0.04077   0.00000  Uiso   1.00
C745   C     0.09786   0.84824   0.24947   0.00000  Uiso   1.00
C746   C     0.40224   0.65166   0.75053   0.00000  Uiso   1.00
C747   C     0.15159   0.59769   0.24951   0.00000  Uiso   1.00
C748   C     0.34809   0.90192   0.75009   0.00000  Uiso   1.00
C749   C     0.40161   0.65229   0.25051   0.00000  Uiso   1.00
C750   C     0.09853   0.84759   0.74953   0.00000  Uiso   1.00
C751   C     0.34835   0.90224   0.24945   0.00000  Uiso   1.00
C752   C     0.49732   0.71692   0.08124   0.00000  Uiso   1.00
C753   C     0.15160   0.59772   0.75054   0.00000  Uiso   1.00
C754   C     0.09840   0.65228   0.74946   0.00000  Uiso   1.00
C755   C     0.40165   0.84776   0.25056   0.00000  Uiso   1.00
C756   C     0.15147   0.90241   0.75047   0.00000  Uiso   1.00
C757   C     0.34840   0.59771   0.24949   0.00000  Uiso   1.00
C758   C     0.40191   0.84808   0.74991   0.00000  Uiso   1.00
C759   C     0.09841   0.65231   0.25048   0.00000  Uiso   1.00
C760   C     0.34776   0.59834   0.74947   0.00000  Uiso   1.00
C761   C     0.15214   0.90175   0.25053   0.00000  Uiso   1.00
C762   C     0.49999   0.74982   0.47964   0.00000  Uiso   1.00
C763   C     0.28317   0.50265   0.91872   0.00000  Uiso   1.00
C764   C     0.00002   0.74981   0.52037   0.00000  Uiso   1.00
C765   C     0.25015   0.99999   0.47964   0.00000  Uiso   1.00
C766   C     0.25012   0.50001   0.52037   0.00000  Uiso   1.00
C767   C     0.24998   0.50019   0.97963   0.00000  Uiso   1.00
C768   C     0.25001   0.50018   0.02036   0.00000  Uiso   1.00
C769   C     0.49988   0.74999   0.97963   0.00000  Uiso   1.00
C770   C     0.49985   0.75001   0.02036   0.00000  Uiso   1.00
C771   C     0.11854   0.93713   0.30221   0.00000  Uiso   1.00
C772   C     0.36558   0.57980   0.68155   0.00000  Uiso   1.00
C773   C     0.05409   0.61167   0.28623   0.00000  Uiso   1.00
C774   C     0.21683   0.99766   0.08127   0.00000  Uiso   1.00
C775   C     0.45155   0.89481   0.74043   0.00000  Uiso   1.00
C776   C     0.36452   0.57858   0.31780   0.00000  Uiso   1.00
C777   C     0.13928   0.91755   0.68012   0.00000  Uiso   1.00
C778   C     0.43553   0.87913   0.30465   0.00000  Uiso   1.00
C779   C     0.06260   0.61932   0.69795   0.00000  Uiso   1.00
C780   C     0.12026   0.56402   0.69621   0.00000  Uiso   1.00
C781   C     0.37741   0.93388   0.30650   0.00000  Uiso   1.00
C782   C     0.08251   0.86245   0.68019   0.00000  Uiso   1.00
C783   C     0.42288   0.63232   0.31674   0.00000  Uiso   1.00
C784   C     0.39515   0.95122   0.74065   0.00000  Uiso   1.00
C785   C     0.49734   0.71685   0.91888   0.00000  Uiso   1.00
C786   C     0.11091   0.55569   0.28844   0.00000  Uiso   1.00
C787   C     0.42029   0.63711   0.68151   0.00000  Uiso   1.00
C788   C     0.06389   0.87888   0.30421   0.00000  Uiso   1.00
C789   C     0.38442   0.67021   0.81845   0.00000  Uiso   1.00
C790   C     0.13146   0.81286   0.19780   0.00000  Uiso   1.00
C791   C     0.29845   0.85519   0.75957   0.00000  Uiso   1.00
C792   C     0.19591   0.63833   0.21376   0.00000  Uiso   1.00
C793   C     0.11072   0.83245   0.81988   0.00000  Uiso   1.00
C794   C     0.38548   0.67142   0.18220   0.00000  Uiso   1.00
C795   C     0.18740   0.63068   0.80204   0.00000  Uiso   1.00
C796   C     0.00241   0.78314   0.08111   0.00000  Uiso   1.00
C797   C     0.31447   0.87086   0.19535   0.00000  Uiso   1.00
C798   C     0.37259   0.81612   0.19350   0.00000  Uiso   1.00
C799   C     0.12974   0.68598   0.80379   0.00000  Uiso   1.00
C800   C     0.32712   0.61768   0.18326   0.00000  Uiso   1.00
C801   C     0.16749   0.88755   0.81981   0.00000  Uiso   1.00
C802   C     0.13909   0.69431   0.21156   0.00000  Uiso   1.00
C803   C     0.35485   0.79878   0.75935   0.00000  Uiso   1.00
C804   C     0.18611   0.87112   0.19579   0.00000  Uiso   1.00
C805   C     0.32971   0.61289   0.81849   0.00000  Uiso   1.00
C806   C     0.49994   0.74991   0.39850   0.00000  Uiso   1.00
C807   C     0.00006   0.74990   0.60150   0.00000  Uiso   1.00
C808   C     0.25010   0.99996   0.39848   0.00000  Uiso   1.00
C809   C     0.03328   0.75231   0.58108   0.00000  Uiso   1.00
C810   C     0.25004   0.50004   0.60152   0.00000  Uiso   1.00
C811   C     0.24994   0.50010   0.89849   0.00000  Uiso   1.00
C812   C     0.25006   0.50009   0.10150   0.00000  Uiso   1.00
C813   C     0.49996   0.74996   0.89848   0.00000  Uiso   1.00
C814   C     0.49990   0.75003   0.10152   0.00000  Uiso   1.00
C815   C     0.06656   0.75474   0.47955   0.00000  Uiso   1.00
C816   C     0.43345   0.74486   0.52046   0.00000  Uiso   1.00
C817   C     0.24495   0.93367   0.47991   0.00000  Uiso   1.00
C818   C     0.25536   0.56633   0.52010   0.00000  Uiso   1.00
C819   C     0.43342   0.74488   0.47998   0.00000  Uiso   1.00
C820   C     0.25269   0.53308   0.41876   0.00000  Uiso   1.00
C821   C     0.06658   0.75475   0.52003   0.00000  Uiso   1.00
C822   C     0.25536   0.56632   0.47962   0.00000  Uiso   1.00
C823   C     0.24490   0.93369   0.52039   0.00000  Uiso   1.00
C824   C     0.31654   0.50525   0.97954   0.00000  Uiso   1.00
C825   C     0.18345   0.99514   0.02045   0.00000  Uiso   1.00
C826   C     0.49465   0.68367   0.97990   0.00000  Uiso   1.00
C827   C     0.00504   0.81633   0.02009   0.00000  Uiso   1.00
C828   C     0.18343   0.99513   0.97997   0.00000  Uiso   1.00
C829   C     0.31657   0.50524   0.02002   0.00000  Uiso   1.00
C830   C     0.00509   0.81631   0.97961   0.00000  Uiso   1.00
C831   C     0.24747   0.96693   0.58125   0.00000  Uiso   1.00
C832   C     0.49464   0.68368   0.02038   0.00000  Uiso   1.00
C833   C     0.25002   0.99998   0.35600   0.00000  Uiso   1.00
C834   C     0.25000   0.50002   0.64400   0.00000  Uiso   1.00
C835   C     0.49997   0.74998   0.35603   0.00000  Uiso   1.00
C836   C     0.00003   0.74997   0.64397   0.00000  Uiso   1.00
C837   C    -0.00000   0.74998   0.85600   0.00000  Uiso   1.00
C838   C     0.49998   0.75002   0.14400   0.00000  Uiso   1.00
C839   C     0.24997   0.50003   0.85603   0.00000  Uiso   1.00
C840   C     0.25003   0.50002   0.14397   0.00000  Uiso   1.00
C841   C     0.17979   0.56969   0.25023   0.00000  Uiso   1.00
C842   C     0.03318   0.75229   0.41873   0.00000  Uiso   1.00
C843   C     0.31996   0.93005   0.75003   0.00000  Uiso   1.00
C844   C     0.43024   0.67983   0.25051   0.00000  Uiso   1.00
C845   C     0.06980   0.82013   0.74951   0.00000  Uiso   1.00
C846   C     0.31990   0.92998   0.24976   0.00000  Uiso   1.00
C847   C     0.18002   0.56995   0.75014   0.00000  Uiso   1.00
C848   C     0.07005   0.81986   0.24977   0.00000  Uiso   1.00
C849   C     0.42976   0.68032   0.75056   0.00000  Uiso   1.00
C850   C     0.18020   0.92987   0.75049   0.00000  Uiso   1.00
C851   C     0.31976   0.57017   0.24949   0.00000  Uiso   1.00
C852   C     0.43004   0.81995   0.74996   0.00000  Uiso   1.00
C853   C     0.46683   0.74741   0.58127   0.00000  Uiso   1.00
C854   C     0.07021   0.68031   0.24977   0.00000  Uiso   1.00
C855   C     0.32024   0.56968   0.74943   0.00000  Uiso   1.00
C856   C     0.17995   0.93014   0.25023   0.00000  Uiso   1.00
C857   C     0.06998   0.68005   0.74985   0.00000  Uiso   1.00
C858   C     0.43010   0.82002   0.25024   0.00000  Uiso   1.00
C859   C     0.12213   0.90471   0.27629   0.00000  Uiso   1.00
C860   C     0.36958   0.60389   0.71604   0.00000  Uiso   1.00
C861   C     0.09064   0.61835   0.26809   0.00000  Uiso   1.00
C862   C     0.41241   0.88509   0.74688   0.00000  Uiso   1.00
C863   C     0.37026   0.60213   0.28293   0.00000  Uiso   1.00
C864   C     0.24759   0.96686   0.41889   0.00000  Uiso   1.00
C865   C     0.13190   0.89570   0.71589   0.00000  Uiso   1.00
C866   C     0.40384   0.87666   0.27752   0.00000  Uiso   1.00
C867   C     0.09513   0.62241   0.72386   0.00000  Uiso   1.00
C868   C     0.12206   0.59490   0.72430   0.00000  Uiso   1.00
C869   C     0.37680   0.90408   0.27708   0.00000  Uiso   1.00
C870   C     0.10528   0.86801   0.71544   0.00000  Uiso   1.00
C871   C     0.39722   0.62954   0.28333   0.00000  Uiso   1.00
C872   C     0.38526   0.91225   0.74698   0.00000  Uiso   1.00
C873   C     0.11752   0.59079   0.26767   0.00000  Uiso   1.00
C874   C     0.39708   0.63075   0.71658   0.00000  Uiso   1.00
C875   C     0.25266   0.53314   0.58112   0.00000  Uiso   1.00
C876   C     0.09481   0.87756   0.27588   0.00000  Uiso   1.00
C877   C     0.38042   0.64611   0.78396   0.00000  Uiso   1.00
C878   C     0.12787   0.84529   0.22371   0.00000  Uiso   1.00
C879   C     0.33759   0.86491   0.75312   0.00000  Uiso   1.00
C880   C     0.15936   0.63165   0.23191   0.00000  Uiso   1.00
C881   C     0.11810   0.85430   0.78411   0.00000  Uiso   1.00
C882   C     0.37974   0.64786   0.21707   0.00000  Uiso   1.00
C883   C     0.15488   0.62759   0.77614   0.00000  Uiso   1.00
C884   C     0.34616   0.87334   0.22248   0.00000  Uiso   1.00
C885   C     0.37320   0.84592   0.22292   0.00000  Uiso   1.00
C886   C     0.21672   0.99763   0.91892   0.00000  Uiso   1.00
C887   C     0.12794   0.65510   0.77569   0.00000  Uiso   1.00
C888   C     0.35278   0.62046   0.21667   0.00000  Uiso   1.00
C889   C     0.14472   0.88199   0.78456   0.00000  Uiso   1.00
C890   C     0.13248   0.65921   0.23233   0.00000  Uiso   1.00
C891   C     0.36474   0.83775   0.75301   0.00000  Uiso   1.00
C892   C     0.15519   0.87244   0.22412   0.00000  Uiso   1.00
C893   C     0.35292   0.61925   0.78342   0.00000  Uiso   1.00
C894   C     0.03344   0.75229   0.45920   0.00000  Uiso   1.00
C895   C     0.46657   0.74734   0.54081   0.00000  Uiso   1.00
C896   C     0.24756   0.96664   0.45937   0.00000  Uiso   1.00
H897   H     0.44100   0.74552   0.40336   0.00000  Uiso   1.00
H898   H     0.30899   0.50458   0.09663   0.00000  Uiso   1.00
H899   H     0.00463   0.80869   0.90308   0.00000  Uiso   1.00
H900   H     0.49528   0.69130   0.09692   0.00000  Uiso   1.00
H901   H     0.30887   0.50465   0.90302   0.00000  Uiso   1.00
H902   H     0.19112   0.99566   0.09697   0.00000  Uiso   1.00
H903   H     0.49527   0.69124   0.90330   0.00000  Uiso   1.00
H904   H     0.00445   0.80877   0.09668   0.00000  Uiso   1.00
H905   H     0.09241   0.75666   0.46416   0.00000  Uiso   1.00
H906   H     0.40760   0.74293   0.53585   0.00000  Uiso   1.00
H907   H     0.24294   0.90789   0.46467   0.00000  Uiso   1.00
H908   H     0.05900   0.75430   0.59663   0.00000  Uiso   1.00
H909   H     0.25739   0.59211   0.53535   0.00000  Uiso   1.00
H910   H     0.40755   0.74296   0.46476   0.00000  Uiso   1.00
H911   H     0.09246   0.75668   0.53524   0.00000  Uiso   1.00
H912   H     0.25740   0.59208   0.46426   0.00000  Uiso   1.00
H913   H     0.24285   0.90792   0.53575   0.00000  Uiso   1.00
H914   H     0.34239   0.50723   0.96415   0.00000  Uiso   1.00
H915   H     0.15760   0.99318   0.03584   0.00000  Uiso   1.00
H916   H     0.49262   0.65789   0.96465   0.00000  Uiso   1.00
H917   H     0.00706   0.84211   0.03534   0.00000  Uiso   1.00
H918   H     0.15755   0.99315   0.96476   0.00000  Uiso   1.00
H919   H     0.25472   0.55870   0.40308   0.00000  Uiso   1.00
H920   H     0.34244   0.50720   0.03524   0.00000  Uiso   1.00
H921   H     0.00714   0.84208   0.96425   0.00000  Uiso   1.00
H922   H     0.49261   0.65791   0.03574   0.00000  Uiso   1.00
H923   H     0.14265   0.97146   0.34014   0.00000  Uiso   1.00
H924   H     0.33320   0.56114   0.63855   0.00000  Uiso   1.00
H925   H     0.01388   0.63018   0.32140   0.00000  Uiso   1.00
H926   H     0.49707   0.88775   0.70806   0.00000  Uiso   1.00
H927   H     0.35883   0.57564   0.37598   0.00000  Uiso   1.00
H928   H     0.14874   0.91764   0.62240   0.00000  Uiso   1.00
H929   H     0.46787   0.85387   0.34382   0.00000  Uiso   1.00
H930   H     0.24536   0.94131   0.59692   0.00000  Uiso   1.00
H931   H     0.02956   0.64350   0.65869   0.00000  Uiso   1.00
H932   H     0.11308   0.54795   0.64077   0.00000  Uiso   1.00
H933   H     0.38243   0.94792   0.36283   0.00000  Uiso   1.00
H934   H     0.06741   0.82899   0.63661   0.00000  Uiso   1.00
H935   H     0.44430   0.66339   0.35933   0.00000  Uiso   1.00
H936   H     0.38836   0.99660   0.70831   0.00000  Uiso   1.00
H937   H     0.09522   0.53064   0.33794   0.00000  Uiso   1.00
H938   H     0.42248   0.64472   0.62354   0.00000  Uiso   1.00
H939   H     0.04785   0.88531   0.35985   0.00000  Uiso   1.00
H940   H     0.41680   0.68887   0.86145   0.00000  Uiso   1.00
H941   H     0.05889   0.75423   0.40304   0.00000  Uiso   1.00
H942   H     0.10735   0.77854   0.15986   0.00000  Uiso   1.00
H943   H     0.25293   0.86224   0.79194   0.00000  Uiso   1.00
H944   H     0.23612   0.61982   0.17860   0.00000  Uiso   1.00
H945   H     0.10126   0.83236   0.87760   0.00000  Uiso   1.00
H946   H     0.39117   0.67436   0.12402   0.00000  Uiso   1.00
H947   H     0.22044   0.60650   0.84132   0.00000  Uiso   1.00
H948   H     0.28213   0.89613   0.15618   0.00000  Uiso   1.00
H949   H     0.36756   0.80208   0.13718   0.00000  Uiso   1.00
H950   H     0.13692   0.70205   0.85923   0.00000  Uiso   1.00
H951   H     0.30570   0.58661   0.14067   0.00000  Uiso   1.00
H952   H     0.44112   0.74545   0.59698   0.00000  Uiso   1.00
H953   H     0.18259   0.92101   0.86339   0.00000  Uiso   1.00
H954   H     0.15479   0.71936   0.16206   0.00000  Uiso   1.00
H955   H     0.36164   0.75340   0.79169   0.00000  Uiso   1.00
H956   H     0.20215   0.86469   0.14015   0.00000  Uiso   1.00
H957   H     0.32751   0.60530   0.87646   0.00000  Uiso   1.00
H958   H     0.24555   0.94123   0.40332   0.00000  Uiso   1.00
H959   H     0.25474   0.55876   0.59670   0.00000  Uiso   1.00
H960   H     0.19101   0.99560   0.90336   0.00000  Uiso   1.00
O961   O     0.25000   0.50000   0.25000   0.00000  Uiso   1.00
O962   O     0.25000   0.96963   0.66245   0.00000  Uiso   1.00
O963   O     0.30411   0.90122   0.17328   0.00000  Uiso   1.00
O964   O     0.37654   0.78432   0.20356   0.00000  Uiso   1.00
O965   O     0.36746   0.82457   0.15430   0.00000  Uiso   1.00
O966   O     0.12548   0.71740   0.79261   0.00000  Uiso   1.00
O967   O     0.13631   0.67895   0.84306   0.00000  Uiso   1.00
O968   O     0.30907   0.64430   0.17357   0.00000  Uiso   1.00
O969   O     0.32410   0.58501   0.16261   0.00000  Uiso   1.00
O970   O     0.18689   0.86273   0.83170   0.00000  Uiso   1.00
O971   O     0.16591   0.92065   0.83990   0.00000  Uiso   1.00
O972   O     0.13429   0.72340   0.22817   0.00000  Uiso   1.00
O973   O     0.46964   0.75000   0.33755   0.00000  Uiso   1.00
O974   O     0.15112   0.69391   0.17300   0.00000  Uiso   1.00
O975   O     0.33483   0.78303   0.73645   0.00000  Uiso   1.00
O976   O     0.36964   0.77988   0.79092   0.00000  Uiso   1.00
O977   O     0.21764   0.87541   0.20681   0.00000  Uiso   1.00
O978   O     0.17900   0.86499   0.15647   0.00000  Uiso   1.00
O979   O     0.29641   0.61056   0.81541   0.00000  Uiso   1.00
O980   O     0.34606   0.60962   0.85499   0.00000  Uiso   1.00
O981   O     0.03037   0.75000   0.66245   0.00000  Uiso   1.00
O982   O     0.00000   0.71963   0.83755   0.00000  Uiso   1.00
O983   O     0.00000   0.78036   0.16245   0.00000  Uiso   1.00
O984   O     0.28037   0.50000   0.83755   0.00000  Uiso   1.00
O985   O     0.21964   0.50000   0.16245   0.00000  Uiso   1.00
O986   O     0.00000   0.78037   0.83755   0.00000  Uiso   1.00
O987   O     0.00000   0.71963   0.16245   0.00000  Uiso   1.00
O988   O     0.21964   0.50000   0.83755   0.00000  Uiso   1.00
O989   O     0.25000   0.50000   0.75000   0.00000  Uiso   1.00
O990   O     0.28037   0.50000   0.16245   0.00000  Uiso   1.00
O991   O     0.20725   0.57307   0.27302   0.00000  Uiso   1.00
O992   O     0.29276   0.92692   0.72698   0.00000  Uiso   1.00
O993   O     0.42693   0.70724   0.27302   0.00000  Uiso   1.00
O994   O     0.07308   0.79275   0.72698   0.00000  Uiso   1.00
O995   O     0.29276   0.92692   0.27302   0.00000  Uiso   1.00
O996   O     0.20725   0.57307   0.72698   0.00000  Uiso   1.00
O997   O     0.07308   0.79275   0.27302   0.00000  Uiso   1.00
O998   O     0.42693   0.70724   0.72698   0.00000  Uiso   1.00
O999   O     0.20725   0.92692   0.72698   0.00000  Uiso   1.00
O1000  O     0.00000   0.75000   0.25000   0.00000  Uiso   1.00
O1001  O     0.29276   0.57307   0.27302   0.00000  Uiso   1.00
O1002  O     0.42693   0.79275   0.72698   0.00000  Uiso   1.00
O1003  O     0.07308   0.70724   0.27302   0.00000  Uiso   1.00
O1004  O     0.29276   0.57307   0.72698   0.00000  Uiso   1.00
O1005  O     0.20725   0.92692   0.27302   0.00000  Uiso   1.00
O1006  O     0.07308   0.70724   0.72698   0.00000  Uiso   1.00
O1007  O     0.42693   0.79275   0.27302   0.00000  Uiso   1.00
O1008  O     0.45725   0.82307   0.77302   0.00000  Uiso   1.00
O1009  O     0.04276   0.67692   0.22698   0.00000  Uiso   1.00
O1010  O     0.17693   0.95724   0.77302   0.00000  Uiso   1.00
O1011  O     0.00000   0.75000   0.75000   0.00000  Uiso   1.00
O1012  O     0.32308   0.54275   0.22698   0.00000  Uiso   1.00
O1013  O     0.04276   0.67692   0.77302   0.00000  Uiso   1.00
O1014  O     0.45725   0.82307   0.22698   0.00000  Uiso   1.00
O1015  O     0.32308   0.54275   0.77302   0.00000  Uiso   1.00
O1016  O     0.17693   0.95724   0.22698   0.00000  Uiso   1.00
O1017  O     0.45725   0.67692   0.22698   0.00000  Uiso   1.00
O1018  O     0.04276   0.82307   0.77302   0.00000  Uiso   1.00
O1019  O     0.17693   0.54275   0.22698   0.00000  Uiso   1.00
O1020  O     0.32308   0.95724   0.77302   0.00000  Uiso   1.00
O1021  O     0.04276   0.82307   0.22698   0.00000  Uiso   1.00
O1022  O     0.25000   0.96963   0.33755   0.00000  Uiso   1.00
O1023  O     0.45725   0.67692   0.77302   0.00000  Uiso   1.00
O1024  O     0.32308   0.95724   0.22698   0.00000  Uiso   1.00
O1025  O     0.17693   0.54275   0.77302   0.00000  Uiso   1.00
O1026  O     0.08933   0.95340   0.30437   0.00000  Uiso   1.00
O1027  O     0.14850   0.94907   0.32399   0.00000  Uiso   1.00
O1028  O     0.39172   0.56176   0.67029   0.00000  Uiso   1.00
O1029  O     0.33239   0.57848   0.66145   0.00000  Uiso   1.00
O1030  O     0.03737   0.58350   0.27925   0.00000  Uiso   1.00
O1031  O     0.03880   0.63772   0.31111   0.00000  Uiso   1.00
O1032  O     0.46739   0.91492   0.76316   0.00000  Uiso   1.00
O1033  O     0.25000   0.53036   0.66245   0.00000  Uiso   1.00
O1034  O     0.47048   0.87981   0.70894   0.00000  Uiso   1.00
O1035  O     0.36125   0.54552   0.31424   0.00000  Uiso   1.00
O1036  O     0.36287   0.59437   0.35469   0.00000  Uiso   1.00
O1037  O     0.14136   0.95084   0.68190   0.00000  Uiso   1.00
O1038  O     0.14381   0.89993   0.64445   0.00000  Uiso   1.00
O1039  O     0.45254   0.90777   0.30758   0.00000  Uiso   1.00
O1040  O     0.44589   0.84878   0.32672   0.00000  Uiso   1.00
O1041  O     0.04512   0.59085   0.69688   0.00000  Uiso   1.00
O1042  O     0.05201   0.64896   0.67494   0.00000  Uiso   1.00
O1043  O     0.12452   0.53260   0.70739   0.00000  Uiso   1.00
O1044  O     0.03037   0.75000   0.33755   0.00000  Uiso   1.00
O1045  O     0.11369   0.57105   0.65694   0.00000  Uiso   1.00
O1046  O     0.37346   0.96567   0.29645   0.00000  Uiso   1.00
O1047  O     0.38253   0.92543   0.34570   0.00000  Uiso   1.00
O1048  O     0.06311   0.88726   0.66830   0.00000  Uiso   1.00
O1049  O     0.08409   0.82935   0.66010   0.00000  Uiso   1.00
O1050  O     0.44093   0.60570   0.32643   0.00000  Uiso   1.00
O1051  O     0.42590   0.66499   0.33739   0.00000  Uiso   1.00
O1052  O     0.41517   0.96697   0.76355   0.00000  Uiso   1.00
O1053  O     0.38036   0.97012   0.70908   0.00000  Uiso   1.00
O1054  O     0.11571   0.52660   0.27183   0.00000  Uiso   1.00
O1055  O     0.46964   0.75000   0.66245   0.00000  Uiso   1.00
O1056  O     0.09888   0.55609   0.32700   0.00000  Uiso   1.00
O1057  O     0.45359   0.63943   0.68459   0.00000  Uiso   1.00
O1058  O     0.40393   0.64039   0.64501   0.00000  Uiso   1.00
O1059  O     0.03236   0.87459   0.29319   0.00000  Uiso   1.00
O1060  O     0.07100   0.88501   0.34353   0.00000  Uiso   1.00
O1061  O     0.35827   0.68824   0.82971   0.00000  Uiso   1.00
O1062  O     0.41760   0.67153   0.83855   0.00000  Uiso   1.00
O1063  O     0.16067   0.79660   0.19563   0.00000  Uiso   1.00
O1064  O     0.10150   0.80093   0.17601   0.00000  Uiso   1.00
O1065  O     0.28261   0.83509   0.73683   0.00000  Uiso   1.00
O1066  O     0.25000   0.53036   0.33755   0.00000  Uiso   1.00
O1067  O     0.27952   0.87018   0.79106   0.00000  Uiso   1.00
O1068  O     0.21263   0.66650   0.22075   0.00000  Uiso   1.00
O1069  O     0.21120   0.61228   0.18888   0.00000  Uiso   1.00
O1070  O     0.10864   0.79916   0.81809   0.00000  Uiso   1.00
O1071  O     0.10619   0.85007   0.85555   0.00000  Uiso   1.00
O1072  O     0.38875   0.70448   0.18576   0.00000  Uiso   1.00
O1073  O     0.38713   0.65563   0.14531   0.00000  Uiso   1.00
O1074  O     0.20488   0.65915   0.80312   0.00000  Uiso   1.00
O1075  O     0.19799   0.60104   0.82506   0.00000  Uiso   1.00
O1076  O     0.29746   0.84223   0.19243   0.00000  Uiso   1.00
Zn1077 Zn    0.20660   0.50000   0.21735   0.00000  Uiso   1.00
Zn1078 Zn    0.04341   0.75000   0.28265   0.00000  Uiso   1.00
Zn1079 Zn    0.25000   0.95659   0.71735   0.00000  Uiso   1.00
Zn1080 Zn    0.25000   0.54340   0.28265   0.00000  Uiso   1.00
Zn1081 Zn    0.04341   0.75000   0.71735   0.00000  Uiso   1.00
Zn1082 Zn    0.45660   0.75000   0.28265   0.00000  Uiso   1.00
Zn1083 Zn    0.25000   0.54340   0.71735   0.00000  Uiso   1.00
Zn1084 Zn    0.25000   0.95659   0.28265   0.00000  Uiso   1.00
Zn1085 Zn    0.29341   0.50000   0.78265   0.00000  Uiso   1.00
Zn1086 Zn    0.00000   0.70659   0.21735   0.00000  Uiso   1.00
Zn1087 Zn    0.00000   0.79340   0.78265   0.00000  Uiso   1.00
Zn1088 Zn    0.29341   0.50000   0.21735   0.00000  Uiso   1.00
Zn1089 Zn    0.20660   0.50000   0.78265   0.00000  Uiso   1.00
Zn1090 Zn    0.00000   0.79340   0.21735   0.00000  Uiso   1.00
Zn1091 Zn    0.00000   0.70659   0.78265   0.00000  Uiso   1.00
Zn1092 Zn    0.45660   0.75000   0.71735   0.00000  Uiso   1.00
C1093  C     0.96672   0.74745   0.41892   0.00000  Uiso   1.00
C1094  C     0.78328   0.50260   0.08108   0.00000  Uiso   1.00
C1095  C     0.75273   0.53336   0.54064   0.00000  Uiso   1.00
C1096  C     0.96651   0.74737   0.45940   0.00000  Uiso   1.00
C1097  C     0.53349   0.75230   0.54060   0.00000  Uiso   1.00
C1098  C     0.75275   0.53332   0.45923   0.00000  Uiso   1.00
C1099  C     0.74749   0.96668   0.54078   0.00000  Uiso   1.00
C1100  C     0.78342   0.50272   0.95919   0.00000  Uiso   1.00
C1101  C     0.71657   0.99765   0.04080   0.00000  Uiso   1.00
C1102  C     0.99727   0.71664   0.95936   0.00000  Uiso   1.00
C1103  C     0.50244   0.78336   0.04063   0.00000  Uiso   1.00
C1104  C     0.71651   0.99764   0.95940   0.00000  Uiso   1.00
C1105  C     0.50253   0.78307   0.91875   0.00000  Uiso   1.00
C1106  C     0.78348   0.50269   0.04060   0.00000  Uiso   1.00
C1107  C     0.50251   0.78332   0.95922   0.00000  Uiso   1.00
C1108  C     0.99725   0.71667   0.04077   0.00000  Uiso   1.00
C1109  C     0.59786   0.84824   0.24947   0.00000  Uiso   1.00
C1110  C     0.90224   0.65166   0.75053   0.00000  Uiso   1.00
C1111  C     0.65159   0.59769   0.24951   0.00000  Uiso   1.00
C1112  C     0.84809   0.90192   0.75009   0.00000  Uiso   1.00
C1113  C     0.90161   0.65229   0.25051   0.00000  Uiso   1.00
C1114  C     0.59853   0.84759   0.74953   0.00000  Uiso   1.00
C1115  C     0.84835   0.90224   0.24945   0.00000  Uiso   1.00
C1116  C     0.99732   0.71692   0.08124   0.00000  Uiso   1.00
C1117  C     0.65160   0.59772   0.75054   0.00000  Uiso   1.00
C1118  C     0.59840   0.65228   0.74946   0.00000  Uiso   1.00
C1119  C     0.90165   0.84776   0.25056   0.00000  Uiso   1.00
C1120  C     0.65147   0.90241   0.75047   0.00000  Uiso   1.00
C1121  C     0.84840   0.59771   0.24949   0.00000  Uiso   1.00
C1122  C     0.90191   0.84808   0.74991   0.00000  Uiso   1.00
C1123  C     0.59841   0.65231   0.25048   0.00000  Uiso   1.00
C1124  C     0.84776   0.59834   0.74947   0.00000  Uiso   1.00
C1125  C     0.65214   0.90175   0.25053   0.00000  Uiso   1.00
C1126  C     0.99999   0.74982   0.47964   0.00000  Uiso   1.00
C1127  C     0.78317   0.50265   0.91872   0.00000  Uiso   1.00
C1128  C     0.50002   0.74981   0.52037   0.00000  Uiso   1.00
C1129  C     0.75015   0.99999   0.47964   0.00000  Uiso   1.00
C1130  C     0.75012   0.50001   0.52037   0.00000  Uiso   1.00
C1131  C     0.74998   0.50019   0.97963   0.00000  Uiso   1.00
C1132  C     0.75001   0.50018   0.02036   0.00000  Uiso   1.00
C1133  C     0.99988   0.74999   0.97963   0.00000  Uiso   1.00
C1134  C     0.99985   0.75001   0.02036   0.00000  Uiso   1.00
C1135  C     0.61854   0.93713   0.30221   0.00000  Uiso   1.00
C1136  C     0.86558   0.57980   0.68155   0.00000  Uiso   1.00
C1137  C     0.55409   0.61167   0.28623   0.00000  Uiso   1.00
C1138  C     0.71683   0.99766   0.08127   0.00000  Uiso   1.00
C1139  C     0.95155   0.89481   0.74043   0.00000  Uiso   1.00
C1140  C     0.86452   0.57858   0.31780   0.00000  Uiso   1.00
C1141  C     0.63928   0.91755   0.68012   0.00000  Uiso   1.00
C1142  C     0.93553   0.87913   0.30465   0.00000  Uiso   1.00
C1143  C     0.56260   0.61932   0.69795   0.00000  Uiso   1.00
C1144  C     0.62026   0.56402   0.69621   0.00000  Uiso   1.00
C1145  C     0.87741   0.93388   0.30650   0.00000  Uiso   1.00
C1146  C     0.58251   0.86245   0.68019   0.00000  Uiso   1.00
C1147  C     0.92288   0.63232   0.31674   0.00000  Uiso   1.00
C1148  C     0.89515   0.95122   0.74065   0.00000  Uiso   1.00
C1149  C     0.99734   0.71685   0.91888   0.00000  Uiso   1.00
C1150  C     0.61091   0.55569   0.28844   0.00000  Uiso   1.00
C1151  C     0.92029   0.63711   0.68151   0.00000  Uiso   1.00
C1152  C     0.56389   0.87888   0.30421   0.00000  Uiso   1.00
C1153  C     0.88442   0.67021   0.81845   0.00000  Uiso   1.00
C1154  C     0.63146   0.81286   0.19780   0.00000  Uiso   1.00
C1155  C     0.79845   0.85519   0.75957   0.00000  Uiso   1.00
C1156  C     0.69591   0.63833   0.21376   0.00000  Uiso   1.00
C1157  C     0.61072   0.83245   0.81988   0.00000  Uiso   1.00
C1158  C     0.88548   0.67142   0.18220   0.00000  Uiso   1.00
C1159  C     0.68740   0.63068   0.80204   0.00000  Uiso   1.00
C1160  C     0.50241   0.78314   0.08111   0.00000  Uiso   1.00
C1161  C     0.81447   0.87086   0.19535   0.00000  Uiso   1.00
C1162  C     0.87259   0.81612   0.19350   0.00000  Uiso   1.00
C1163  C     0.62974   0.68598   0.80379   0.00000  Uiso   1.00
C1164  C     0.82712   0.61768   0.18326   0.00000  Uiso   1.00
C1165  C     0.66749   0.88755   0.81981   0.00000  Uiso   1.00
C1166  C     0.63909   0.69431   0.21156   0.00000  Uiso   1.00
C1167  C     0.85485   0.79878   0.75935   0.00000  Uiso   1.00
C1168  C     0.68611   0.87112   0.19579   0.00000  Uiso   1.00
C1169  C     0.82971   0.61289   0.81849   0.00000  Uiso   1.00
C1170  C     0.99994   0.74991   0.39850   0.00000  Uiso   1.00
C1171  C     0.50006   0.74990   0.60150   0.00000  Uiso   1.00
C1172  C     0.75010   0.99996   0.39848   0.00000  Uiso   1.00
C1173  C     0.53328   0.75231   0.58108   0.00000  Uiso   1.00
C1174  C     0.75004   0.50004   0.60152   0.00000  Uiso   1.00
C1175  C     0.74994   0.50010   0.89849   0.00000  Uiso   1.00
C1176  C     0.75006   0.50009   0.10150   0.00000  Uiso   1.00
C1177  C     0.99996   0.74996   0.89848   0.00000  Uiso   1.00
C1178  C     0.99990   0.75003   0.10152   0.00000  Uiso   1.00
C1179  C     0.56656   0.75474   0.47955   0.00000  Uiso   1.00
C1180  C     0.93345   0.74486   0.52046   0.00000  Uiso   1.00
C1181  C     0.74495   0.93367   0.47991   0.00000  Uiso   1.00
C1182  C     0.75536   0.56633   0.52010   0.00000  Uiso   1.00
C1183  C     0.93342   0.74488   0.47998   0.00000  Uiso   1.00
C1184  C     0.75269   0.53308   0.41876   0.00000  Uiso   1.00
C1185  C     0.56658   0.75475   0.52003   0.00000  Uiso   1.00
C1186  C     0.75536   0.56632   0.47962   0.00000  Uiso   1.00
C1187  C     0.74490   0.93369   0.52039   0.00000  Uiso   1.00
C1188  C     0.81654   0.50525   0.97954   0.00000  Uiso   1.00
C1189  C     0.68345   0.99514   0.02045   0.00000  Uiso   1.00
C1190  C     0.99465   0.68367   0.97990   0.00000  Uiso   1.00
C1191  C     0.50504   0.81633   0.02009   0.00000  Uiso   1.00
C1192  C     0.68343   0.99513   0.97997   0.00000  Uiso   1.00
C1193  C     0.81657   0.50524   0.02002   0.00000  Uiso   1.00
C1194  C     0.50509   0.81631   0.97961   0.00000  Uiso   1.00
C1195  C     0.74747   0.96693   0.58125   0.00000  Uiso   1.00
C1196  C     0.99464   0.68368   0.02038   0.00000  Uiso   1.00
C1197  C     0.75002   0.99998   0.35600   0.00000  Uiso   1.00
C1198  C     0.75000   0.50002   0.64400   0.00000  Uiso   1.00
C1199  C     0.99997   0.74998   0.35603   0.00000  Uiso   1.00
C1200  C     0.50003   0.74997   0.64397   0.00000  Uiso   1.00
C1201  C     0.50000   0.74998   0.85600   0.00000  Uiso   1.00
C1202  C     0.99998   0.75002   0.14400   0.00000  Uiso   1.00
C1203  C     0.74997   0.50003   0.85603   0.00000  Uiso   1.00
C1204  C     0.75003   0.50002   0.14397   0.00000  Uiso   1.00
C1205  C     0.67979   0.56969   0.25023   0.00000  Uiso   1.00
C1206  C     0.53318   0.75229   0.41873   0.00000  Uiso   1.00
C1207  C     0.81996   0.93005   0.75003   0.00000  Uiso   1.00
C1208  C     0.93024   0.67983   0.25051   0.00000  Uiso   1.00
C1209  C     0.56980   0.82013   0.74951   0.00000  Uiso   1.00
C1210  C     0.81990   0.92998   0.24976   0.00000  Uiso   1.00
C1211  C     0.68002   0.56995   0.75014   0.00000  Uiso   1.00
C1212  C     0.57005   0.81986   0.24977   0.00000  Uiso   1.00
C1213  C     0.92976   0.68032   0.75056   0.00000  Uiso   1.00
C1214  C     0.68020   0.92987   0.75049   0.00000  Uiso   1.00
C1215  C     0.81976   0.57017   0.24949   0.00000  Uiso   1.00
C1216  C     0.93004   0.81995   0.74996   0.00000  Uiso   1.00
C1217  C     0.96683   0.74741   0.58127   0.00000  Uiso   1.00
C1218  C     0.57021   0.68031   0.24977   0.00000  Uiso   1.00
C1219  C     0.82024   0.56968   0.74943   0.00000  Uiso   1.00
C1220  C     0.67995   0.93014   0.25023   0.00000  Uiso   1.00
C1221  C     0.56998   0.68005   0.74985   0.00000  Uiso   1.00
C1222  C     0.93010   0.82002   0.25024   0.00000  Uiso   1.00
C1223  C     0.62213   0.90471   0.27629   0.00000  Uiso   1.00
C1224  C     0.86958   0.60389   0.71604   0.00000  Uiso   1.00
C1225  C     0.59064   0.61835   0.26809   0.00000  Uiso   1.00
C1226  C     0.91241   0.88509   0.74688   0.00000  Uiso   1.00
C1227  C     0.87026   0.60213   0.28293   0.00000  Uiso   1.00
C1228  C     0.74759   0.96686   0.41889   0.00000  Uiso   1.00
C1229  C     0.63190   0.89570   0.71589   0.00000  Uiso   1.00
C1230  C     0.90384   0.87666   0.27752   0.00000  Uiso   1.00
C1231  C     0.59513   0.62241   0.72386   0.00000  Uiso   1.00
C1232  C     0.62206   0.59490   0.72430   0.00000  Uiso   1.00
C1233  C     0.87680   0.90408   0.27708   0.00000  Uiso   1.00
C1234  C     0.60528   0.86801   0.71544   0.00000  Uiso   1.00
C1235  C     0.89722   0.62954   0.28333   0.00000  Uiso   1.00
C1236  C     0.88526   0.91225   0.74698   0.00000  Uiso   1.00
C1237  C     0.61752   0.59079   0.26767   0.00000  Uiso   1.00
C1238  C     0.89708   0.63075   0.71658   0.00000  Uiso   1.00
C1239  C     0.75266   0.53314   0.58112   0.00000  Uiso   1.00
C1240  C     0.59481   0.87756   0.27588   0.00000  Uiso   1.00
C1241  C     0.88042   0.64611   0.78396   0.00000  Uiso   1.00
C1242  C     0.62787   0.84529   0.22371   0.00000  Uiso   1.00
C1243  C     0.83759   0.86491   0.75312   0.00000  Uiso   1.00
C1244  C     0.65936   0.63165   0.23191   0.00000  Uiso   1.00
C1245  C     0.61810   0.85430   0.78411   0.00000  Uiso   1.00
C1246  C     0.87974   0.64786   0.21707   0.00000  Uiso   1.00
C1247  C     0.65488   0.62759   0.77614   0.00000  Uiso   1.00
C1248  C     0.84616   0.87334   0.22248   0.00000  Uiso   1.00
C1249  C     0.87320   0.84592   0.22292   0.00000  Uiso   1.00
C1250  C     0.71672   0.99763   0.91892   0.00000  Uiso   1.00
C1251  C     0.62794   0.65510   0.77569   0.00000  Uiso   1.00
C1252  C     0.85278   0.62046   0.21667   0.00000  Uiso   1.00
C1253  C     0.64472   0.88199   0.78456   0.00000  Uiso   1.00
C1254  C     0.63248   0.65921   0.23233   0.00000  Uiso   1.00
C1255  C     0.86474   0.83775   0.75301   0.00000  Uiso   1.00
C1256  C     0.65519   0.87244   0.22412   0.00000  Uiso   1.00
C1257  C     0.85292   0.61925   0.78342   0.00000  Uiso   1.00
C1258  C     0.53344   0.75229   0.45920   0.00000  Uiso   1.00
C1259  C     0.96657   0.74734   0.54081   0.00000  Uiso   1.00
C1260  C     0.74756   0.96664   0.45937   0.00000  Uiso   1.00
H1261  H     0.94100   0.74552   0.40336   0.00000  Uiso   1.00
H1262  H     0.80899   0.50458   0.09663   0.00000  Uiso   1.00
H1263  H     0.50463   0.80869   0.90308   0.00000  Uiso   1.00
H1264  H     0.99528   0.69130   0.09692   0.00000  Uiso   1.00
H1265  H     0.80887   0.50465   0.90302   0.00000  Uiso   1.00
H1266  H     0.69112   0.99566   0.09697   0.00000  Uiso   1.00
H1267  H     0.99527   0.69124   0.90330   0.00000  Uiso   1.00
H1268  H     0.50445   0.80877   0.09668   0.00000  Uiso   1.00
H1269  H     0.59241   0.75666   0.46416   0.00000  Uiso   1.00
H1270  H     0.90760   0.74293   0.53585   0.00000  Uiso   1.00
H1271  H     0.74294   0.90789   0.46467   0.00000  Uiso   1.00
H1272  H     0.55900   0.75430   0.59663   0.00000  Uiso   1.00
H1273  H     0.75739   0.59211   0.53535   0.00000  Uiso   1.00
H1274  H     0.90755   0.74296   0.46476   0.00000  Uiso   1.00
H1275  H     0.59246   0.75668   0.53524   0.00000  Uiso   1.00
H1276  H     0.75740   0.59208   0.46426   0.00000  Uiso   1.00
H1277  H     0.74285   0.90792   0.53575   0.00000  Uiso   1.00
H1278  H     0.84239   0.50723   0.96415   0.00000  Uiso   1.00
H1279  H     0.65760   0.99318   0.03584   0.00000  Uiso   1.00
H1280  H     0.99262   0.65789   0.96465   0.00000  Uiso   1.00
H1281  H     0.50706   0.84211   0.03534   0.00000  Uiso   1.00
H1282  H     0.65755   0.99315   0.96476   0.00000  Uiso   1.00
H1283  H     0.75472   0.55870   0.40308   0.00000  Uiso   1.00
H1284  H     0.84244   0.50720   0.03524   0.00000  Uiso   1.00
H1285  H     0.50714   0.84208   0.96425   0.00000  Uiso   1.00
H1286  H     0.99261   0.65791   0.03574   0.00000  Uiso   1.00
H1287  H     0.64265   0.97146   0.34014   0.00000  Uiso   1.00
H1288  H     0.83320   0.56114   0.63855   0.00000  Uiso   1.00
H1289  H     0.51388   0.63018   0.32140   0.00000  Uiso   1.00
H1290  H     0.99707   0.88775   0.70806   0.00000  Uiso   1.00
H1291  H     0.85883   0.57564   0.37598   0.00000  Uiso   1.00
H1292  H     0.64874   0.91764   0.62240   0.00000  Uiso   1.00
H1293  H     0.96787   0.85387   0.34382   0.00000  Uiso   1.00
H1294  H     0.74536   0.94131   0.59692   0.00000  Uiso   1.00
H1295  H     0.52956   0.64350   0.65869   0.00000  Uiso   1.00
H1296  H     0.61308   0.54795   0.64077   0.00000  Uiso   1.00
H1297  H     0.88243   0.94792   0.36283   0.00000  Uiso   1.00
H1298  H     0.56741   0.82899   0.63661   0.00000  Uiso   1.00
H1299  H     0.94430   0.66339   0.35933   0.00000  Uiso   1.00
H1300  H     0.88836   0.99660   0.70831   0.00000  Uiso   1.00
H1301  H     0.59522   0.53064   0.33794   0.00000  Uiso   1.00
H1302  H     0.92248   0.64472   0.62354   0.00000  Uiso   1.00
H1303  H     0.54785   0.88531   0.35985   0.00000  Uiso   1.00
H1304  H     0.91680   0.68887   0.86145   0.00000  Uiso   1.00
H1305  H     0.55889   0.75423   0.40304   0.00000  Uiso   1.00
H1306  H     0.60735   0.77854   0.15986   0.00000  Uiso   1.00
H1307  H     0.75293   0.86224   0.79194   0.00000  Uiso   1.00
H1308  H     0.73612   0.61982   0.17860   0.00000  Uiso   1.00
H1309  H     0.60126   0.83236   0.87760   0.00000  Uiso   1.00
H1310  H     0.89117   0.67436   0.12402   0.00000  Uiso   1.00
H1311  H     0.72044   0.60650   0.84132   0.00000  Uiso   1.00
H1312  H     0.78213   0.89613   0.15618   0.00000  Uiso   1.00
H1313  H     0.86756   0.80208   0.13718   0.00000  Uiso   1.00
H1314  H     0.63692   0.70205   0.85923   0.00000  Uiso   1.00
H1315  H     0.80570   0.58661   0.14067   0.00000  Uiso   1.00
H1316  H     0.94112   0.74545   0.59698   0.00000  Uiso   1.00
H1317  H     0.68259   0.92101   0.86339   0.00000  Uiso   1.00
H1318  H     0.65479   0.71936   0.16206   0.00000  Uiso   1.00
H1319  H     0.86164   0.75340   0.79169   0.00000  Uiso   1.00
H1320  H     0.70215   0.86469   0.14015   0.00000  Uiso   1.00
H1321  H     0.82751   0.60530   0.87646   0.00000  Uiso   1.00
H1322  H     0.74555   0.94123   0.40332   0.00000  Uiso   1.00
H1323  H     0.75474   0.55876   0.59670   0.00000  Uiso   1.00
H1324  H     0.69101   0.99560   0.90336   0.00000  Uiso   1.00
O1325  O     0.75000   0.50000   0.25000   0.00000  Uiso   1.00
O1326  O     0.75000   0.96963   0.66245   0.00000  Uiso   1.00
O1327  O     0.80411   0.90122   0.17328   0.00000  Uiso   1.00
O1328  O     0.87654   0.78432   0.20356   0.00000  Uiso   1.00
O1329  O     0.86746   0.82457   0.15430   0.00000  Uiso   1.00
O1330  O     0.62548   0.71740   0.79261   0.00000  Uiso   1.00
O1331  O     0.63631   0.67895   0.84306   0.00000  Uiso   1.00
O1332  O     0.80907   0.64430   0.17357   0.00000  Uiso   1.00
O1333  O     0.82410   0.58501   0.16261   0.00000  Uiso   1.00
O1334  O     0.68689   0.86273   0.83170   0.00000  Uiso   1.00
O1335  O     0.66591   0.92065   0.83990   0.00000  Uiso   1.00
O1336  O     0.63429   0.72340   0.22817   0.00000  Uiso   1.00
O1337  O     0.96964   0.75000   0.33755   0.00000  Uiso   1.00
O1338  O     0.65112   0.69391   0.17300   0.00000  Uiso   1.00
O1339  O     0.83483   0.78303   0.73645   0.00000  Uiso   1.00
O1340  O     0.86964   0.77988   0.79092   0.00000  Uiso   1.00
O1341  O     0.71764   0.87541   0.20681   0.00000  Uiso   1.00
O1342  O     0.67900   0.86499   0.15647   0.00000  Uiso   1.00
O1343  O     0.79641   0.61056   0.81541   0.00000  Uiso   1.00
O1344  O     0.84606   0.60962   0.85499   0.00000  Uiso   1.00
O1345  O     0.53037   0.75000   0.66245   0.00000  Uiso   1.00
O1346  O     0.50000   0.71963   0.83755   0.00000  Uiso   1.00
O1347  O     0.50000   0.78036   0.16245   0.00000  Uiso   1.00
O1348  O     0.78037   0.50000   0.83755   0.00000  Uiso   1.00
O1349  O     0.71964   0.50000   0.16245   0.00000  Uiso   1.00
O1350  O     0.50000   0.78037   0.83755   0.00000  Uiso   1.00
O1351  O     0.50000   0.71963   0.16245   0.00000  Uiso   1.00
O1352  O     0.71964   0.50000   0.83755   0.00000  Uiso   1.00
O1353  O     0.75000   0.50000   0.75000   0.00000  Uiso   1.00
O1354  O     0.78037   0.50000   0.16245   0.00000  Uiso   1.00
O1355  O     0.70725   0.57307   0.27302   0.00000  Uiso   1.00
O1356  O     0.79276   0.92692   0.72698   0.00000  Uiso   1.00
O1357  O     0.92693   0.70724   0.27302   0.00000  Uiso   1.00
O1358  O     0.57308   0.79275   0.72698   0.00000  Uiso   1.00
O1359  O     0.79276   0.92692   0.27302   0.00000  Uiso   1.00
O1360  O     0.70725   0.57307   0.72698   0.00000  Uiso   1.00
O1361  O     0.57308   0.79275   0.27302   0.00000  Uiso   1.00
O1362  O     0.92693   0.70724   0.72698   0.00000  Uiso   1.00
O1363  O     0.70725   0.92692   0.72698   0.00000  Uiso   1.00
O1364  O     0.50000   0.75000   0.25000   0.00000  Uiso   1.00
O1365  O     0.79276   0.57307   0.27302   0.00000  Uiso   1.00
O1366  O     0.92693   0.79275   0.72698   0.00000  Uiso   1.00
O1367  O     0.57308   0.70724   0.27302   0.00000  Uiso   1.00
O1368  O     0.79276   0.57307   0.72698   0.00000  Uiso   1.00
O1369  O     0.70725   0.92692   0.27302   0.00000  Uiso   1.00
O1370  O     0.57308   0.70724   0.72698   0.00000  Uiso   1.00
O1371  O     0.92693   0.79275   0.27302   0.00000  Uiso   1.00
O1372  O     0.95725   0.82307   0.77302   0.00000  Uiso   1.00
O1373  O     0.54276   0.67692   0.22698   0.00000  Uiso   1.00
O1374  O     0.67693   0.95724   0.77302   0.00000  Uiso   1.00
O1375  O     0.50000   0.75000   0.75000   0.00000  Uiso   1.00
O1376  O     0.82308   0.54275   0.22698   0.00000  Uiso   1.00
O1377  O     0.54276   0.67692   0.77302   0.00000  Uiso   1.00
O1378  O     0.95725   0.82307   0.22698   0.00000  Uiso   1.00
O1379  O     0.82308   0.54275   0.77302   0.00000  Uiso   1.00
O1380  O     0.67693   0.95724   0.22698   0.00000  Uiso   1.00
O1381  O     0.95725   0.67692   0.22698   0.00000  Uiso   1.00
O1382  O     0.54276   0.82307   0.77302   0.00000  Uiso   1.00
O1383  O     0.67693   0.54275   0.22698   0.00000  Uiso   1.00
O1384  O     0.82308   0.95724   0.77302   0.00000  Uiso   1.00
O1385  O     0.54276   0.82307   0.22698   0.00000  Uiso   1.00
O1386  O     0.75000   0.96963   0.33755   0.00000  Uiso   1.00
O1387  O     0.95725   0.67692   0.77302   0.00000  Uiso   1.00
O1388  O     0.82308   0.95724   0.22698   0.00000  Uiso   1.00
O1389  O     0.67693   0.54275   0.77302   0.00000  Uiso   1.00
O1390  O     0.58933   0.95340   0.30437   0.00000  Uiso   1.00
O1391  O     0.64850   0.94907   0.32399   0.00000  Uiso   1.00
O1392  O     0.89172   0.56176   0.67029   0.00000  Uiso   1.00
O1393  O     0.83239   0.57848   0.66145   0.00000  Uiso   1.00
O1394  O     0.53737   0.58350   0.27925   0.00000  Uiso   1.00
O1395  O     0.53880   0.63772   0.31111   0.00000  Uiso   1.00
O1396  O     0.96739   0.91492   0.76316   0.00000  Uiso   1.00
O1397  O     0.75000   0.53036   0.66245   0.00000  Uiso   1.00
O1398  O     0.97048   0.87981   0.70894   0.00000  Uiso   1.00
O1399  O     0.86125   0.54552   0.31424   0.00000  Uiso   1.00
O1400  O     0.86287   0.59437   0.35469   0.00000  Uiso   1.00
O1401  O     0.64136   0.95084   0.68190   0.00000  Uiso   1.00
O1402  O     0.64381   0.89993   0.64445   0.00000  Uiso   1.00
O1403  O     0.95254   0.90777   0.30758   0.00000  Uiso   1.00
O1404  O     0.94589   0.84878   0.32672   0.00000  Uiso   1.00
O1405  O     0.54512   0.59085   0.69688   0.00000  Uiso   1.00
O1406  O     0.55201   0.64896   0.67494   0.00000  Uiso   1.00
O1407  O     0.62452   0.53260   0.70739   0.00000  Uiso   1.00
O1408  O     0.53037   0.75000   0.33755   0.00000  Uiso   1.00
O1409  O     0.61369   0.57105   0.65694   0.00000  Uiso   1.00
O1410  O     0.87346   0.96567   0.29645   0.00000  Uiso   1.00
O1411  O     0.88253   0.92543   0.34570   0.00000  Uiso   1.00
O1412  O     0.56311   0.88726   0.66830   0.00000  Uiso   1.00
O1413  O     0.58409   0.82935   0.66010   0.00000  Uiso   1.00
O1414  O     0.94093   0.60570   0.32643   0.00000  Uiso   1.00
O1415  O     0.92590   0.66499   0.33739   0.00000  Uiso   1.00
O1416  O     0.91517   0.96697   0.76355   0.00000  Uiso   1.00
O1417  O     0.88036   0.97012   0.70908   0.00000  Uiso   1.00
O1418  O     0.61571   0.52660   0.27183   0.00000  Uiso   1.00
O1419  O     0.96964   0.75000   0.66245   0.00000  Uiso   1.00
O1420  O     0.59888   0.55609   0.32700   0.00000  Uiso   1.00
O1421  O     0.95359   0.63943   0.68459   0.00000  Uiso   1.00
O1422  O     0.90393   0.64039   0.64501   0.00000  Uiso   1.00
O1423  O     0.53236   0.87459   0.29319   0.00000  Uiso   1.00
O1424  O     0.57100   0.88501   0.34353   0.00000  Uiso   1.00
O1425  O     0.85827   0.68824   0.82971   0.00000  Uiso   1.00
O1426  O     0.91760   0.67153   0.83855   0.00000  Uiso   1.00
O1427  O     0.66067   0.79660   0.19563   0.00000  Uiso   1.00
O1428  O     0.60150   0.80093   0.17601   0.00000  Uiso   1.00
O1429  O     0.78261   0.83509   0.73683   0.00000  Uiso   1.00
O1430  O     0.75000   0.53036   0.33755   0.00000  Uiso   1.00
O1431  O     0.77952   0.87018   0.79106   0.00000  Uiso   1.00
O1432  O     0.71263   0.66650   0.22075   0.00000  Uiso   1.00
O1433  O     0.71120   0.61228   0.18888   0.00000  Uiso   1.00
O1434  O     0.60864   0.79916   0.81809   0.00000  Uiso   1.00
O1435  O     0.60619   0.85007   0.85555   0.00000  Uiso   1.00
O1436  O     0.88875   0.70448   0.18576   0.00000  Uiso   1.00
O1437  O     0.88713   0.65563   0.14531   0.00000  Uiso   1.00
O1438  O     0.70488   0.65915   0.80312   0.00000  Uiso   1.00
O1439  O     0.69799   0.60104   0.82506   0.00000  Uiso   1.00
O1440  O     0.79746   0.84223   0.19243   0.00000  Uiso   1.00
Zn1441 Zn    0.70660   0.50000   0.21735   0.00000  Uiso   1.00
Zn1442 Zn    0.54341   0.75000   0.28265   0.00000  Uiso   1.00
Zn1443 Zn    0.75000   0.95659   0.71735   0.00000  Uiso   1.00
Zn1444 Zn    0.75000   0.54340   0.28265   0.00000  Uiso   1.00
Zn1445 Zn    0.54341   0.75000   0.71735   0.00000  Uiso   1.00
Zn1446 Zn    0.95660   0.75000   0.28265   0.00000  Uiso   1.00
Zn1447 Zn    0.75000   0.54340   0.71735   0.00000  Uiso   1.00
Zn1448 Zn    0.75000   0.95659   0.28265   0.00000  Uiso   1.00
Zn1449 Zn    0.79341   0.50000   0.78265   0.00000  Uiso   1.00
Zn1450 Zn    0.50000   0.70659   0.21735   0.00000  Uiso   1.00
Zn1451 Zn    0.50000   0.79340   0.78265   0.00000  Uiso   1.00
Zn1452 Zn    0.79341   0.50000   0.21735   0.00000  Uiso   1.00
Zn1453 Zn    0.70660   0.50000   0.78265   0.00000  Uiso   1.00
Zn1454 Zn    0.50000   0.79340   0.21735   0.00000  Uiso   1.00
Zn1455 Zn    0.50000   0.70659   0.78265   0.00000  Uiso   1.00
Zn1456 Zn    0.95660   0.75000   0.71735   0.00000  Uiso   1.00
loop_
_geom_bond_atom_site_label_1
_geom_bond_atom_site_label_2
_geom_bond_distance
_geom_bond_site_symmetry_2
_ccdc_geom_bond_type
C1     C78     1.403   .     A
C1     H169    1.084   .     S
C1     C4      1.395   .     A
C2     C14     1.395   .     A
C2     C84     1.403   .     A
C2     H170    1.084   .     S
C3     C147    1.395   .     A
C3     C90     1.402   .     A
C3     C38     1.411   .     A
C4     C91     1.402   .     A
C4     C34     1.411   .     A
C5     C36     1.411   .     A
C5     C81     1.395   .     A
C5     C93     1.402   .     A
C6     C94     1.402   .     A
C6     C92     1.395   .     A
C6     C765    1.411   1_545 S
C7     C103    1.395   .     A
C7     C95     1.402   .     A
C7     C766    1.411   .     S
C8     C35     1.394   .     A
C8     C96     1.402   .     A
C8     C39     1.411   .     A
C9     C46     1.394   .     A
C9     C97     1.402   .     A
C9     C768    1.411   .     S
C10    C41     1.411   .     A
C10    C98     1.402   .     A
C10    C57     1.395   .     A
C11    C99     1.402   .     A
C11    C68     1.395   .     A
C11    C406    1.411   1_455 S
C12    C158    1.395   .     A
C12    C100    1.402   .     A
C12    C767    1.411   .     S
C13    H171    1.084   .     S
C13    C15     1.395   .     A
C13    C449    1.404   1_455 S
C14    C101    1.402   .     A
C14    C40     1.411   .     A
C15    C102    1.402   .     A
C15    C405    1.411   1_455 S
C16    C104    1.402   .     A
C16    C24     1.395   .     A
C16    C42     1.411   .     A
C17    C120    1.453   .     S
C17    C148    1.412   .     A
C17    C150    1.412   .     A
C18    C121    1.453   .     S
C18    C149    1.413   .     A
C18    C146    1.412   .     A
C19    C113    1.453   .     S
C19    C145    1.413   .     A
C19    C152    1.411   .     A
C20    C144    1.412   .     A
C20    C151    1.412   .     A
C20    C115    1.454   .     S
C21    C116    1.453   .     S
C21    C154    1.413   .     A
C21    C143    1.413   .     A
C22    C153    1.412   .     A
C22    C117    1.453   .     S
C22    C142    1.413   .     A
C23    C118    1.452   .     S
C23    C141    1.412   .     A
C23    C156    1.412   .     A
C24    H172    1.084   .     S
C24    C86     1.404   .     A
C25    C119    1.452   .     S
C25    C140    1.412   .     A
C25    C155    1.412   .     A
C26    C139    1.412   .     A
C26    C159    1.412   .     A
C26    C129    1.452   .     S
C27    C138    1.412   .     A
C27    C157    1.412   .     A
C27    C130    1.452   .     S
C28    C137    1.412   .     A
C28    C122    1.453   .     S
C28    C161    1.413   .     A
C29    C135    1.413   .     A
C29    C160    1.413   .     A
C29    C123    1.453   .     S
C30    C134    1.412   .     A
C30    C163    1.412   .     A
C30    C124    1.454   .     S
C31    C162    1.413   .     A
C31    C133    1.411   .     A
C31    C126    1.453   .     S
C32    C127    1.453   .     S
C32    C165    1.412   .     A
C32    C132    1.413   .     A
C33    C164    1.412   .     A
C33    C131    1.412   .     A
C33    C128    1.453   .     S
C34    C400    1.403   .     S
C34    C530    1.411   .     S
C35    H173    1.084   .     S
C35    C83     1.404   .     A
C36    C398    1.403   1_455 S
C36    C531    1.411   1_455 S
C37    C168    1.411   .     A
C37    C734    1.411   .     S
C37    C766    1.403   .     S
C38    C735    1.411   1_545 S
C38    C765    1.403   1_545 S
C39    C740    1.411   1_545 S
C39    C40     1.403   1_556 S
C40    C737    1.411   1_545 S
C40    C39     1.403   1_554 S
C41    C379    1.411   .     S
C41    C42     1.403   1_556 S
C42    C375    1.411   .     S
C42    C41     1.403   1_554 S
C43    C131    1.492   .     S
C43    O298    1.223   .     D
C43    O299    1.398   .     S
C44    O301    1.398   .     S
C44    O300    1.223   .     D
C44    C132    1.489   .     S
C45    C133    1.492   .     S
C45    O303    1.399   .     S
C45    O302    1.223   .     D
C46    H174    1.084   .     S
C46    C812    1.404   .     S
C47    O304    1.222   .     D
C47    C134    1.488   .     S
C47    O306    1.398   .     S
C48    C135    1.492   .     S
C48    O307    1.223   .     D
C48    O308    1.398   .     S
C49    O309    1.223   .     D
C49    C137    1.493   .     S
C49    O310    1.398   .     S
C50    C138    1.492   .     S
C50    O311    1.223   .     D
C50    O312    1.398   .     S
C51    O314    1.398   .     S
C51    O313    1.223   .     D
C51    C139    1.491   .     S
C52    O315    1.223   .     D
C52    O317    1.398   .     S
C52    C140    1.491   .     S
C53    O318    1.223   .     D
C53    C141    1.491   .     S
C53    O319    1.398   .     S
C54    O320    1.223   .     D
C54    O321    1.398   .     S
C54    C142    1.488   .     S
C55    O322    1.223   .     D
C55    C143    1.489   .     S
C55    O323    1.398   .     S
C56    O325    1.398   .     S
C56    C144    1.488   .     S
C56    O324    1.222   .     D
C57    C85     1.404   .     A
C57    H175    1.084   .     S
C58    O328    1.398   .     S
C58    C145    1.490   .     S
C58    O326    1.222   .     D
C59    O330    1.398   .     S
C59    O329    1.223   .     D
C59    C146    1.492   .     S
C60    O331    1.223   .     D
C60    C148    1.491   .     S
C60    O332    1.398   .     S
C61    C149    1.489   .     S
C61    O334    1.398   .     S
C61    O333    1.223   .     D
C62    C150    1.492   .     S
C62    O335    1.223   .     D
C62    O336    1.398   .     S
C63    O339    1.398   .     S
C63    O337    1.222   .     D
C63    C151    1.488   .     S
C64    C152    1.492   .     S
C64    O340    1.223   .     D
C64    O341    1.399   .     S
C65    O342    1.223   .     D
C65    C153    1.493   .     S
C65    O343    1.398   .     S
C66    C154    1.492   .     S
C66    O345    1.398   .     S
C66    O344    1.223   .     D
C67    O347    1.398   .     S
C67    C155    1.491   .     S
C67    O346    1.223   .     D
C68    H176    1.084   .     S
C68    C450    1.403   1_455 S
C69    C156    1.492   .     S
C69    O348    1.223   .     D
C69    O235    1.398   .     S
C70    O237    1.398   .     S
C70    C157    1.491   .     S
C70    O236    1.223   .     D
C71    O238    1.223   .     D
C71    O239    1.398   .     S
C71    C159    1.491   .     S
C72    O240    1.223   .     D
C72    O241    1.398   .     S
C72    C160    1.489   .     S
C73    C161    1.488   .     S
C73    O242    1.223   .     D
C73    O243    1.398   .     S
C74    O244    1.222   .     D
C74    C162    1.490   .     S
C74    O246    1.398   .     S
C75    O248    1.398   .     S
C75    O247    1.222   .     D
C75    C163    1.488   .     S
C76    O250    1.398   .     S
C76    O249    1.223   .     D
C76    C164    1.491   .     S
C77    C165    1.492   .     S
C77    O252    1.398   .     S
C77    O251    1.223   .     D
C78    C107    1.463   .     S
C78    C478    1.404   .     S
C79    C81     1.403   .     A
C79    C108    1.463   .     S
C79    C489    1.404   1_455 S
C80    C136    1.403   .     A
C80    C105    1.464   .     S
C80    C820    1.404   .     S
C81    H180    1.084   .     S
C82    C147    1.404   .     A
C82    C106    1.464   .     S
C82    C831    1.404   1_545 S
C83    C111    1.463   .     S
C83    C886    1.403   1_545 S
C84    C112    1.463   .     S
C84    C774    1.404   1_545 S
C85    C473    1.464   .     S
C85    C377    1.404   .     S
C86    C110    1.464   .     S
C86    C432    1.403   .     S
C87    H177    1.084   .     S
C87    C93     1.395   .     A
C87    C166    1.402   .     A
C88    H178    1.084   .     S
C88    C167    1.402   .     A
C88    C91     1.395   .     A
C89    C95     1.395   .     A
C89    C168    1.402   .     A
C89    H179    1.084   .     S
C90    H181    1.084   .     S
C90    C94     1.395   .     A
C91    H182    1.084   .     S
C92    H191    1.084   .     S
C92    C808    1.404   1_545 S
C93    H183    1.084   .     S
C94    H184    1.084   .     S
C95    H185    1.084   .     S
C96    H186    1.084   .     S
C96    C101    1.395   1_556 S
C97    H187    1.084   .     S
C97    C100    1.395   1_554 S
C98    H188    1.084   .     S
C98    C104    1.395   1_556 S
C99    H189    1.084   .     S
C99    C102    1.395   1_554 S
C100   H190    1.084   .     S
C100   C97     1.395   1_556 S
C101   H192    1.084   .     S
C101   C96     1.395   1_554 S
C102   H193    1.084   .     S
C102   C99     1.395   1_556 S
C103   H202    1.084   .     S
C103   C810    1.404   .     S
C104   H194    1.084   .     S
C104   C98     1.395   1_554 S
C105   O294    1.281   .     A
C105   O1066   1.281   .     S
C106   O305    1.281   .     A
C106   O962    1.281   1_545 S
C107   O245    1.278   .     A
C107   O680    1.278   .     S
C108   O253    1.278   .     A
C108   O691    1.278   1_455 S
C109   O254    1.281   .     A
C109   C449    1.464   1_455 S
C109   O258    1.281   .     S
C110   O619    1.281   .     A
C110   O623    1.281   .     A
C111   O260    1.278   .     A
C111   O256    1.278   .     A
C112   O257    1.278   .     A
C112   O262    1.278   .     A
C113   O263    1.281   .     A
C113   O291    1.276   .     A
C114   H213    1.084   .     S
C114   C166    1.394   .     A
C114   C442    1.404   1_455 S
C115   O292    1.279   .     A
C115   O264    1.278   .     A
C116   O289    1.279   .     A
C116   O265    1.275   .     A
C117   O290    1.280   .     A
C117   O266    1.274   .     A
C118   O267    1.278   .     A
C118   O296    1.274   .     A
C119   O268    1.278   .     A
C119   O297    1.274   .     A
C120   O269    1.279   .     A
C120   O293    1.275   .     A
C121   O295    1.274   .     A
C121   O270    1.281   .     A
C122   O271    1.280   .     A
C122   O282    1.274   .     A
C123   O273    1.279   .     A
C123   O284    1.275   .     A
C124   O280    1.278   .     A
C124   O274    1.279   .     A
C125   H224    1.084   .     S
C125   C167    1.394   .     A
C125   C443    1.404   .     S
C126   O281    1.281   .     A
C126   O275    1.276   .     A
C127   O287    1.281   .     A
C127   O276    1.274   .     A
C128   O288    1.279   .     A
C128   O277    1.275   .     A
C129   O278    1.274   .     A
C129   O285    1.278   .     A
C130   O286    1.278   .     A
C130   O279    1.274   .     A
C131   C148    1.408   .     A
C132   C146    1.406   .     A
C133   C145    1.407   .     A
C134   C144    1.404   .     A
C135   C143    1.406   .     A
C136   C168    1.395   .     A
C136   H230    1.084   .     S
C137   C142    1.405   .     A
C138   C141    1.408   .     A
C139   C140    1.408   .     A
C147   H231    1.084   .     S
C149   C165    1.406   .     A
C150   C164    1.408   .     A
C151   C163    1.404   .     A
C152   C162    1.407   .     A
C153   C161    1.405   .     A
C154   C160    1.406   .     A
C155   C159    1.408   .     A
C156   C157    1.408   .     A
C158   H232    1.084   .     S
C158   C811    1.403   .     S
C166   C398    1.411   1_455 S
C167   C400    1.411   .     S
H195   O299    1.014   .     S
H196   O301    1.014   .     S
H197   O303    1.013   .     S
H198   O306    1.013   .     S
H199   O308    1.014   .     S
H200   O310    1.014   .     S
H201   O312    1.014   .     S
H203   O314    1.014   .     S
H204   O317    1.014   .     S
H205   O319    1.014   .     S
H206   O321    1.014   .     S
H207   O323    1.014   .     S
H208   O325    1.013   .     S
H209   O328    1.014   .     S
H210   O330    1.014   .     S
H211   O332    1.014   .     S
H212   O334    1.014   .     S
H214   O336    1.014   .     S
H215   O339    1.013   .     S
H216   O341    1.013   .     S
H217   O343    1.014   .     S
H218   O345    1.014   .     S
H219   O347    1.014   .     S
H220   O235    1.014   .     S
H221   O237    1.014   .     S
H222   O239    1.014   .     S
H223   O241    1.014   .     S
H225   O243    1.014   .     S
H226   O246    1.014   .     S
H227   O248    1.013   .     S
H228   O250    1.014   .     S
H229   O252    1.014   .     S
O233   Zn352   1.949   .     S
O233   Zn349   1.945   .     S
O233   Zn1084  1.946   1_545 S
O233   Zn360   1.941   .     S
O234   Zn351   1.950   .     S
O234   C834    1.281   .     S
O245   Zn354   1.952   .     S
O253   Zn353   1.952   .     S
O254   Zn363   1.952   .     S
O255   Zn362   1.952   .     S
O255   C474    1.281   1_455 A
O256   Zn357   1.950   .     S
O257   Zn349   1.950   .     S
O258   Zn359   1.950   .     S
O259   Zn358   1.950   .     S
O259   C474    1.281   1_455 A
O260   Zn361   1.952   .     S
O261   Zn1079  1.949   1_545 S
O261   Zn355   1.946   .     S
O261   Zn357   1.945   .     S
O261   Zn361   1.941   .     S
O262   Zn360   1.952   .     S
O263   Zn352   1.930   .     S
O264   Zn351   1.930   .     S
O265   Zn354   1.934   .     S
O266   Zn353   1.934   .     S
O267   Zn356   1.930   .     S
O268   Zn355   1.930   .     S
O269   Zn350   1.932   .     S
O270   Zn364   1.932   .     S
O271   Zn351   1.930   .     S
O272   Zn362   1.946   .     S
O272   Zn358   1.949   .     S
O272   Zn718   1.941   1_455 S
O272   Zn350   1.945   .     S
O273   Zn352   1.930   .     S
O274   Zn364   1.932   .     S
O275   Zn350   1.932   .     S
O276   Zn355   1.931   .     S
O277   Zn356   1.931   .     S
O278   Zn353   1.932   .     S
O279   Zn354   1.932   .     S
O280   Zn723   1.930   .     S
O281   Zn358   1.930   .     S
O282   Zn1089  1.934   .     S
O283   Zn363   1.946   .     S
O283   Zn359   1.949   .     S
O283   Zn728   1.945   1_455 S
O283   Zn353   1.941   .     S
O284   Zn360   1.934   .     S
O285   Zn363   1.930   .     S
O286   Zn726   1.930   .     S
O287   Zn357   1.932   .     S
O288   Zn1077  1.932   .     S
O289   Zn722   1.930   .     S
O290   Zn359   1.930   .     S
O291   Zn349   1.932   .     S
O292   Zn1085  1.932   .     S
O293   Zn362   1.931   .     S
O294   Zn356   1.952   .     S
O295   Zn727   1.931   .     S
O296   Zn1088  1.932   .     S
O297   Zn361   1.932   .     S
O305   Zn355   1.952   .     S
O316   Zn350   1.950   .     S
O316   C471    1.278   1_455 S
O327   Zn364   1.950   .     S
O327   C472    1.278   .     S
O338   Zn352   1.950   .     S
O338   C833    1.281   1_545 S
Zn349  O1016   1.932   1_545 S
Zn351  O989    1.949   .     S
Zn354  O636    1.941   .     S
Zn356  O961    1.946   .     S
Zn357  O1020   1.932   1_545 S
Zn358  O653    1.930   1_455 S
Zn359  O644    1.930   1_455 S
Zn360  O1024   1.932   1_545 S
Zn361  O1010   1.934   1_545 S
Zn362  O650    1.930   1_455 S
Zn363  O659    1.931   1_455 S
Zn364  O647    1.945   .     S
C365   C442    1.403   .     A
C365   H533    1.084   .     S
C365   C368    1.395   .     A
C366   C378    1.395   .     A
C366   C448    1.403   .     A
C366   H534    1.084   .     S
C367   C511    1.395   .     A
C367   C454    1.402   .     A
C367   C402    1.411   .     A
C368   C455    1.402   .     A
C368   C398    1.411   .     A
C369   C400    1.411   .     A
C369   C445    1.395   .     A
C369   C457    1.402   .     A
C370   C458    1.402   .     A
C370   C456    1.395   .     A
C370   C1129   1.411   1_545 S
C371   C467    1.395   .     A
C371   C459    1.402   .     A
C371   C1130   1.411   .     S
C372   C399    1.394   .     A
C372   C460    1.402   .     A
C372   C403    1.411   .     A
C373   C410    1.394   .     A
C373   C461    1.402   .     A
C373   C1132   1.411   .     S
C374   C405    1.411   .     A
C374   C462    1.402   .     A
C374   C421    1.395   .     A
C375   C463    1.402   .     A
C375   C432    1.395   .     A
C376   C522    1.395   .     A
C376   C464    1.402   .     A
C376   C1131   1.411   .     S
C377   H535    1.084   .     S
C377   C379    1.395   .     A
C378   C465    1.402   .     A
C378   C404    1.411   .     A
C379   C466    1.402   .     A
C380   C468    1.402   .     A
C380   C388    1.395   .     A
C380   C406    1.411   .     A
C381   C484    1.453   .     S
C381   C512    1.412   .     A
C381   C514    1.412   .     A
C382   C485    1.453   .     S
C382   C513    1.413   .     A
C382   C510    1.412   .     A
C383   C477    1.453   .     S
C383   C509    1.413   .     A
C383   C516    1.411   .     A
C384   C508    1.412   .     A
C384   C515    1.412   .     A
C384   C479    1.454   .     S
C385   C480    1.453   .     S
C385   C518    1.413   .     A
C385   C507    1.413   .     A
C386   C517    1.412   .     A
C386   C481    1.453   .     S
C386   C506    1.413   .     A
C387   C482    1.452   .     S
C387   C505    1.412   .     A
C387   C520    1.412   .     A
C388   H536    1.084   .     S
C388   C450    1.404   .     A
C389   C483    1.452   .     S
C389   C504    1.412   .     A
C389   C519    1.412   .     A
C390   C503    1.412   .     A
C390   C523    1.412   .     A
C390   C493    1.452   .     S
C391   C502    1.412   .     A
C391   C521    1.412   .     A
C391   C494    1.452   .     S
C392   C501    1.412   .     A
C392   C486    1.453   .     S
C392   C525    1.413   .     A
C393   C499    1.413   .     A
C393   C524    1.413   .     A
C393   C487    1.453   .     S
C394   C498    1.412   .     A
C394   C527    1.412   .     A
C394   C488    1.454   .     S
C395   C526    1.413   .     A
C395   C497    1.411   .     A
C395   C490    1.453   .     S
C396   C491    1.453   .     S
C396   C529    1.412   .     A
C396   C496    1.413   .     A
C397   C528    1.412   .     A
C397   C495    1.412   .     A
C397   C492    1.453   .     S
C398   C36     1.403   1_655 S
C398   C166    1.411   1_655 S
C399   H537    1.084   .     S
C399   C447    1.404   .     A
C401   C532    1.411   .     A
C401   C1098   1.411   .     S
C401   C1130   1.403   .     S
C402   C1099   1.411   1_545 S
C402   C1129   1.403   1_545 S
C403   C1104   1.411   1_545 S
C403   C404    1.403   1_556 S
C404   C1101   1.411   1_545 S
C404   C403    1.403   1_554 S
C405   C15     1.411   1_655 S
C405   C406    1.403   1_556 S
C406   C11     1.411   1_655 S
C406   C405    1.403   1_554 S
C407   C495    1.492   .     S
C407   O662    1.223   .     D
C407   O663    1.398   .     S
C408   O665    1.398   .     S
C408   O664    1.223   .     D
C408   C496    1.489   .     S
C409   C497    1.492   .     S
C409   O667    1.399   .     S
C409   O666    1.223   .     D
C410   H538    1.084   .     S
C410   C1176   1.404   .     S
C411   O668    1.222   .     D
C411   C498    1.488   .     S
C411   O670    1.398   .     S
C412   C499    1.492   .     S
C412   O671    1.223   .     D
C412   O672    1.398   .     S
C413   O673    1.223   .     D
C413   C501    1.493   .     S
C413   O674    1.398   .     S
C414   C502    1.492   .     S
C414   O675    1.223   .     D
C414   O676    1.398   .     S
C415   O678    1.398   .     S
C415   O677    1.223   .     D
C415   C503    1.491   .     S
C416   O679    1.223   .     D
C416   O681    1.398   .     S
C416   C504    1.491   .     S
C417   O682    1.223   .     D
C417   C505    1.491   .     S
C417   O683    1.398   .     S
C418   O684    1.223   .     D
C418   O685    1.398   .     S
C418   C506    1.488   .     S
C419   O686    1.223   .     D
C419   C507    1.489   .     S
C419   O687    1.398   .     S
C420   O689    1.398   .     S
C420   C508    1.488   .     S
C420   O688    1.222   .     D
C421   C449    1.404   .     A
C421   H539    1.084   .     S
C422   O692    1.398   .     S
C422   C509    1.490   .     S
C422   O690    1.222   .     D
C423   O694    1.398   .     S
C423   O693    1.223   .     D
C423   C510    1.492   .     S
C424   O695    1.223   .     D
C424   C512    1.491   .     S
C424   O696    1.398   .     S
C425   C513    1.489   .     S
C425   O698    1.398   .     S
C425   O697    1.223   .     D
C426   C514    1.492   .     S
C426   O699    1.223   .     D
C426   O700    1.398   .     S
C427   O703    1.398   .     S
C427   O701    1.222   .     D
C427   C515    1.488   .     S
C428   C516    1.492   .     S
C428   O704    1.223   .     D
C428   O705    1.399   .     S
C429   O706    1.223   .     D
C429   C517    1.493   .     S
C429   O707    1.398   .     S
C430   C518    1.492   .     S
C430   O709    1.398   .     S
C430   O708    1.223   .     D
C431   O711    1.398   .     S
C431   C519    1.491   .     S
C431   O710    1.223   .     D
C432   H540    1.084   .     S
C433   C520    1.492   .     S
C433   O712    1.223   .     D
C433   O599    1.398   .     S
C434   O601    1.398   .     S
C434   C521    1.491   .     S
C434   O600    1.223   .     D
C435   O602    1.223   .     D
C435   O603    1.398   .     S
C435   C523    1.491   .     S
C436   O604    1.223   .     D
C436   O605    1.398   .     S
C436   C524    1.489   .     S
C437   C525    1.488   .     S
C437   O606    1.223   .     D
C437   O607    1.398   .     S
C438   O608    1.222   .     D
C438   C526    1.490   .     S
C438   O610    1.398   .     S
C439   O612    1.398   .     S
C439   O611    1.222   .     D
C439   C527    1.488   .     S
C440   O614    1.398   .     S
C440   O613    1.223   .     D
C440   C528    1.491   .     S
C441   C529    1.492   .     S
C441   O616    1.398   .     S
C441   O615    1.223   .     D
C442   C471    1.463   .     S
C442   C114    1.404   1_655 S
C443   C445    1.403   .     A
C443   C472    1.463   .     S
C444   C500    1.403   .     A
C444   C469    1.464   .     S
C444   C1184   1.404   .     S
C445   H544    1.084   .     S
C446   C511    1.404   .     A
C446   C470    1.464   .     S
C446   C1195   1.404   1_545 S
C447   C475    1.463   .     S
C447   C1250   1.403   1_545 S
C448   C476    1.463   .     S
C448   C1138   1.404   1_545 S
C449   C109    1.464   1_655 S
C449   C13     1.404   1_655 S
C450   C474    1.464   .     S
C450   C68     1.403   1_655 S
C451   H541    1.084   .     S
C451   C457    1.395   .     A
C451   C530    1.402   .     A
C452   H542    1.084   .     S
C452   C531    1.402   .     A
C452   C455    1.395   .     A
C453   C459    1.395   .     A
C453   C532    1.402   .     A
C453   H543    1.084   .     S
C454   H545    1.084   .     S
C454   C458    1.395   .     A
C455   H546    1.084   .     S
C456   H555    1.084   .     S
C456   C1172   1.404   1_545 S
C457   H547    1.084   .     S
C458   H548    1.084   .     S
C459   H549    1.084   .     S
C460   H550    1.084   .     S
C460   C465    1.395   1_556 S
C461   H551    1.084   .     S
C461   C464    1.395   1_554 S
C462   H552    1.084   .     S
C462   C468    1.395   1_556 S
C463   H553    1.084   .     S
C463   C466    1.395   1_554 S
C464   H554    1.084   .     S
C464   C461    1.395   1_556 S
C465   H556    1.084   .     S
C465   C460    1.395   1_554 S
C466   H557    1.084   .     S
C466   C463    1.395   1_556 S
C467   H566    1.084   .     S
C467   C1174   1.404   .     S
C468   H558    1.084   .     S
C468   C462    1.395   1_554 S
C469   O658    1.281   .     A
C469   O1430   1.281   .     S
C470   O669    1.281   .     A
C470   O1326   1.281   1_545 S
C471   O609    1.278   .     A
C471   O316    1.278   1_655 S
C472   O617    1.278   .     A
C473   O618    1.281   .     A
C473   O622    1.281   .     S
C474   O255    1.281   1_655 A
C474   O259    1.281   1_655 A
C475   O624    1.278   .     A
C475   O620    1.278   .     A
C476   O621    1.278   .     A
C476   O626    1.278   .     A
C477   O627    1.281   .     A
C477   O655    1.276   .     A
C478   H577    1.084   .     S
C478   C530    1.394   .     A
C479   O656    1.279   .     A
C479   O628    1.278   .     A
C480   O653    1.279   .     A
C480   O629    1.275   .     A
C481   O654    1.280   .     A
C481   O630    1.274   .     A
C482   O631    1.278   .     A
C482   O660    1.274   .     A
C483   O632    1.278   .     A
C483   O661    1.274   .     A
C484   O633    1.279   .     A
C484   O657    1.275   .     A
C485   O659    1.274   .     A
C485   O634    1.281   .     A
C486   O635    1.280   .     A
C486   O646    1.274   .     A
C487   O637    1.279   .     A
C487   O648    1.275   .     A
C488   O644    1.278   .     A
C488   O638    1.279   .     A
C489   H588    1.084   .     S
C489   C531    1.394   .     A
C489   C79     1.404   1_655 S
C490   O645    1.281   .     A
C490   O639    1.276   .     A
C491   O651    1.281   .     A
C491   O640    1.274   .     A
C492   O652    1.279   .     A
C492   O641    1.275   .     A
C493   O642    1.274   .     A
C493   O649    1.278   .     A
C494   O650    1.278   .     A
C494   O643    1.274   .     A
C495   C512    1.408   .     A
C496   C510    1.406   .     A
C497   C509    1.407   .     A
C498   C508    1.404   .     A
C499   C507    1.406   .     A
C500   C532    1.395   .     A
C500   H594    1.084   .     S
C501   C506    1.405   .     A
C502   C505    1.408   .     A
C503   C504    1.408   .     A
C511   H595    1.084   .     S
C513   C529    1.406   .     A
C514   C528    1.408   .     A
C515   C527    1.404   .     A
C516   C526    1.407   .     A
C517   C525    1.405   .     A
C518   C524    1.406   .     A
C519   C523    1.408   .     A
C520   C521    1.408   .     A
C522   H596    1.084   .     S
C522   C1175   1.403   .     S
C531   C36     1.411   1_655 S
H559   O663    1.014   .     S
H560   O665    1.014   .     S
H561   O667    1.013   .     S
H562   O670    1.013   .     S
H563   O672    1.014   .     S
H564   O674    1.014   .     S
H565   O676    1.014   .     S
H567   O678    1.014   .     S
H568   O681    1.014   .     S
H569   O683    1.014   .     S
H570   O685    1.014   .     S
H571   O687    1.014   .     S
H572   O689    1.013   .     S
H573   O692    1.014   .     S
H574   O694    1.014   .     S
H575   O696    1.014   .     S
H576   O698    1.014   .     S
H578   O700    1.014   .     S
H579   O703    1.013   .     S
H580   O705    1.013   .     S
H581   O707    1.014   .     S
H582   O709    1.014   .     S
H583   O711    1.014   .     S
H584   O599    1.014   .     S
H585   O601    1.014   .     S
H586   O603    1.014   .     S
H587   O605    1.014   .     S
H589   O607    1.014   .     S
H590   O610    1.014   .     S
H591   O612    1.013   .     S
H592   O614    1.014   .     S
H593   O616    1.014   .     S
O597   Zn716   1.949   .     S
O597   Zn713   1.945   .     S
O597   Zn1448  1.946   1_545 S
O597   Zn724   1.941   .     S
O598   Zn715   1.950   .     S
O598   C1198   1.281   .     S
O609   Zn718   1.952   .     S
O617   Zn717   1.952   .     S
O618   Zn727   1.952   .     S
O619   Zn726   1.952   .     S
O620   Zn721   1.950   .     S
O621   Zn713   1.950   .     S
O622   Zn723   1.950   .     S
O623   Zn722   1.950   .     S
O624   Zn725   1.952   .     S
O625   Zn1443  1.949   1_545 S
O625   Zn719   1.946   .     S
O625   Zn721   1.945   .     S
O625   Zn725   1.941   .     S
O626   Zn724   1.952   .     S
O627   Zn716   1.930   .     S
O628   Zn715   1.930   .     S
O629   Zn718   1.934   .     S
O630   Zn717   1.934   .     S
O631   Zn720   1.930   .     S
O632   Zn719   1.930   .     S
O633   Zn714   1.932   .     S
O634   Zn728   1.932   .     S
O635   Zn715   1.930   .     S
O636   Zn726   1.946   .     S
O636   Zn722   1.949   .     S
O636   Zn714   1.945   .     S
O637   Zn716   1.930   .     S
O638   Zn728   1.932   .     S
O639   Zn714   1.932   .     S
O640   Zn719   1.931   .     S
O641   Zn720   1.931   .     S
O642   Zn717   1.932   .     S
O643   Zn718   1.932   .     S
O644   Zn359   1.930   1_655 S
O645   Zn722   1.930   .     S
O646   Zn1453  1.934   .     S
O647   Zn727   1.946   .     S
O647   Zn723   1.949   .     S
O647   Zn717   1.941   .     S
O648   Zn724   1.934   .     S
O649   Zn727   1.930   .     S
O650   Zn362   1.930   1_655 S
O651   Zn721   1.932   .     S
O652   Zn1441  1.932   .     S
O653   Zn358   1.930   1_655 S
O654   Zn723   1.930   .     S
O655   Zn713   1.932   .     S
O656   Zn1449  1.932   .     S
O657   Zn726   1.931   .     S
O658   Zn720   1.952   .     S
O659   Zn363   1.931   1_655 S
O660   Zn1452  1.932   .     S
O661   Zn725   1.932   .     S
O669   Zn719   1.952   .     S
O680   Zn714   1.950   .     S
O691   Zn728   1.950   .     S
O691   C108    1.278   1_655 S
O702   Zn716   1.950   .     S
O702   C1197   1.281   1_545 S
Zn713  O1380   1.932   1_545 S
Zn715  O1353   1.949   .     S
Zn718  O272    1.941   1_655 S
Zn720  O1325   1.946   .     S
Zn721  O1384   1.932   1_545 S
Zn724  O1388   1.932   1_545 S
Zn725  O1374   1.934   1_545 S
Zn728  O283    1.945   1_655 S
C729   C806    1.403   .     A
C729   H897    1.084   .     S
C729   C732    1.395   .     A
C730   C742    1.395   .     A
C730   C812    1.403   .     A
C730   H898    1.084   .     S
C731   C875    1.395   .     A
C731   C818    1.402   .     A
C731   C766    1.411   .     A
C732   C819    1.402   .     A
C732   C762    1.411   .     A
C733   C764    1.411   .     A
C733   C809    1.395   .     A
C733   C821    1.402   .     A
C734   C822    1.402   .     A
C734   C820    1.395   .     A
C735   C831    1.395   .     A
C735   C823    1.402   .     A
C735   C38     1.411   1_565 S
C736   C763    1.394   .     A
C736   C824    1.402   .     A
C736   C767    1.411   .     A
C737   C774    1.394   .     A
C737   C825    1.402   .     A
C737   C40     1.411   1_565 S
C738   C769    1.411   .     A
C738   C826    1.402   .     A
C738   C785    1.395   .     A
C739   C827    1.402   .     A
C739   C796    1.395   .     A
C739   C1134   1.411   1_455 S
C740   C886    1.395   .     A
C740   C828    1.402   .     A
C740   C39     1.411   1_565 S
C741   H899    1.084   .     S
C741   C743    1.395   .     A
C741   C1177   1.404   1_455 S
C742   C829    1.402   .     A
C742   C768    1.411   .     A
C743   C830    1.402   .     A
C743   C1133   1.411   1_455 S
C744   C832    1.402   .     A
C744   C752    1.395   .     A
C744   C770    1.411   .     A
C745   C848    1.453   .     S
C745   C876    1.412   .     A
C745   C878    1.412   .     A
C746   C849    1.453   .     S
C746   C877    1.413   .     A
C746   C874    1.412   .     A
C747   C841    1.453   .     S
C747   C873    1.413   .     A
C747   C880    1.411   .     A
C748   C872    1.412   .     A
C748   C879    1.412   .     A
C748   C843    1.454   .     S
C749   C844    1.453   .     S
C749   C882    1.413   .     A
C749   C871    1.413   .     A
C750   C881    1.412   .     A
C750   C845    1.453   .     S
C750   C870    1.413   .     A
C751   C846    1.452   .     S
C751   C869    1.412   .     A
C751   C884    1.412   .     A
C752   H900    1.084   .     S
C752   C814    1.404   .     A
C753   C847    1.452   .     S
C753   C868    1.412   .     A
C753   C883    1.412   .     A
C754   C867    1.412   .     A
C754   C887    1.412   .     A
C754   C857    1.452   .     S
C755   C866    1.412   .     A
C755   C885    1.412   .     A
C755   C858    1.452   .     S
C756   C865    1.412   .     A
C756   C850    1.453   .     S
C756   C889    1.413   .     A
C757   C863    1.413   .     A
C757   C888    1.413   .     A
C757   C851    1.453   .     S
C758   C862    1.412   .     A
C758   C891    1.412   .     A
C758   C852    1.454   .     S
C759   C890    1.413   .     A
C759   C861    1.411   .     A
C759   C854    1.453   .     S
C760   C855    1.453   .     S
C760   C893    1.412   .     A
C760   C860    1.413   .     A
C761   C892    1.412   .     A
C761   C859    1.412   .     A
C761   C856    1.453   .     S
C762   C1128   1.403   .     S
C762   C1258   1.411   .     S
C763   H901    1.084   .     S
C763   C811    1.404   .     A
C764   C1126   1.403   1_455 S
C764   C1259   1.411   1_455 S
C765   C896    1.411   .     A
C765   C6      1.411   1_565 S
C765   C38     1.403   1_565 S
C767   C768    1.403   1_556 S
C768   C767    1.403   1_554 S
C769   C1107   1.411   .     S
C769   C770    1.403   1_556 S
C770   C1103   1.411   .     S
C770   C769    1.403   1_554 S
C771   C859    1.492   .     S
C771   O1026   1.223   .     D
C771   O1027   1.398   .     S
C772   O1029   1.398   .     S
C772   O1028   1.223   .     D
C772   C860    1.489   .     S
C773   C861    1.492   .     S
C773   O1031   1.399   .     S
C773   O1030   1.223   .     D
C774   H902    1.084   .     S
C774   C84     1.404   1_565 S
C775   O1032   1.222   .     D
C775   C862    1.488   .     S
C775   O1034   1.398   .     S
C776   C863    1.492   .     S
C776   O1035   1.223   .     D
C776   O1036   1.398   .     S
C777   O1037   1.223   .     D
C777   C865    1.493   .     S
C777   O1038   1.398   .     S
C778   C866    1.492   .     S
C778   O1039   1.223   .     D
C778   O1040   1.398   .     S
C779   O1042   1.398   .     S
C779   O1041   1.223   .     D
C779   C867    1.491   .     S
C780   O1043   1.223   .     D
C780   O1045   1.398   .     S
C780   C868    1.491   .     S
C781   O1046   1.223   .     D
C781   C869    1.491   .     S
C781   O1047   1.398   .     S
C782   O1048   1.223   .     D
C782   O1049   1.398   .     S
C782   C870    1.488   .     S
C783   O1050   1.223   .     D
C783   C871    1.489   .     S
C783   O1051   1.398   .     S
C784   O1053   1.398   .     S
C784   C872    1.488   .     S
C784   O1052   1.222   .     D
C785   C813    1.404   .     A
C785   H903    1.084   .     S
C786   O1056   1.398   .     S
C786   C873    1.490   .     S
C786   O1054   1.222   .     D
C787   O1058   1.398   .     S
C787   O1057   1.223   .     D
C787   C874    1.492   .     S
C788   O1059   1.223   .     D
C788   C876    1.491   .     S
C788   O1060   1.398   .     S
C789   C877    1.489   .     S
C789   O1062   1.398   .     S
C789   O1061   1.223   .     D
C790   C878    1.492   .     S
C790   O1063   1.223   .     D
C790   O1064   1.398   .     S
C791   O1067   1.398   .     S
C791   O1065   1.222   .     D
C791   C879    1.488   .     S
C792   C880    1.492   .     S
C792   O1068   1.223   .     D
C792   O1069   1.399   .     S
C793   O1070   1.223   .     D
C793   C881    1.493   .     S
C793   O1071   1.398   .     S
C794   C882    1.492   .     S
C794   O1073   1.398   .     S
C794   O1072   1.223   .     D
C795   O1075   1.398   .     S
C795   C883    1.491   .     S
C795   O1074   1.223   .     D
C796   H904    1.084   .     S
C796   C1178   1.403   1_455 S
C797   C884    1.492   .     S
C797   O1076   1.223   .     D
C797   O963    1.398   .     S
C798   O965    1.398   .     S
C798   C885    1.491   .     S
C798   O964    1.223   .     D
C799   O966    1.223   .     D
C799   O967    1.398   .     S
C799   C887    1.491   .     S
C800   O968    1.223   .     D
C800   O969    1.398   .     S
C800   C888    1.489   .     S
C801   C889    1.488   .     S
C801   O970    1.223   .     D
C801   O971    1.398   .     S
C802   O972    1.222   .     D
C802   C890    1.490   .     S
C802   O974    1.398   .     S
C803   O976    1.398   .     S
C803   O975    1.222   .     D
C803   C891    1.488   .     S
C804   O978    1.398   .     S
C804   O977    1.223   .     D
C804   C892    1.491   .     S
C805   C893    1.492   .     S
C805   O980    1.398   .     S
C805   O979    1.223   .     D
C806   C835    1.463   .     S
C806   C1206   1.404   .     S
C807   C809    1.403   .     A
C807   C836    1.463   .     S
C807   C1217   1.404   1_455 S
C808   C864    1.403   .     A
C808   C833    1.464   .     S
C808   C92     1.404   1_565 S
C809   H908    1.084   .     S
C810   C875    1.404   .     A
C810   C834    1.464   .     S
C811   C839    1.463   .     S
C812   C840    1.463   .     S
C813   C1201   1.464   .     S
C813   C1105   1.404   .     S
C814   C838    1.464   .     S
C814   C1160   1.403   .     S
C815   H905    1.084   .     S
C815   C821    1.395   .     A
C815   C894    1.402   .     A
C816   H906    1.084   .     S
C816   C895    1.402   .     A
C816   C819    1.395   .     A
C817   C823    1.395   .     A
C817   C896    1.402   .     A
C817   H907    1.084   .     S
C818   H909    1.084   .     S
C818   C822    1.395   .     A
C819   H910    1.084   .     S
C820   H919    1.084   .     S
C821   H911    1.084   .     S
C822   H912    1.084   .     S
C823   H913    1.084   .     S
C824   H914    1.084   .     S
C824   C829    1.395   1_556 S
C825   H915    1.084   .     S
C825   C828    1.395   1_554 S
C826   H916    1.084   .     S
C826   C832    1.395   1_556 S
C827   H917    1.084   .     S
C827   C830    1.395   1_554 S
C828   H918    1.084   .     S
C828   C825    1.395   1_556 S
C829   H920    1.084   .     S
C829   C824    1.395   1_554 S
C830   H921    1.084   .     S
C830   C827    1.395   1_556 S
C831   H930    1.084   .     S
C831   C82     1.404   1_565 S
C832   H922    1.084   .     S
C832   C826    1.395   1_554 S
C833   O1022   1.281   .     A
C833   O338    1.281   1_565 S
C834   O1033   1.281   .     A
C835   O973    1.278   .     A
C835   O1408   1.278   .     S
C836   O981    1.278   .     A
C836   O1419   1.278   1_455 S
C837   O982    1.281   .     A
C837   C1177   1.464   1_455 S
C837   O986    1.281   .     S
C838   O1347   1.281   .     A
C838   O1351   1.281   .     A
C839   O988    1.278   .     A
C839   O984    1.278   .     A
C840   O985    1.278   .     A
C840   O990    1.278   .     A
C841   O991    1.281   .     A
C841   O1019   1.276   .     A
C842   H941    1.084   .     S
C842   C894    1.394   .     A
C842   C1170   1.404   1_455 S
C843   O1020   1.279   .     A
C843   O992    1.278   .     A
C844   O1017   1.279   .     A
C844   O993    1.275   .     A
C845   O1018   1.280   .     A
C845   O994    1.274   .     A
C846   O995    1.278   .     A
C846   O1024   1.274   .     A
C847   O996    1.278   .     A
C847   O1025   1.274   .     A
C848   O997    1.279   .     A
C848   O1021   1.275   .     A
C849   O1023   1.274   .     A
C849   O998    1.281   .     A
C850   O999    1.280   .     A
C850   O1010   1.274   .     A
C851   O1001   1.279   .     A
C851   O1012   1.275   .     A
C852   O1008   1.278   .     A
C852   O1002   1.279   .     A
C853   H952    1.084   .     S
C853   C895    1.394   .     A
C853   C1171   1.404   .     S
C854   O1009   1.281   .     A
C854   O1003   1.276   .     A
C855   O1015   1.281   .     A
C855   O1004   1.274   .     A
C856   O1016   1.279   .     A
C856   O1005   1.275   .     A
C857   O1006   1.274   .     A
C857   O1013   1.278   .     A
C858   O1014   1.278   .     A
C858   O1007   1.274   .     A
C859   C876    1.408   .     A
C860   C874    1.406   .     A
C861   C873    1.407   .     A
C862   C872    1.404   .     A
C863   C871    1.406   .     A
C864   C896    1.395   .     A
C864   H958    1.084   .     S
C865   C870    1.405   .     A
C866   C869    1.408   .     A
C867   C868    1.408   .     A
C875   H959    1.084   .     S
C877   C893    1.406   .     A
C878   C892    1.408   .     A
C879   C891    1.404   .     A
C880   C890    1.407   .     A
C881   C889    1.405   .     A
C882   C888    1.406   .     A
C883   C887    1.408   .     A
C884   C885    1.408   .     A
C886   H960    1.084   .     S
C886   C83     1.403   1_565 S
C894   C1126   1.411   1_455 S
C895   C1128   1.411   .     S
H923   O1027   1.014   .     S
H924   O1029   1.014   .     S
H925   O1031   1.013   .     S
H926   O1034   1.013   .     S
H927   O1036   1.014   .     S
H928   O1038   1.014   .     S
H929   O1040   1.014   .     S
H931   O1042   1.014   .     S
H932   O1045   1.014   .     S
H933   O1047   1.014   .     S
H934   O1049   1.014   .     S
H935   O1051   1.014   .     S
H936   O1053   1.013   .     S
H937   O1056   1.014   .     S
H938   O1058   1.014   .     S
H939   O1060   1.014   .     S
H940   O1062   1.014   .     S
H942   O1064   1.014   .     S
H943   O1067   1.013   .     S
H944   O1069   1.013   .     S
H945   O1071   1.014   .     S
H946   O1073   1.014   .     S
H947   O1075   1.014   .     S
H948   O963    1.014   .     S
H949   O965    1.014   .     S
H950   O967    1.014   .     S
H951   O969    1.014   .     S
H953   O971    1.014   .     S
H954   O974    1.014   .     S
H955   O976    1.013   .     S
H956   O978    1.014   .     S
H957   O980    1.014   .     S
O961   Zn1080  1.949   .     S
O961   Zn1077  1.945   .     S
O961   Zn1088  1.941   .     S
O962   Zn1079  1.950   .     S
O962   C106    1.281   1_565 S
O973   Zn1082  1.952   .     S
O981   Zn1081  1.952   .     S
O982   Zn1091  1.952   .     S
O983   Zn1090  1.952   .     S
O983   C1202   1.281   1_455 A
O984   Zn1085  1.950   .     S
O985   Zn1077  1.950   .     S
O986   Zn1087  1.950   .     S
O987   Zn1086  1.950   .     S
O987   C1202   1.281   1_455 A
O988   Zn1089  1.952   .     S
O989   Zn1083  1.946   .     S
O989   Zn1085  1.945   .     S
O989   Zn1089  1.941   .     S
O990   Zn1088  1.952   .     S
O991   Zn1080  1.930   .     S
O992   Zn1079  1.930   .     S
O993   Zn1082  1.934   .     S
O994   Zn1081  1.934   .     S
O995   Zn1084  1.930   .     S
O996   Zn1083  1.930   .     S
O997   Zn1078  1.932   .     S
O998   Zn1092  1.932   .     S
O999   Zn1079  1.930   .     S
O1000  Zn1090  1.946   .     S
O1000  Zn1086  1.949   .     S
O1000  Zn1446  1.941   1_455 S
O1000  Zn1078  1.945   .     S
O1001  Zn1080  1.930   .     S
O1002  Zn1092  1.932   .     S
O1003  Zn1078  1.932   .     S
O1004  Zn1083  1.931   .     S
O1005  Zn1084  1.931   .     S
O1006  Zn1081  1.932   .     S
O1007  Zn1082  1.932   .     S
O1008  Zn1451  1.930   .     S
O1009  Zn1086  1.930   .     S
O1010  Zn361   1.934   1_565 S
O1011  Zn1091  1.946   .     S
O1011  Zn1087  1.949   .     S
O1011  Zn1456  1.945   1_455 S
O1011  Zn1081  1.941   .     S
O1012  Zn1088  1.934   .     S
O1013  Zn1091  1.930   .     S
O1014  Zn1454  1.930   .     S
O1015  Zn1085  1.932   .     S
O1016  Zn349   1.932   1_565 S
O1017  Zn1450  1.930   .     S
O1018  Zn1087  1.930   .     S
O1019  Zn1077  1.932   .     S
O1020  Zn357   1.932   1_565 S
O1021  Zn1090  1.931   .     S
O1022  Zn1084  1.952   .     S
O1023  Zn1455  1.931   .     S
O1024  Zn360   1.932   1_565 S
O1025  Zn1089  1.932   .     S
O1033  Zn1083  1.952   .     S
O1044  Zn1078  1.950   .     S
O1044  C1199   1.278   1_455 S
O1055  Zn1092  1.950   .     S
O1055  C1200   1.278   .     S
O1066  Zn1080  1.950   .     S
Zn1079 O261    1.949   1_565 S
Zn1082 O1364   1.941   .     S
Zn1084 O233    1.946   1_565 S
Zn1086 O1381   1.930   1_455 S
Zn1087 O1372   1.930   1_455 S
Zn1090 O1378   1.930   1_455 S
Zn1091 O1387   1.931   1_455 S
Zn1092 O1375   1.945   .     S
C1093  C1170   1.403   .     A
C1093  H1261   1.084   .     S
C1093  C1096   1.395   .     A
C1094  C1106   1.395   .     A
C1094  C1176   1.403   .     A
C1094  H1262   1.084   .     S
C1095  C1239   1.395   .     A
C1095  C1182   1.402   .     A
C1095  C1130   1.411   .     A
C1096  C1183   1.402   .     A
C1096  C1126   1.411   .     A
C1097  C1128   1.411   .     A
C1097  C1173   1.395   .     A
C1097  C1185   1.402   .     A
C1098  C1186   1.402   .     A
C1098  C1184   1.395   .     A
C1099  C1195   1.395   .     A
C1099  C1187   1.402   .     A
C1099  C402    1.411   1_565 S
C1100  C1127   1.394   .     A
C1100  C1188   1.402   .     A
C1100  C1131   1.411   .     A
C1101  C1138   1.394   .     A
C1101  C1189   1.402   .     A
C1101  C404    1.411   1_565 S
C1102  C1133   1.411   .     A
C1102  C1190   1.402   .     A
C1102  C1149   1.395   .     A
C1103  C1191   1.402   .     A
C1103  C1160   1.395   .     A
C1104  C1250   1.395   .     A
C1104  C1192   1.402   .     A
C1104  C403    1.411   1_565 S
C1105  H1263   1.084   .     S
C1105  C1107   1.395   .     A
C1106  C1193   1.402   .     A
C1106  C1132   1.411   .     A
C1107  C1194   1.402   .     A
C1108  C1196   1.402   .     A
C1108  C1116   1.395   .     A
C1108  C1134   1.411   .     A
C1109  C1212   1.453   .     S
C1109  C1240   1.412   .     A
C1109  C1242   1.412   .     A
C1110  C1213   1.453   .     S
C1110  C1241   1.413   .     A
C1110  C1238   1.412   .     A
C1111  C1205   1.453   .     S
C1111  C1237   1.413   .     A
C1111  C1244   1.411   .     A
C1112  C1236   1.412   .     A
C1112  C1243   1.412   .     A
C1112  C1207   1.454   .     S
C1113  C1208   1.453   .     S
C1113  C1246   1.413   .     A
C1113  C1235   1.413   .     A
C1114  C1245   1.412   .     A
C1114  C1209   1.453   .     S
C1114  C1234   1.413   .     A
C1115  C1210   1.452   .     S
C1115  C1233   1.412   .     A
C1115  C1248   1.412   .     A
C1116  H1264   1.084   .     S
C1116  C1178   1.404   .     A
C1117  C1211   1.452   .     S
C1117  C1232   1.412   .     A
C1117  C1247   1.412   .     A
C1118  C1231   1.412   .     A
C1118  C1251   1.412   .     A
C1118  C1221   1.452   .     S
C1119  C1230   1.412   .     A
C1119  C1249   1.412   .     A
C1119  C1222   1.452   .     S
C1120  C1229   1.412   .     A
C1120  C1214   1.453   .     S
C1120  C1253   1.413   .     A
C1121  C1227   1.413   .     A
C1121  C1252   1.413   .     A
C1121  C1215   1.453   .     S
C1122  C1226   1.412   .     A
C1122  C1255   1.412   .     A
C1122  C1216   1.454   .     S
C1123  C1254   1.413   .     A
C1123  C1225   1.411   .     A
C1123  C1218   1.453   .     S
C1124  C1219   1.453   .     S
C1124  C1257   1.412   .     A
C1124  C1224   1.413   .     A
C1125  C1256   1.412   .     A
C1125  C1223   1.412   .     A
C1125  C1220   1.453   .     S
C1126  C764    1.403   1_655 S
C1126  C894    1.411   1_655 S
C1127  H1265   1.084   .     S
C1127  C1175   1.404   .     A
C1129  C1260   1.411   .     A
C1129  C370    1.411   1_565 S
C1129  C402    1.403   1_565 S
C1131  C1132   1.403   1_556 S
C1132  C1131   1.403   1_554 S
C1133  C743    1.411   1_655 S
C1133  C1134   1.403   1_556 S
C1134  C739    1.411   1_655 S
C1134  C1133   1.403   1_554 S
C1135  C1223   1.492   .     S
C1135  O1390   1.223   .     D
C1135  O1391   1.398   .     S
C1136  O1393   1.398   .     S
C1136  O1392   1.223   .     D
C1136  C1224   1.489   .     S
C1137  C1225   1.492   .     S
C1137  O1395   1.399   .     S
C1137  O1394   1.223   .     D
C1138  H1266   1.084   .     S
C1138  C448    1.404   1_565 S
C1139  O1396   1.222   .     D
C1139  C1226   1.488   .     S
C1139  O1398   1.398   .     S
C1140  C1227   1.492   .     S
C1140  O1399   1.223   .     D
C1140  O1400   1.398   .     S
C1141  O1401   1.223   .     D
C1141  C1229   1.493   .     S
C1141  O1402   1.398   .     S
C1142  C1230   1.492   .     S
C1142  O1403   1.223   .     D
C1142  O1404   1.398   .     S
C1143  O1406   1.398   .     S
C1143  O1405   1.223   .     D
C1143  C1231   1.491   .     S
C1144  O1407   1.223   .     D
C1144  O1409   1.398   .     S
C1144  C1232   1.491   .     S
C1145  O1410   1.223   .     D
C1145  C1233   1.491   .     S
C1145  O1411   1.398   .     S
C1146  O1412   1.223   .     D
C1146  O1413   1.398   .     S
C1146  C1234   1.488   .     S
C1147  O1414   1.223   .     D
C1147  C1235   1.489   .     S
C1147  O1415   1.398   .     S
C1148  O1417   1.398   .     S
C1148  C1236   1.488   .     S
C1148  O1416   1.222   .     D
C1149  C1177   1.404   .     A
C1149  H1267   1.084   .     S
C1150  O1420   1.398   .     S
C1150  C1237   1.490   .     S
C1150  O1418   1.222   .     D
C1151  O1422   1.398   .     S
C1151  O1421   1.223   .     D
C1151  C1238   1.492   .     S
C1152  O1423   1.223   .     D
C1152  C1240   1.491   .     S
C1152  O1424   1.398   .     S
C1153  C1241   1.489   .     S
C1153  O1426   1.398   .     S
C1153  O1425   1.223   .     D
C1154  C1242   1.492   .     S
C1154  O1427   1.223   .     D
C1154  O1428   1.398   .     S
C1155  O1431   1.398   .     S
C1155  O1429   1.222   .     D
C1155  C1243   1.488   .     S
C1156  C1244   1.492   .     S
C1156  O1432   1.223   .     D
C1156  O1433   1.399   .     S
C1157  O1434   1.223   .     D
C1157  C1245   1.493   .     S
C1157  O1435   1.398   .     S
C1158  C1246   1.492   .     S
C1158  O1437   1.398   .     S
C1158  O1436   1.223   .     D
C1159  O1439   1.398   .     S
C1159  C1247   1.491   .     S
C1159  O1438   1.223   .     D
C1160  H1268   1.084   .     S
C1161  C1248   1.492   .     S
C1161  O1440   1.223   .     D
C1161  O1327   1.398   .     S
C1162  O1329   1.398   .     S
C1162  C1249   1.491   .     S
C1162  O1328   1.223   .     D
C1163  O1330   1.223   .     D
C1163  O1331   1.398   .     S
C1163  C1251   1.491   .     S
C1164  O1332   1.223   .     D
C1164  O1333   1.398   .     S
C1164  C1252   1.489   .     S
C1165  C1253   1.488   .     S
C1165  O1334   1.223   .     D
C1165  O1335   1.398   .     S
C1166  O1336   1.222   .     D
C1166  C1254   1.490   .     S
C1166  O1338   1.398   .     S
C1167  O1340   1.398   .     S
C1167  O1339   1.222   .     D
C1167  C1255   1.488   .     S
C1168  O1342   1.398   .     S
C1168  O1341   1.223   .     D
C1168  C1256   1.491   .     S
C1169  C1257   1.492   .     S
C1169  O1344   1.398   .     S
C1169  O1343   1.223   .     D
C1170  C1199   1.463   .     S
C1170  C842    1.404   1_655 S
C1171  C1173   1.403   .     A
C1171  C1200   1.463   .     S
C1172  C1228   1.403   .     A
C1172  C1197   1.464   .     S
C1172  C456    1.404   1_565 S
C1173  H1272   1.084   .     S
C1174  C1239   1.404   .     A
C1174  C1198   1.464   .     S
C1175  C1203   1.463   .     S
C1176  C1204   1.463   .     S
C1177  C837    1.464   1_655 S
C1177  C741    1.404   1_655 S
C1178  C1202   1.464   .     S
C1178  C796    1.403   1_655 S
C1179  H1269   1.084   .     S
C1179  C1185   1.395   .     A
C1179  C1258   1.402   .     A
C1180  H1270   1.084   .     S
C1180  C1259   1.402   .     A
C1180  C1183   1.395   .     A
C1181  C1187   1.395   .     A
C1181  C1260   1.402   .     A
C1181  H1271   1.084   .     S
C1182  H1273   1.084   .     S
C1182  C1186   1.395   .     A
C1183  H1274   1.084   .     S
C1184  H1283   1.084   .     S
C1185  H1275   1.084   .     S
C1186  H1276   1.084   .     S
C1187  H1277   1.084   .     S
C1188  H1278   1.084   .     S
C1188  C1193   1.395   1_556 S
C1189  H1279   1.084   .     S
C1189  C1192   1.395   1_554 S
C1190  H1280   1.084   .     S
C1190  C1196   1.395   1_556 S
C1191  H1281   1.084   .     S
C1191  C1194   1.395   1_554 S
C1192  H1282   1.084   .     S
C1192  C1189   1.395   1_556 S
C1193  H1284   1.084   .     S
C1193  C1188   1.395   1_554 S
C1194  H1285   1.084   .     S
C1194  C1191   1.395   1_556 S
C1195  H1294   1.084   .     S
C1195  C446    1.404   1_565 S
C1196  H1286   1.084   .     S
C1196  C1190   1.395   1_554 S
C1197  O1386   1.281   .     A
C1197  O702    1.281   1_565 S
C1198  O1397   1.281   .     A
C1199  O1337   1.278   .     A
C1199  O1044   1.278   1_655 S
C1200  O1345   1.278   .     A
C1201  O1346   1.281   .     A
C1201  O1350   1.281   .     S
C1202  O983    1.281   1_655 A
C1202  O987    1.281   1_655 A
C1203  O1352   1.278   .     A
C1203  O1348   1.278   .     A
C1204  O1349   1.278   .     A
C1204  O1354   1.278   .     A
C1205  O1355   1.281   .     A
C1205  O1383   1.276   .     A
C1206  H1305   1.084   .     S
C1206  C1258   1.394   .     A
C1207  O1384   1.279   .     A
C1207  O1356   1.278   .     A
C1208  O1381   1.279   .     A
C1208  O1357   1.275   .     A
C1209  O1382   1.280   .     A
C1209  O1358   1.274   .     A
C1210  O1359   1.278   .     A
C1210  O1388   1.274   .     A
C1211  O1360   1.278   .     A
C1211  O1389   1.274   .     A
C1212  O1361   1.279   .     A
C1212  O1385   1.275   .     A
C1213  O1387   1.274   .     A
C1213  O1362   1.281   .     A
C1214  O1363   1.280   .     A
C1214  O1374   1.274   .     A
C1215  O1365   1.279   .     A
C1215  O1376   1.275   .     A
C1216  O1372   1.278   .     A
C1216  O1366   1.279   .     A
C1217  H1316   1.084   .     S
C1217  C1259   1.394   .     A
C1217  C807    1.404   1_655 S
C1218  O1373   1.281   .     A
C1218  O1367   1.276   .     A
C1219  O1379   1.281   .     A
C1219  O1368   1.274   .     A
C1220  O1380   1.279   .     A
C1220  O1369   1.275   .     A
C1221  O1370   1.274   .     A
C1221  O1377   1.278   .     A
C1222  O1378   1.278   .     A
C1222  O1371   1.274   .     A
C1223  C1240   1.408   .     A
C1224  C1238   1.406   .     A
C1225  C1237   1.407   .     A
C1226  C1236   1.404   .     A
C1227  C1235   1.406   .     A
C1228  C1260   1.395   .     A
C1228  H1322   1.084   .     S
C1229  C1234   1.405   .     A
C1230  C1233   1.408   .     A
C1231  C1232   1.408   .     A
C1239  H1323   1.084   .     S
C1241  C1257   1.406   .     A
C1242  C1256   1.408   .     A
C1243  C1255   1.404   .     A
C1244  C1254   1.407   .     A
C1245  C1253   1.405   .     A
C1246  C1252   1.406   .     A
C1247  C1251   1.408   .     A
C1248  C1249   1.408   .     A
C1250  H1324   1.084   .     S
C1250  C447    1.403   1_565 S
C1259  C764    1.411   1_655 S
H1287  O1391   1.014   .     S
H1288  O1393   1.014   .     S
H1289  O1395   1.013   .     S
H1290  O1398   1.013   .     S
H1291  O1400   1.014   .     S
H1292  O1402   1.014   .     S
H1293  O1404   1.014   .     S
H1295  O1406   1.014   .     S
H1296  O1409   1.014   .     S
H1297  O1411   1.014   .     S
H1298  O1413   1.014   .     S
H1299  O1415   1.014   .     S
H1300  O1417   1.013   .     S
H1301  O1420   1.014   .     S
H1302  O1422   1.014   .     S
H1303  O1424   1.014   .     S
H1304  O1426   1.014   .     S
H1306  O1428   1.014   .     S
H1307  O1431   1.013   .     S
H1308  O1433   1.013   .     S
H1309  O1435   1.014   .     S
H1310  O1437   1.014   .     S
H1311  O1439   1.014   .     S
H1312  O1327   1.014   .     S
H1313  O1329   1.014   .     S
H1314  O1331   1.014   .     S
H1315  O1333   1.014   .     S
H1317  O1335   1.014   .     S
H1318  O1338   1.014   .     S
H1319  O1340   1.013   .     S
H1320  O1342   1.014   .     S
H1321  O1344   1.014   .     S
O1325  Zn1444  1.949   .     S
O1325  Zn1441  1.945   .     S
O1325  Zn1452  1.941   .     S
O1326  Zn1443  1.950   .     S
O1326  C470    1.281   1_565 S
O1337  Zn1446  1.952   .     S
O1345  Zn1445  1.952   .     S
O1346  Zn1455  1.952   .     S
O1347  Zn1454  1.952   .     S
O1348  Zn1449  1.950   .     S
O1349  Zn1441  1.950   .     S
O1350  Zn1451  1.950   .     S
O1351  Zn1450  1.950   .     S
O1352  Zn1453  1.952   .     S
O1353  Zn1447  1.946   .     S
O1353  Zn1449  1.945   .     S
O1353  Zn1453  1.941   .     S
O1354  Zn1452  1.952   .     S
O1355  Zn1444  1.930   .     S
O1356  Zn1443  1.930   .     S
O1357  Zn1446  1.934   .     S
O1358  Zn1445  1.934   .     S
O1359  Zn1448  1.930   .     S
O1360  Zn1447  1.930   .     S
O1361  Zn1442  1.932   .     S
O1362  Zn1456  1.932   .     S
O1363  Zn1443  1.930   .     S
O1364  Zn1454  1.946   .     S
O1364  Zn1450  1.949   .     S
O1364  Zn1442  1.945   .     S
O1365  Zn1444  1.930   .     S
O1366  Zn1456  1.932   .     S
O1367  Zn1442  1.932   .     S
O1368  Zn1447  1.931   .     S
O1369  Zn1448  1.931   .     S
O1370  Zn1445  1.932   .     S
O1371  Zn1446  1.932   .     S
O1372  Zn1087  1.930   1_655 S
O1373  Zn1450  1.930   .     S
O1374  Zn725   1.934   1_565 S
O1375  Zn1455  1.946   .     S
O1375  Zn1451  1.949   .     S
O1375  Zn1445  1.941   .     S
O1376  Zn1452  1.934   .     S
O1377  Zn1455  1.930   .     S
O1378  Zn1090  1.930   1_655 S
O1379  Zn1449  1.932   .     S
O1380  Zn713   1.932   1_565 S
O1381  Zn1086  1.930   1_655 S
O1382  Zn1451  1.930   .     S
O1383  Zn1441  1.932   .     S
O1384  Zn721   1.932   1_565 S
O1385  Zn1454  1.931   .     S
O1386  Zn1448  1.952   .     S
O1387  Zn1091  1.931   1_655 S
O1388  Zn724   1.932   1_565 S
O1389  Zn1453  1.932   .     S
O1397  Zn1447  1.952   .     S
O1408  Zn1442  1.950   .     S
O1419  Zn1456  1.950   .     S
O1419  C836    1.278   1_655 S
O1430  Zn1444  1.950   .     S
Zn1443 O625    1.949   1_565 S
Zn1446 O1000   1.941   1_655 S
Zn1448 O597    1.946   1_565 S
Zn1456 O1011   1.945   1_655 S
