data_str_m1_o10_o18_pcu_sym.206
_audit_creation_date              2020-01-03
_audit_creation_method            'Materials Studio'
_symmetry_space_group_name_H-M    'P1'
_symmetry_Int_Tables_number       1
_symmetry_cell_setting            triclinic
loop_
_symmetry_equiv_pos_as_xyz
  x,y,z
_cell_length_a                    32.4537
_cell_length_b                    32.5421
_cell_length_c                    35.4863
_cell_angle_alpha                 98.0795
_cell_angle_beta                  73.2325
_cell_angle_gamma                 98.5645
loop_
_atom_site_label
_atom_site_type_symbol
_atom_site_fract_x
_atom_site_fract_y
_atom_site_fract_z
_atom_site_U_iso_or_equiv
_atom_site_adp_type
_atom_site_occupancy
C1     C     0.05245   0.15976   0.25888   0.00000  Uiso   1.00
C2     C     0.17698   0.11266   0.46392   0.00000  Uiso   1.00
C3     C     0.19768   0.09115   0.48327   0.00000  Uiso   1.00
C4     C     0.28111   0.17350   0.24118   0.00000  Uiso   1.00
C5     C     0.20098   0.10783   0.02171   0.00000  Uiso   1.00
C6     C     0.17247   0.13809   0.04314   0.00000  Uiso   1.00
C7     C     0.23035   0.09541   0.04035   0.00000  Uiso   1.00
C8     C     0.22378   0.10593   0.08120   0.00000  Uiso   1.00
C9     C     0.17477   0.15451   0.08125   0.00000  Uiso   1.00
C10    C     0.32710   0.17596   0.23750   0.00000  Uiso   1.00
C11    C     0.00707   0.15731   0.26229   0.00000  Uiso   1.00
C12    C     0.09170   0.20867   0.42181   0.00000  Uiso   1.00
C13    C     0.17983   0.32185   0.23615   0.00000  Uiso   1.00
C14    C     0.15199   0.01211   0.26219   0.00000  Uiso   1.00
C15    C     0.15559   0.05614   0.25927   0.00000  Uiso   1.00
C16    C     0.17666   0.27762   0.24095   0.00000  Uiso   1.00
C17    C     0.18807   0.14531   0.14391   0.00000  Uiso   1.00
C18    C     0.14479   0.18720   0.35659   0.00000  Uiso   1.00
C19    C     0.13002   0.19059   0.40063   0.00000  Uiso   1.00
C20    C     0.19653   0.13575   0.10127   0.00000  Uiso   1.00
C21    C     0.07811   0.21096   0.46333   0.00000  Uiso   1.00
C22    C     0.27115   0.07529   0.01787   0.00000  Uiso   1.00
C23    C     0.15303   0.17333   0.42161   0.00000  Uiso   1.00
C24    C     0.31204   0.09748   0.02902   0.00000  Uiso   1.00
C25    C     0.02003   0.08559   0.49814   0.00000  Uiso   1.00
C26    C     0.20257   0.33101   0.17071   0.00000  Uiso   1.00
C27    C     0.20791   0.04754   0.46460   0.00000  Uiso   1.00
C28    C     0.24221   0.04794   0.42422   0.00000  Uiso   1.00
C29    C     0.25969   0.00569   0.41108   0.00000  Uiso   1.00
C30    C     0.00482   0.20871   0.49280   0.00000  Uiso   1.00
C31    C     0.03854   0.19715   0.38994   0.00000  Uiso   1.00
C32    C     0.22506   0.19530   0.40712   0.00000  Uiso   1.00
C33    C     0.07943   0.16473   0.08881   0.00000  Uiso   1.00
C34    C     0.13540   0.16954   0.46268   0.00000  Uiso   1.00
C35    C     0.06911   0.11831   0.09586   0.00000  Uiso   1.00
C36    C     0.04131   0.11288   0.13802   0.00000  Uiso   1.00
C37    C     0.09987   0.19134   0.48385   0.00000  Uiso   1.00
C38    C     0.15376   0.14624   0.48341   0.00000  Uiso   1.00
C39    C     0.14407   0.15268   0.02514   0.00000  Uiso   1.00
C40    C     0.10549   0.17150   0.04621   0.00000  Uiso   1.00
C41    C     0.08545   0.19185   0.02508   0.00000  Uiso   1.00
H42    H     0.05741   0.20746   0.04118   0.00000  Uiso   1.00
H43    H     0.04884   0.10177   0.00711   0.00000  Uiso   1.00
H44    H     0.31200   0.13185   0.03168   0.00000  Uiso   1.00
H45    H     0.31248   0.08873   0.05804   0.00000  Uiso   1.00
H46    H     0.26677   0.04200   0.02362   0.00000  Uiso   1.00
H47    H     0.27737   0.07695   0.48592   0.00000  Uiso   1.00
H48    H     0.17155   0.00964   0.17259   0.00000  Uiso   1.00
H49    H     0.20084   0.29700   0.16068   0.00000  Uiso   1.00
H50    H     0.22833   0.01387   0.14788   0.00000  Uiso   1.00
H51    H     0.27626   0.33182   0.43233   0.00000  Uiso   1.00
H52    H     0.23285   0.31396   0.40920   0.00000  Uiso   1.00
H53    H     0.01689   0.19298   0.21455   0.00000  Uiso   1.00
H54    H     0.28340   0.00650   0.38146   0.00000  Uiso   1.00
H55    H     0.22753   0.05500   0.40152   0.00000  Uiso   1.00
H56    H     0.26963   0.07253   0.42528   0.00000  Uiso   1.00
H57    H     0.21701   0.02990   0.48489   0.00000  Uiso   1.00
H58    H     0.17758   0.02943   0.45992   0.00000  Uiso   1.00
H59    H     0.00609   0.17568   0.47922   0.00000  Uiso   1.00
H60    H     0.31431   0.22225   0.48262   0.00000  Uiso   1.00
H61    H     0.32560   0.20874   0.02538   0.00000  Uiso   1.00
H62    H     0.05202   0.16737   0.37600   0.00000  Uiso   1.00
H63    H     0.02777   0.20985   0.36739   0.00000  Uiso   1.00
H64    H     0.31797   0.14031   0.28557   0.00000  Uiso   1.00
H65    H     0.00948   0.19060   0.41477   0.00000  Uiso   1.00
H66    H     0.22441   0.20298   0.43884   0.00000  Uiso   1.00
H67    H     0.22073   0.22340   0.39465   0.00000  Uiso   1.00
H68    H     0.25760   0.18611   0.39091   0.00000  Uiso   1.00
H69    H     0.05871   0.12899   0.15968   0.00000  Uiso   1.00
H70    H     0.01007   0.12587   0.14360   0.00000  Uiso   1.00
H71    H     0.03437   0.07914   0.14230   0.00000  Uiso   1.00
H72    H     0.05133   0.10140   0.07482   0.00000  Uiso   1.00
H73    H     0.09914   0.10365   0.09107   0.00000  Uiso   1.00
H74    H     0.09436   0.18305   0.11106   0.00000  Uiso   1.00
H75    H     0.12651   0.33256   0.28628   0.00000  Uiso   1.00
H76    H     0.04765   0.17717   0.09563   0.00000  Uiso   1.00
H77    H     0.16012   0.18208   0.09580   0.00000  Uiso   1.00
H78    H     0.24201   0.09300   0.09701   0.00000  Uiso   1.00
H79    H     0.17506   0.10006   0.43452   0.00000  Uiso   1.00
H80    H     0.02120   0.05133   0.49538   0.00000  Uiso   1.00
H81    H     0.02143   0.09516   0.46892   0.00000  Uiso   1.00
O82    O     0.16667   0.16667   0.25000   0.00000  Uiso   1.00
O83    O     0.15693   0.12393   0.16625   0.00000  Uiso   1.00
O84    O     0.12687   0.20646   0.33749   0.00000  Uiso   1.00
O85    O     0.21088   0.17493   0.15877   0.00000  Uiso   1.00
O86    O     0.17198   0.16135   0.33749   0.00000  Uiso   1.00
O87    O     0.21340   0.00637   0.20698   0.00000  Uiso   1.00
O88    O     0.04476   0.23456   0.48362   0.00000  Uiso   1.00
O89    O     0.06916   0.22747   0.40252   0.00000  Uiso   1.00
O90    O     0.19371   0.16159   0.40198   0.00000  Uiso   1.00
O91    O     0.17849   0.08101   0.27820   0.00000  Uiso   1.00
O92    O     0.14581   0.26136   0.26767   0.00000  Uiso   1.00
O93    O     0.07452   0.13251   0.23607   0.00000  Uiso   1.00
O94    O     0.26785   0.19179   0.21805   0.00000  Uiso   1.00
O95    O     0.06990   0.18960   0.27820   0.00000  Uiso   1.00
O96    O     0.25440   0.15277   0.26767   0.00000  Uiso   1.00
O97    O     0.13800   0.06903   0.23607   0.00000  Uiso   1.00
O98    O     0.20437   0.25527   0.21805   0.00000  Uiso   1.00
Zn99   Zn    0.19244   0.14090   0.28277   0.00000  Uiso   1.00
Zn100  Zn    0.13459   0.12378   0.22257   0.00000  Uiso   1.00
Zn101  Zn    0.21166   0.19664   0.21188   0.00000  Uiso   1.00
Zn102  Zn    0.12798   0.20535   0.28277   0.00000  Uiso   1.00
C103   C     0.38578   0.15976   0.25888   0.00000  Uiso   1.00
C104   C     0.51031   0.11266   0.46392   0.00000  Uiso   1.00
C105   C     0.53102   0.09115   0.48327   0.00000  Uiso   1.00
C106   C     0.61444   0.17350   0.24118   0.00000  Uiso   1.00
C107   C     0.53431   0.10783   0.02171   0.00000  Uiso   1.00
C108   C     0.50580   0.13809   0.04314   0.00000  Uiso   1.00
C109   C     0.56368   0.09541   0.04035   0.00000  Uiso   1.00
C110   C     0.55711   0.10593   0.08120   0.00000  Uiso   1.00
C111   C     0.50811   0.15451   0.08125   0.00000  Uiso   1.00
C112   C     0.66043   0.17596   0.23750   0.00000  Uiso   1.00
C113   C     0.34041   0.15731   0.26229   0.00000  Uiso   1.00
C114   C     0.42504   0.20867   0.42181   0.00000  Uiso   1.00
C115   C     0.51316   0.32185   0.23615   0.00000  Uiso   1.00
C116   C     0.48532   0.01211   0.26219   0.00000  Uiso   1.00
C117   C     0.48893   0.05614   0.25927   0.00000  Uiso   1.00
C118   C     0.50999   0.27762   0.24095   0.00000  Uiso   1.00
C119   C     0.52140   0.14531   0.14391   0.00000  Uiso   1.00
C120   C     0.47813   0.18720   0.35659   0.00000  Uiso   1.00
C121   C     0.46335   0.19059   0.40063   0.00000  Uiso   1.00
C122   C     0.52986   0.13575   0.10127   0.00000  Uiso   1.00
C123   C     0.41144   0.21096   0.46333   0.00000  Uiso   1.00
C124   C     0.60448   0.07529   0.01787   0.00000  Uiso   1.00
C125   C     0.48636   0.17333   0.42161   0.00000  Uiso   1.00
C126   C     0.64537   0.09748   0.02902   0.00000  Uiso   1.00
C127   C     0.35337   0.08559   0.49814   0.00000  Uiso   1.00
C128   C     0.53590   0.33101   0.17071   0.00000  Uiso   1.00
C129   C     0.54124   0.04754   0.46460   0.00000  Uiso   1.00
C130   C     0.57554   0.04794   0.42422   0.00000  Uiso   1.00
C131   C     0.59302   0.00569   0.41108   0.00000  Uiso   1.00
C132   C     0.33815   0.20871   0.49280   0.00000  Uiso   1.00
C133   C     0.37188   0.19715   0.38994   0.00000  Uiso   1.00
C134   C     0.55839   0.19530   0.40712   0.00000  Uiso   1.00
C135   C     0.41276   0.16473   0.08881   0.00000  Uiso   1.00
C136   C     0.46874   0.16954   0.46268   0.00000  Uiso   1.00
C137   C     0.40244   0.11831   0.09586   0.00000  Uiso   1.00
C138   C     0.37464   0.11288   0.13802   0.00000  Uiso   1.00
C139   C     0.43320   0.19134   0.48385   0.00000  Uiso   1.00
C140   C     0.48710   0.14624   0.48341   0.00000  Uiso   1.00
C141   C     0.47741   0.15268   0.02514   0.00000  Uiso   1.00
C142   C     0.43882   0.17150   0.04621   0.00000  Uiso   1.00
C143   C     0.41878   0.19185   0.02508   0.00000  Uiso   1.00
H144   H     0.39074   0.20746   0.04118   0.00000  Uiso   1.00
H145   H     0.38218   0.10177   0.00711   0.00000  Uiso   1.00
H146   H     0.64533   0.13185   0.03168   0.00000  Uiso   1.00
H147   H     0.64581   0.08873   0.05804   0.00000  Uiso   1.00
H148   H     0.60010   0.04200   0.02362   0.00000  Uiso   1.00
H149   H     0.61071   0.07695   0.48592   0.00000  Uiso   1.00
H150   H     0.50488   0.00964   0.17259   0.00000  Uiso   1.00
H151   H     0.53417   0.29700   0.16068   0.00000  Uiso   1.00
H152   H     0.56167   0.01387   0.14788   0.00000  Uiso   1.00
H153   H     0.60959   0.33182   0.43233   0.00000  Uiso   1.00
H154   H     0.56619   0.31396   0.40920   0.00000  Uiso   1.00
H155   H     0.35022   0.19298   0.21455   0.00000  Uiso   1.00
H156   H     0.61674   0.00650   0.38146   0.00000  Uiso   1.00
H157   H     0.56087   0.05500   0.40152   0.00000  Uiso   1.00
H158   H     0.60297   0.07253   0.42528   0.00000  Uiso   1.00
H159   H     0.55034   0.02990   0.48489   0.00000  Uiso   1.00
H160   H     0.51092   0.02943   0.45992   0.00000  Uiso   1.00
H161   H     0.33942   0.17568   0.47922   0.00000  Uiso   1.00
H162   H     0.64764   0.22225   0.48262   0.00000  Uiso   1.00
H163   H     0.65893   0.20874   0.02538   0.00000  Uiso   1.00
H164   H     0.38535   0.16737   0.37600   0.00000  Uiso   1.00
H165   H     0.36111   0.20985   0.36739   0.00000  Uiso   1.00
H166   H     0.65130   0.14031   0.28557   0.00000  Uiso   1.00
H167   H     0.34281   0.19060   0.41477   0.00000  Uiso   1.00
H168   H     0.55774   0.20298   0.43884   0.00000  Uiso   1.00
H169   H     0.55406   0.22340   0.39465   0.00000  Uiso   1.00
H170   H     0.59094   0.18611   0.39091   0.00000  Uiso   1.00
H171   H     0.39204   0.12899   0.15968   0.00000  Uiso   1.00
H172   H     0.34340   0.12587   0.14360   0.00000  Uiso   1.00
H173   H     0.36771   0.07914   0.14230   0.00000  Uiso   1.00
H174   H     0.38467   0.10140   0.07482   0.00000  Uiso   1.00
H175   H     0.43248   0.10365   0.09107   0.00000  Uiso   1.00
H176   H     0.42770   0.18305   0.11106   0.00000  Uiso   1.00
H177   H     0.45984   0.33256   0.28628   0.00000  Uiso   1.00
H178   H     0.38099   0.17717   0.09563   0.00000  Uiso   1.00
H179   H     0.49346   0.18208   0.09580   0.00000  Uiso   1.00
H180   H     0.57534   0.09300   0.09701   0.00000  Uiso   1.00
H181   H     0.50839   0.10006   0.43452   0.00000  Uiso   1.00
H182   H     0.35453   0.05133   0.49538   0.00000  Uiso   1.00
H183   H     0.35476   0.09516   0.46892   0.00000  Uiso   1.00
O184   O     0.50000   0.16667   0.25000   0.00000  Uiso   1.00
O185   O     0.49027   0.12393   0.16625   0.00000  Uiso   1.00
O186   O     0.46020   0.20646   0.33749   0.00000  Uiso   1.00
O187   O     0.54421   0.17493   0.15877   0.00000  Uiso   1.00
O188   O     0.50532   0.16135   0.33749   0.00000  Uiso   1.00
O189   O     0.54673   0.00637   0.20698   0.00000  Uiso   1.00
O190   O     0.37809   0.23456   0.48362   0.00000  Uiso   1.00
O191   O     0.40249   0.22747   0.40252   0.00000  Uiso   1.00
O192   O     0.52704   0.16159   0.40198   0.00000  Uiso   1.00
O193   O     0.51182   0.08101   0.27820   0.00000  Uiso   1.00
O194   O     0.47914   0.26136   0.26767   0.00000  Uiso   1.00
O195   O     0.40785   0.13251   0.23607   0.00000  Uiso   1.00
O196   O     0.60119   0.19179   0.21805   0.00000  Uiso   1.00
O197   O     0.40323   0.18960   0.27820   0.00000  Uiso   1.00
O198   O     0.58773   0.15277   0.26767   0.00000  Uiso   1.00
O199   O     0.47133   0.06903   0.23607   0.00000  Uiso   1.00
O200   O     0.53771   0.25527   0.21805   0.00000  Uiso   1.00
Zn201  Zn    0.52577   0.14090   0.28277   0.00000  Uiso   1.00
Zn202  Zn    0.46792   0.12378   0.22257   0.00000  Uiso   1.00
Zn203  Zn    0.54500   0.19664   0.21188   0.00000  Uiso   1.00
Zn204  Zn    0.46131   0.20535   0.28277   0.00000  Uiso   1.00
C205   C     0.71911   0.15976   0.25888   0.00000  Uiso   1.00
C206   C     0.84365   0.11266   0.46392   0.00000  Uiso   1.00
C207   C     0.86435   0.09115   0.48327   0.00000  Uiso   1.00
C208   C     0.94777   0.17350   0.24118   0.00000  Uiso   1.00
C209   C     0.86764   0.10783   0.02171   0.00000  Uiso   1.00
C210   C     0.83913   0.13809   0.04314   0.00000  Uiso   1.00
C211   C     0.89701   0.09541   0.04035   0.00000  Uiso   1.00
C212   C     0.89044   0.10593   0.08120   0.00000  Uiso   1.00
C213   C     0.84144   0.15451   0.08125   0.00000  Uiso   1.00
C214   C     0.99377   0.17596   0.23750   0.00000  Uiso   1.00
C215   C     0.67374   0.15731   0.26229   0.00000  Uiso   1.00
C216   C     0.75837   0.20867   0.42181   0.00000  Uiso   1.00
C217   C     0.84650   0.32185   0.23615   0.00000  Uiso   1.00
C218   C     0.81866   0.01211   0.26219   0.00000  Uiso   1.00
C219   C     0.82226   0.05614   0.25927   0.00000  Uiso   1.00
C220   C     0.84333   0.27762   0.24095   0.00000  Uiso   1.00
C221   C     0.85474   0.14531   0.14391   0.00000  Uiso   1.00
C222   C     0.81146   0.18720   0.35659   0.00000  Uiso   1.00
C223   C     0.79668   0.19059   0.40063   0.00000  Uiso   1.00
C224   C     0.86320   0.13575   0.10127   0.00000  Uiso   1.00
C225   C     0.74477   0.21096   0.46333   0.00000  Uiso   1.00
C226   C     0.93781   0.07529   0.01787   0.00000  Uiso   1.00
C227   C     0.81969   0.17333   0.42161   0.00000  Uiso   1.00
C228   C     0.97871   0.09748   0.02902   0.00000  Uiso   1.00
C229   C     0.68670   0.08559   0.49814   0.00000  Uiso   1.00
C230   C     0.86924   0.33101   0.17071   0.00000  Uiso   1.00
C231   C     0.87458   0.04754   0.46460   0.00000  Uiso   1.00
C232   C     0.90888   0.04794   0.42422   0.00000  Uiso   1.00
C233   C     0.92635   0.00569   0.41108   0.00000  Uiso   1.00
C234   C     0.67148   0.20871   0.49280   0.00000  Uiso   1.00
C235   C     0.70521   0.19715   0.38994   0.00000  Uiso   1.00
C236   C     0.89173   0.19530   0.40712   0.00000  Uiso   1.00
C237   C     0.74609   0.16473   0.08881   0.00000  Uiso   1.00
C238   C     0.80207   0.16954   0.46268   0.00000  Uiso   1.00
C239   C     0.73577   0.11831   0.09586   0.00000  Uiso   1.00
C240   C     0.70798   0.11288   0.13802   0.00000  Uiso   1.00
C241   C     0.76653   0.19134   0.48385   0.00000  Uiso   1.00
C242   C     0.82043   0.14624   0.48341   0.00000  Uiso   1.00
C243   C     0.81074   0.15268   0.02514   0.00000  Uiso   1.00
C244   C     0.77216   0.17150   0.04621   0.00000  Uiso   1.00
C245   C     0.75212   0.19185   0.02508   0.00000  Uiso   1.00
H246   H     0.72408   0.20746   0.04118   0.00000  Uiso   1.00
H247   H     0.71551   0.10177   0.00711   0.00000  Uiso   1.00
H248   H     0.97867   0.13185   0.03168   0.00000  Uiso   1.00
H249   H     0.97914   0.08873   0.05804   0.00000  Uiso   1.00
H250   H     0.93343   0.04200   0.02362   0.00000  Uiso   1.00
H251   H     0.94404   0.07695   0.48592   0.00000  Uiso   1.00
H252   H     0.83822   0.00964   0.17259   0.00000  Uiso   1.00
H253   H     0.86750   0.29700   0.16068   0.00000  Uiso   1.00
H254   H     0.89500   0.01387   0.14788   0.00000  Uiso   1.00
H255   H     0.94293   0.33182   0.43233   0.00000  Uiso   1.00
H256   H     0.89952   0.31396   0.40920   0.00000  Uiso   1.00
H257   H     0.68356   0.19298   0.21455   0.00000  Uiso   1.00
H258   H     0.95007   0.00650   0.38146   0.00000  Uiso   1.00
H259   H     0.89420   0.05500   0.40152   0.00000  Uiso   1.00
H260   H     0.93630   0.07253   0.42528   0.00000  Uiso   1.00
H261   H     0.88367   0.02990   0.48489   0.00000  Uiso   1.00
H262   H     0.84425   0.02943   0.45992   0.00000  Uiso   1.00
H263   H     0.67276   0.17568   0.47922   0.00000  Uiso   1.00
H264   H     0.98097   0.22225   0.48262   0.00000  Uiso   1.00
H265   H     0.99226   0.20874   0.02538   0.00000  Uiso   1.00
H266   H     0.71869   0.16737   0.37600   0.00000  Uiso   1.00
H267   H     0.69444   0.20985   0.36739   0.00000  Uiso   1.00
H268   H     0.98464   0.14031   0.28557   0.00000  Uiso   1.00
H269   H     0.67614   0.19060   0.41477   0.00000  Uiso   1.00
H270   H     0.89107   0.20298   0.43884   0.00000  Uiso   1.00
H271   H     0.88740   0.22340   0.39465   0.00000  Uiso   1.00
H272   H     0.92427   0.18611   0.39091   0.00000  Uiso   1.00
H273   H     0.72538   0.12899   0.15968   0.00000  Uiso   1.00
H274   H     0.67673   0.12587   0.14360   0.00000  Uiso   1.00
H275   H     0.70104   0.07914   0.14230   0.00000  Uiso   1.00
H276   H     0.71800   0.10140   0.07482   0.00000  Uiso   1.00
H277   H     0.76581   0.10365   0.09107   0.00000  Uiso   1.00
H278   H     0.76103   0.18305   0.11106   0.00000  Uiso   1.00
H279   H     0.79318   0.33256   0.28628   0.00000  Uiso   1.00
H280   H     0.71432   0.17717   0.09563   0.00000  Uiso   1.00
H281   H     0.82679   0.18208   0.09580   0.00000  Uiso   1.00
H282   H     0.90867   0.09300   0.09701   0.00000  Uiso   1.00
H283   H     0.84172   0.10006   0.43452   0.00000  Uiso   1.00
H284   H     0.68786   0.05133   0.49538   0.00000  Uiso   1.00
H285   H     0.68810   0.09516   0.46892   0.00000  Uiso   1.00
O286   O     0.83333   0.16667   0.25000   0.00000  Uiso   1.00
O287   O     0.82360   0.12393   0.16625   0.00000  Uiso   1.00
O288   O     0.79354   0.20646   0.33749   0.00000  Uiso   1.00
O289   O     0.87755   0.17493   0.15877   0.00000  Uiso   1.00
O290   O     0.83865   0.16135   0.33749   0.00000  Uiso   1.00
O291   O     0.88007   0.00637   0.20698   0.00000  Uiso   1.00
O292   O     0.71143   0.23456   0.48362   0.00000  Uiso   1.00
O293   O     0.73583   0.22747   0.40252   0.00000  Uiso   1.00
O294   O     0.86038   0.16159   0.40198   0.00000  Uiso   1.00
O295   O     0.84515   0.08101   0.27820   0.00000  Uiso   1.00
O296   O     0.81247   0.26136   0.26767   0.00000  Uiso   1.00
O297   O     0.74119   0.13251   0.23607   0.00000  Uiso   1.00
O298   O     0.93452   0.19179   0.21805   0.00000  Uiso   1.00
O299   O     0.73656   0.18960   0.27820   0.00000  Uiso   1.00
O300   O     0.92106   0.15277   0.26767   0.00000  Uiso   1.00
O301   O     0.80467   0.06903   0.23607   0.00000  Uiso   1.00
O302   O     0.87104   0.25527   0.21805   0.00000  Uiso   1.00
Zn303  Zn    0.85910   0.14090   0.28277   0.00000  Uiso   1.00
Zn304  Zn    0.80125   0.12378   0.22257   0.00000  Uiso   1.00
Zn305  Zn    0.87833   0.19664   0.21188   0.00000  Uiso   1.00
Zn306  Zn    0.79465   0.20535   0.28277   0.00000  Uiso   1.00
C307   C     0.05245   0.49309   0.25888   0.00000  Uiso   1.00
C308   C     0.17698   0.44599   0.46392   0.00000  Uiso   1.00
C309   C     0.19768   0.42448   0.48327   0.00000  Uiso   1.00
C310   C     0.28111   0.50683   0.24118   0.00000  Uiso   1.00
C311   C     0.20098   0.44117   0.02171   0.00000  Uiso   1.00
C312   C     0.17247   0.47142   0.04314   0.00000  Uiso   1.00
C313   C     0.23035   0.42874   0.04035   0.00000  Uiso   1.00
C314   C     0.22378   0.43926   0.08120   0.00000  Uiso   1.00
C315   C     0.17477   0.48785   0.08125   0.00000  Uiso   1.00
C316   C     0.32710   0.50930   0.23750   0.00000  Uiso   1.00
C317   C     0.00707   0.49064   0.26229   0.00000  Uiso   1.00
C318   C     0.09170   0.54200   0.42181   0.00000  Uiso   1.00
C319   C     0.17983   0.65518   0.23615   0.00000  Uiso   1.00
C320   C     0.15199   0.34545   0.26219   0.00000  Uiso   1.00
C321   C     0.15559   0.38947   0.25927   0.00000  Uiso   1.00
C322   C     0.17666   0.61095   0.24095   0.00000  Uiso   1.00
C323   C     0.18807   0.47865   0.14391   0.00000  Uiso   1.00
C324   C     0.14479   0.52053   0.35659   0.00000  Uiso   1.00
C325   C     0.13002   0.52392   0.40063   0.00000  Uiso   1.00
C326   C     0.19653   0.46908   0.10127   0.00000  Uiso   1.00
C327   C     0.07811   0.54430   0.46333   0.00000  Uiso   1.00
C328   C     0.27115   0.40862   0.01787   0.00000  Uiso   1.00
C329   C     0.15303   0.50666   0.42161   0.00000  Uiso   1.00
C330   C     0.31204   0.43081   0.02902   0.00000  Uiso   1.00
C331   C     0.02003   0.41893   0.49814   0.00000  Uiso   1.00
C332   C     0.20257   0.66435   0.17071   0.00000  Uiso   1.00
C333   C     0.20791   0.38087   0.46460   0.00000  Uiso   1.00
C334   C     0.24221   0.38127   0.42422   0.00000  Uiso   1.00
C335   C     0.25969   0.33902   0.41108   0.00000  Uiso   1.00
C336   C     0.00482   0.54205   0.49280   0.00000  Uiso   1.00
C337   C     0.03854   0.53048   0.38994   0.00000  Uiso   1.00
C338   C     0.22506   0.52863   0.40712   0.00000  Uiso   1.00
C339   C     0.07943   0.49807   0.08881   0.00000  Uiso   1.00
C340   C     0.13540   0.50288   0.46268   0.00000  Uiso   1.00
C341   C     0.06911   0.45164   0.09586   0.00000  Uiso   1.00
C342   C     0.04131   0.44621   0.13802   0.00000  Uiso   1.00
C343   C     0.09987   0.52467   0.48385   0.00000  Uiso   1.00
C344   C     0.15376   0.47957   0.48341   0.00000  Uiso   1.00
C345   C     0.14407   0.48602   0.02514   0.00000  Uiso   1.00
C346   C     0.10549   0.50483   0.04621   0.00000  Uiso   1.00
C347   C     0.08545   0.52518   0.02508   0.00000  Uiso   1.00
H348   H     0.05741   0.54079   0.04118   0.00000  Uiso   1.00
H349   H     0.04884   0.43511   0.00711   0.00000  Uiso   1.00
H350   H     0.31200   0.46518   0.03168   0.00000  Uiso   1.00
H351   H     0.31248   0.42206   0.05804   0.00000  Uiso   1.00
H352   H     0.26677   0.37533   0.02362   0.00000  Uiso   1.00
H353   H     0.27737   0.41029   0.48592   0.00000  Uiso   1.00
H354   H     0.17155   0.34297   0.17259   0.00000  Uiso   1.00
H355   H     0.20084   0.63034   0.16068   0.00000  Uiso   1.00
H356   H     0.22833   0.34720   0.14788   0.00000  Uiso   1.00
H357   H     0.27626   0.66515   0.43233   0.00000  Uiso   1.00
H358   H     0.23285   0.64729   0.40920   0.00000  Uiso   1.00
H359   H     0.01689   0.52632   0.21455   0.00000  Uiso   1.00
H360   H     0.28340   0.33984   0.38146   0.00000  Uiso   1.00
H361   H     0.22753   0.38833   0.40152   0.00000  Uiso   1.00
H362   H     0.26963   0.40586   0.42528   0.00000  Uiso   1.00
H363   H     0.21701   0.36324   0.48489   0.00000  Uiso   1.00
H364   H     0.17758   0.36276   0.45992   0.00000  Uiso   1.00
H365   H     0.00609   0.50902   0.47922   0.00000  Uiso   1.00
H366   H     0.31431   0.55558   0.48262   0.00000  Uiso   1.00
H367   H     0.32560   0.54207   0.02538   0.00000  Uiso   1.00
H368   H     0.05202   0.50071   0.37600   0.00000  Uiso   1.00
H369   H     0.02777   0.54318   0.36739   0.00000  Uiso   1.00
H370   H     0.31797   0.47364   0.28557   0.00000  Uiso   1.00
H371   H     0.00948   0.52393   0.41477   0.00000  Uiso   1.00
H372   H     0.22441   0.53632   0.43884   0.00000  Uiso   1.00
H373   H     0.22073   0.55674   0.39465   0.00000  Uiso   1.00
H374   H     0.25760   0.51945   0.39091   0.00000  Uiso   1.00
H375   H     0.05871   0.46232   0.15968   0.00000  Uiso   1.00
H376   H     0.01007   0.45921   0.14360   0.00000  Uiso   1.00
H377   H     0.03437   0.41247   0.14230   0.00000  Uiso   1.00
H378   H     0.05133   0.43473   0.07482   0.00000  Uiso   1.00
H379   H     0.09914   0.43698   0.09107   0.00000  Uiso   1.00
H380   H     0.09436   0.51638   0.11106   0.00000  Uiso   1.00
H381   H     0.12651   0.66590   0.28628   0.00000  Uiso   1.00
H382   H     0.04765   0.51050   0.09563   0.00000  Uiso   1.00
H383   H     0.16012   0.51541   0.09580   0.00000  Uiso   1.00
H384   H     0.24201   0.42633   0.09701   0.00000  Uiso   1.00
H385   H     0.17506   0.43339   0.43452   0.00000  Uiso   1.00
H386   H     0.02120   0.38467   0.49538   0.00000  Uiso   1.00
H387   H     0.02143   0.42849   0.46892   0.00000  Uiso   1.00
O388   O     0.16667   0.50000   0.25000   0.00000  Uiso   1.00
O389   O     0.15693   0.45726   0.16625   0.00000  Uiso   1.00
O390   O     0.12687   0.53979   0.33749   0.00000  Uiso   1.00
O391   O     0.21088   0.50826   0.15877   0.00000  Uiso   1.00
O392   O     0.17198   0.49468   0.33749   0.00000  Uiso   1.00
O393   O     0.21340   0.33971   0.20698   0.00000  Uiso   1.00
O394   O     0.04476   0.56789   0.48362   0.00000  Uiso   1.00
O395   O     0.06916   0.56080   0.40252   0.00000  Uiso   1.00
O396   O     0.19371   0.49492   0.40198   0.00000  Uiso   1.00
O397   O     0.17849   0.41434   0.27820   0.00000  Uiso   1.00
O398   O     0.14581   0.59469   0.26767   0.00000  Uiso   1.00
O399   O     0.07452   0.46584   0.23607   0.00000  Uiso   1.00
O400   O     0.26785   0.52512   0.21805   0.00000  Uiso   1.00
O401   O     0.06990   0.52293   0.27820   0.00000  Uiso   1.00
O402   O     0.25440   0.48610   0.26767   0.00000  Uiso   1.00
O403   O     0.13800   0.40236   0.23607   0.00000  Uiso   1.00
O404   O     0.20437   0.58860   0.21805   0.00000  Uiso   1.00
Zn405  Zn    0.19244   0.47423   0.28277   0.00000  Uiso   1.00
Zn406  Zn    0.13459   0.45711   0.22257   0.00000  Uiso   1.00
Zn407  Zn    0.21166   0.52997   0.21188   0.00000  Uiso   1.00
Zn408  Zn    0.12798   0.53868   0.28277   0.00000  Uiso   1.00
C409   C     0.38578   0.49309   0.25888   0.00000  Uiso   1.00
C410   C     0.51031   0.44599   0.46392   0.00000  Uiso   1.00
C411   C     0.53102   0.42448   0.48327   0.00000  Uiso   1.00
C412   C     0.61444   0.50683   0.24118   0.00000  Uiso   1.00
C413   C     0.53431   0.44117   0.02171   0.00000  Uiso   1.00
C414   C     0.50580   0.47142   0.04314   0.00000  Uiso   1.00
C415   C     0.56368   0.42874   0.04035   0.00000  Uiso   1.00
C416   C     0.55711   0.43926   0.08120   0.00000  Uiso   1.00
C417   C     0.50811   0.48785   0.08125   0.00000  Uiso   1.00
C418   C     0.66043   0.50930   0.23750   0.00000  Uiso   1.00
C419   C     0.34041   0.49064   0.26229   0.00000  Uiso   1.00
C420   C     0.42504   0.54200   0.42181   0.00000  Uiso   1.00
C421   C     0.51316   0.65518   0.23615   0.00000  Uiso   1.00
C422   C     0.48532   0.34545   0.26219   0.00000  Uiso   1.00
C423   C     0.48893   0.38947   0.25927   0.00000  Uiso   1.00
C424   C     0.50999   0.61095   0.24095   0.00000  Uiso   1.00
C425   C     0.52140   0.47865   0.14391   0.00000  Uiso   1.00
C426   C     0.47813   0.52053   0.35659   0.00000  Uiso   1.00
C427   C     0.46335   0.52392   0.40063   0.00000  Uiso   1.00
C428   C     0.52986   0.46908   0.10127   0.00000  Uiso   1.00
C429   C     0.41144   0.54430   0.46333   0.00000  Uiso   1.00
C430   C     0.60448   0.40862   0.01787   0.00000  Uiso   1.00
C431   C     0.48636   0.50666   0.42161   0.00000  Uiso   1.00
C432   C     0.64537   0.43081   0.02902   0.00000  Uiso   1.00
C433   C     0.35337   0.41893   0.49814   0.00000  Uiso   1.00
C434   C     0.53590   0.66435   0.17071   0.00000  Uiso   1.00
C435   C     0.54124   0.38087   0.46460   0.00000  Uiso   1.00
C436   C     0.57554   0.38127   0.42422   0.00000  Uiso   1.00
C437   C     0.59302   0.33902   0.41108   0.00000  Uiso   1.00
C438   C     0.33815   0.54205   0.49280   0.00000  Uiso   1.00
C439   C     0.37188   0.53048   0.38994   0.00000  Uiso   1.00
C440   C     0.55839   0.52863   0.40712   0.00000  Uiso   1.00
C441   C     0.41276   0.49807   0.08881   0.00000  Uiso   1.00
C442   C     0.46874   0.50288   0.46268   0.00000  Uiso   1.00
C443   C     0.40244   0.45164   0.09586   0.00000  Uiso   1.00
C444   C     0.37464   0.44621   0.13802   0.00000  Uiso   1.00
C445   C     0.43320   0.52467   0.48385   0.00000  Uiso   1.00
C446   C     0.48710   0.47957   0.48341   0.00000  Uiso   1.00
C447   C     0.47741   0.48602   0.02514   0.00000  Uiso   1.00
C448   C     0.43882   0.50483   0.04621   0.00000  Uiso   1.00
C449   C     0.41878   0.52518   0.02508   0.00000  Uiso   1.00
H450   H     0.39074   0.54079   0.04118   0.00000  Uiso   1.00
H451   H     0.38218   0.43511   0.00711   0.00000  Uiso   1.00
H452   H     0.64533   0.46518   0.03168   0.00000  Uiso   1.00
H453   H     0.64581   0.42206   0.05804   0.00000  Uiso   1.00
H454   H     0.60010   0.37533   0.02362   0.00000  Uiso   1.00
H455   H     0.61071   0.41029   0.48592   0.00000  Uiso   1.00
H456   H     0.50488   0.34297   0.17259   0.00000  Uiso   1.00
H457   H     0.53417   0.63034   0.16068   0.00000  Uiso   1.00
H458   H     0.56167   0.34720   0.14788   0.00000  Uiso   1.00
H459   H     0.60959   0.66515   0.43233   0.00000  Uiso   1.00
H460   H     0.56619   0.64729   0.40920   0.00000  Uiso   1.00
H461   H     0.35022   0.52632   0.21455   0.00000  Uiso   1.00
H462   H     0.61674   0.33984   0.38146   0.00000  Uiso   1.00
H463   H     0.56087   0.38833   0.40152   0.00000  Uiso   1.00
H464   H     0.60297   0.40586   0.42528   0.00000  Uiso   1.00
H465   H     0.55034   0.36324   0.48489   0.00000  Uiso   1.00
H466   H     0.51092   0.36276   0.45992   0.00000  Uiso   1.00
H467   H     0.33942   0.50902   0.47922   0.00000  Uiso   1.00
H468   H     0.64764   0.55558   0.48262   0.00000  Uiso   1.00
H469   H     0.65893   0.54207   0.02538   0.00000  Uiso   1.00
H470   H     0.38535   0.50071   0.37600   0.00000  Uiso   1.00
H471   H     0.36111   0.54318   0.36739   0.00000  Uiso   1.00
H472   H     0.65130   0.47364   0.28557   0.00000  Uiso   1.00
H473   H     0.34281   0.52393   0.41477   0.00000  Uiso   1.00
H474   H     0.55774   0.53632   0.43884   0.00000  Uiso   1.00
H475   H     0.55406   0.55674   0.39465   0.00000  Uiso   1.00
H476   H     0.59094   0.51945   0.39091   0.00000  Uiso   1.00
H477   H     0.39204   0.46232   0.15968   0.00000  Uiso   1.00
H478   H     0.34340   0.45921   0.14360   0.00000  Uiso   1.00
H479   H     0.36771   0.41247   0.14230   0.00000  Uiso   1.00
H480   H     0.38467   0.43473   0.07482   0.00000  Uiso   1.00
H481   H     0.43248   0.43698   0.09107   0.00000  Uiso   1.00
H482   H     0.42770   0.51638   0.11106   0.00000  Uiso   1.00
H483   H     0.45984   0.66590   0.28628   0.00000  Uiso   1.00
H484   H     0.38099   0.51050   0.09563   0.00000  Uiso   1.00
H485   H     0.49346   0.51541   0.09580   0.00000  Uiso   1.00
H486   H     0.57534   0.42633   0.09701   0.00000  Uiso   1.00
H487   H     0.50839   0.43339   0.43452   0.00000  Uiso   1.00
H488   H     0.35453   0.38467   0.49538   0.00000  Uiso   1.00
H489   H     0.35476   0.42849   0.46892   0.00000  Uiso   1.00
O490   O     0.50000   0.50000   0.25000   0.00000  Uiso   1.00
O491   O     0.49027   0.45726   0.16625   0.00000  Uiso   1.00
O492   O     0.46020   0.53979   0.33749   0.00000  Uiso   1.00
O493   O     0.54421   0.50826   0.15877   0.00000  Uiso   1.00
O494   O     0.50532   0.49468   0.33749   0.00000  Uiso   1.00
O495   O     0.54673   0.33971   0.20698   0.00000  Uiso   1.00
O496   O     0.37809   0.56789   0.48362   0.00000  Uiso   1.00
O497   O     0.40249   0.56080   0.40252   0.00000  Uiso   1.00
O498   O     0.52704   0.49492   0.40198   0.00000  Uiso   1.00
O499   O     0.51182   0.41434   0.27820   0.00000  Uiso   1.00
O500   O     0.47914   0.59469   0.26767   0.00000  Uiso   1.00
O501   O     0.40785   0.46584   0.23607   0.00000  Uiso   1.00
O502   O     0.60119   0.52512   0.21805   0.00000  Uiso   1.00
O503   O     0.40323   0.52293   0.27820   0.00000  Uiso   1.00
O504   O     0.58773   0.48610   0.26767   0.00000  Uiso   1.00
O505   O     0.47133   0.40236   0.23607   0.00000  Uiso   1.00
O506   O     0.53771   0.58860   0.21805   0.00000  Uiso   1.00
Zn507  Zn    0.52577   0.47423   0.28277   0.00000  Uiso   1.00
Zn508  Zn    0.46792   0.45711   0.22257   0.00000  Uiso   1.00
Zn509  Zn    0.54500   0.52997   0.21188   0.00000  Uiso   1.00
Zn510  Zn    0.46131   0.53868   0.28277   0.00000  Uiso   1.00
C511   C     0.71911   0.49309   0.25888   0.00000  Uiso   1.00
C512   C     0.84365   0.44599   0.46392   0.00000  Uiso   1.00
C513   C     0.86435   0.42448   0.48327   0.00000  Uiso   1.00
C514   C     0.94777   0.50683   0.24118   0.00000  Uiso   1.00
C515   C     0.86764   0.44117   0.02171   0.00000  Uiso   1.00
C516   C     0.83913   0.47142   0.04314   0.00000  Uiso   1.00
C517   C     0.89701   0.42874   0.04035   0.00000  Uiso   1.00
C518   C     0.89044   0.43926   0.08120   0.00000  Uiso   1.00
C519   C     0.84144   0.48785   0.08125   0.00000  Uiso   1.00
C520   C     0.99377   0.50930   0.23750   0.00000  Uiso   1.00
C521   C     0.67374   0.49064   0.26229   0.00000  Uiso   1.00
C522   C     0.75837   0.54200   0.42181   0.00000  Uiso   1.00
C523   C     0.84650   0.65518   0.23615   0.00000  Uiso   1.00
C524   C     0.81866   0.34545   0.26219   0.00000  Uiso   1.00
C525   C     0.82226   0.38947   0.25927   0.00000  Uiso   1.00
C526   C     0.84333   0.61095   0.24095   0.00000  Uiso   1.00
C527   C     0.85474   0.47865   0.14391   0.00000  Uiso   1.00
C528   C     0.81146   0.52053   0.35659   0.00000  Uiso   1.00
C529   C     0.79668   0.52392   0.40063   0.00000  Uiso   1.00
C530   C     0.86320   0.46908   0.10127   0.00000  Uiso   1.00
C531   C     0.74477   0.54430   0.46333   0.00000  Uiso   1.00
C532   C     0.93781   0.40862   0.01787   0.00000  Uiso   1.00
C533   C     0.81969   0.50666   0.42161   0.00000  Uiso   1.00
C534   C     0.97871   0.43081   0.02902   0.00000  Uiso   1.00
C535   C     0.68670   0.41893   0.49814   0.00000  Uiso   1.00
C536   C     0.86924   0.66435   0.17071   0.00000  Uiso   1.00
C537   C     0.87458   0.38087   0.46460   0.00000  Uiso   1.00
C538   C     0.90888   0.38127   0.42422   0.00000  Uiso   1.00
C539   C     0.92635   0.33902   0.41108   0.00000  Uiso   1.00
C540   C     0.67148   0.54205   0.49280   0.00000  Uiso   1.00
C541   C     0.70521   0.53048   0.38994   0.00000  Uiso   1.00
C542   C     0.89173   0.52863   0.40712   0.00000  Uiso   1.00
C543   C     0.74609   0.49807   0.08881   0.00000  Uiso   1.00
C544   C     0.80207   0.50288   0.46268   0.00000  Uiso   1.00
C545   C     0.73577   0.45164   0.09586   0.00000  Uiso   1.00
C546   C     0.70798   0.44621   0.13802   0.00000  Uiso   1.00
C547   C     0.76653   0.52467   0.48385   0.00000  Uiso   1.00
C548   C     0.82043   0.47957   0.48341   0.00000  Uiso   1.00
C549   C     0.81074   0.48602   0.02514   0.00000  Uiso   1.00
C550   C     0.77216   0.50483   0.04621   0.00000  Uiso   1.00
C551   C     0.75212   0.52518   0.02508   0.00000  Uiso   1.00
H552   H     0.72408   0.54079   0.04118   0.00000  Uiso   1.00
H553   H     0.71551   0.43511   0.00711   0.00000  Uiso   1.00
H554   H     0.97867   0.46518   0.03168   0.00000  Uiso   1.00
H555   H     0.97914   0.42206   0.05804   0.00000  Uiso   1.00
H556   H     0.93343   0.37533   0.02362   0.00000  Uiso   1.00
H557   H     0.94404   0.41029   0.48592   0.00000  Uiso   1.00
H558   H     0.83822   0.34297   0.17259   0.00000  Uiso   1.00
H559   H     0.86750   0.63034   0.16068   0.00000  Uiso   1.00
H560   H     0.89500   0.34720   0.14788   0.00000  Uiso   1.00
H561   H     0.94293   0.66515   0.43233   0.00000  Uiso   1.00
H562   H     0.89952   0.64729   0.40920   0.00000  Uiso   1.00
H563   H     0.68356   0.52632   0.21455   0.00000  Uiso   1.00
H564   H     0.95007   0.33984   0.38146   0.00000  Uiso   1.00
H565   H     0.89420   0.38833   0.40152   0.00000  Uiso   1.00
H566   H     0.93630   0.40586   0.42528   0.00000  Uiso   1.00
H567   H     0.88367   0.36324   0.48489   0.00000  Uiso   1.00
H568   H     0.84425   0.36276   0.45992   0.00000  Uiso   1.00
H569   H     0.67276   0.50902   0.47922   0.00000  Uiso   1.00
H570   H     0.98097   0.55558   0.48262   0.00000  Uiso   1.00
H571   H     0.99226   0.54207   0.02538   0.00000  Uiso   1.00
H572   H     0.71869   0.50071   0.37600   0.00000  Uiso   1.00
H573   H     0.69444   0.54318   0.36739   0.00000  Uiso   1.00
H574   H     0.98464   0.47364   0.28557   0.00000  Uiso   1.00
H575   H     0.67614   0.52393   0.41477   0.00000  Uiso   1.00
H576   H     0.89107   0.53632   0.43884   0.00000  Uiso   1.00
H577   H     0.88740   0.55674   0.39465   0.00000  Uiso   1.00
H578   H     0.92427   0.51945   0.39091   0.00000  Uiso   1.00
H579   H     0.72538   0.46232   0.15968   0.00000  Uiso   1.00
H580   H     0.67673   0.45921   0.14360   0.00000  Uiso   1.00
H581   H     0.70104   0.41247   0.14230   0.00000  Uiso   1.00
H582   H     0.71800   0.43473   0.07482   0.00000  Uiso   1.00
H583   H     0.76581   0.43698   0.09107   0.00000  Uiso   1.00
H584   H     0.76103   0.51638   0.11106   0.00000  Uiso   1.00
H585   H     0.79318   0.66590   0.28628   0.00000  Uiso   1.00
H586   H     0.71432   0.51050   0.09563   0.00000  Uiso   1.00
H587   H     0.82679   0.51541   0.09580   0.00000  Uiso   1.00
H588   H     0.90867   0.42633   0.09701   0.00000  Uiso   1.00
H589   H     0.84172   0.43339   0.43452   0.00000  Uiso   1.00
H590   H     0.68786   0.38467   0.49538   0.00000  Uiso   1.00
H591   H     0.68810   0.42849   0.46892   0.00000  Uiso   1.00
O592   O     0.83333   0.50000   0.25000   0.00000  Uiso   1.00
O593   O     0.82360   0.45726   0.16625   0.00000  Uiso   1.00
O594   O     0.79354   0.53979   0.33749   0.00000  Uiso   1.00
O595   O     0.87755   0.50826   0.15877   0.00000  Uiso   1.00
O596   O     0.83865   0.49468   0.33749   0.00000  Uiso   1.00
O597   O     0.88007   0.33971   0.20698   0.00000  Uiso   1.00
O598   O     0.71143   0.56789   0.48362   0.00000  Uiso   1.00
O599   O     0.73583   0.56080   0.40252   0.00000  Uiso   1.00
O600   O     0.86038   0.49492   0.40198   0.00000  Uiso   1.00
O601   O     0.84515   0.41434   0.27820   0.00000  Uiso   1.00
O602   O     0.81247   0.59469   0.26767   0.00000  Uiso   1.00
O603   O     0.74119   0.46584   0.23607   0.00000  Uiso   1.00
O604   O     0.93452   0.52512   0.21805   0.00000  Uiso   1.00
O605   O     0.73656   0.52293   0.27820   0.00000  Uiso   1.00
O606   O     0.92106   0.48610   0.26767   0.00000  Uiso   1.00
O607   O     0.80467   0.40236   0.23607   0.00000  Uiso   1.00
O608   O     0.87104   0.58860   0.21805   0.00000  Uiso   1.00
Zn609  Zn    0.85910   0.47423   0.28277   0.00000  Uiso   1.00
Zn610  Zn    0.80125   0.45711   0.22257   0.00000  Uiso   1.00
Zn611  Zn    0.87833   0.52997   0.21188   0.00000  Uiso   1.00
Zn612  Zn    0.79465   0.53868   0.28277   0.00000  Uiso   1.00
C613   C     0.05245   0.82642   0.25888   0.00000  Uiso   1.00
C614   C     0.17698   0.77932   0.46392   0.00000  Uiso   1.00
C615   C     0.19768   0.75782   0.48327   0.00000  Uiso   1.00
C616   C     0.28111   0.84016   0.24118   0.00000  Uiso   1.00
C617   C     0.20098   0.77450   0.02171   0.00000  Uiso   1.00
C618   C     0.17247   0.80475   0.04314   0.00000  Uiso   1.00
C619   C     0.23035   0.76208   0.04035   0.00000  Uiso   1.00
C620   C     0.22378   0.77259   0.08120   0.00000  Uiso   1.00
C621   C     0.17477   0.82118   0.08125   0.00000  Uiso   1.00
C622   C     0.32710   0.84263   0.23750   0.00000  Uiso   1.00
C623   C     0.00707   0.82398   0.26229   0.00000  Uiso   1.00
C624   C     0.09170   0.87533   0.42181   0.00000  Uiso   1.00
C625   C     0.17983   0.98852   0.23615   0.00000  Uiso   1.00
C626   C     0.15199   0.67878   0.26219   0.00000  Uiso   1.00
C627   C     0.15559   0.72280   0.25927   0.00000  Uiso   1.00
C628   C     0.17666   0.94429   0.24095   0.00000  Uiso   1.00
C629   C     0.18807   0.81198   0.14391   0.00000  Uiso   1.00
C630   C     0.14479   0.85386   0.35659   0.00000  Uiso   1.00
C631   C     0.13002   0.85726   0.40063   0.00000  Uiso   1.00
C632   C     0.19653   0.80241   0.10127   0.00000  Uiso   1.00
C633   C     0.07811   0.87763   0.46333   0.00000  Uiso   1.00
C634   C     0.27115   0.74196   0.01787   0.00000  Uiso   1.00
C635   C     0.15303   0.83999   0.42161   0.00000  Uiso   1.00
C636   C     0.31204   0.76415   0.02902   0.00000  Uiso   1.00
C637   C     0.02003   0.75226   0.49814   0.00000  Uiso   1.00
C638   C     0.20257   0.99768   0.17071   0.00000  Uiso   1.00
C639   C     0.20791   0.71421   0.46460   0.00000  Uiso   1.00
C640   C     0.24221   0.71461   0.42422   0.00000  Uiso   1.00
C641   C     0.25969   0.67235   0.41108   0.00000  Uiso   1.00
C642   C     0.00482   0.87538   0.49280   0.00000  Uiso   1.00
C643   C     0.03854   0.86382   0.38994   0.00000  Uiso   1.00
C644   C     0.22506   0.86196   0.40712   0.00000  Uiso   1.00
C645   C     0.07943   0.83140   0.08881   0.00000  Uiso   1.00
C646   C     0.13540   0.83621   0.46268   0.00000  Uiso   1.00
C647   C     0.06911   0.78498   0.09586   0.00000  Uiso   1.00
C648   C     0.04131   0.77954   0.13802   0.00000  Uiso   1.00
C649   C     0.09987   0.85801   0.48385   0.00000  Uiso   1.00
C650   C     0.15376   0.81290   0.48341   0.00000  Uiso   1.00
C651   C     0.14407   0.81935   0.02514   0.00000  Uiso   1.00
C652   C     0.10549   0.83817   0.04621   0.00000  Uiso   1.00
C653   C     0.08545   0.85851   0.02508   0.00000  Uiso   1.00
H654   H     0.05741   0.87412   0.04118   0.00000  Uiso   1.00
H655   H     0.04884   0.76844   0.00711   0.00000  Uiso   1.00
H656   H     0.31200   0.79852   0.03168   0.00000  Uiso   1.00
H657   H     0.31248   0.75540   0.05804   0.00000  Uiso   1.00
H658   H     0.26677   0.70867   0.02362   0.00000  Uiso   1.00
H659   H     0.27737   0.74362   0.48592   0.00000  Uiso   1.00
H660   H     0.17155   0.67631   0.17259   0.00000  Uiso   1.00
H661   H     0.20084   0.96367   0.16068   0.00000  Uiso   1.00
H662   H     0.22833   0.68054   0.14788   0.00000  Uiso   1.00
H663   H     0.27626   0.99849   0.43233   0.00000  Uiso   1.00
H664   H     0.23285   0.98062   0.40920   0.00000  Uiso   1.00
H665   H     0.01689   0.85965   0.21455   0.00000  Uiso   1.00
H666   H     0.28340   0.67317   0.38146   0.00000  Uiso   1.00
H667   H     0.22753   0.72166   0.40152   0.00000  Uiso   1.00
H668   H     0.26963   0.73919   0.42528   0.00000  Uiso   1.00
H669   H     0.21701   0.69657   0.48489   0.00000  Uiso   1.00
H670   H     0.17758   0.69609   0.45992   0.00000  Uiso   1.00
H671   H     0.00609   0.84235   0.47922   0.00000  Uiso   1.00
H672   H     0.31431   0.88891   0.48262   0.00000  Uiso   1.00
H673   H     0.32560   0.87541   0.02538   0.00000  Uiso   1.00
H674   H     0.05202   0.83404   0.37600   0.00000  Uiso   1.00
H675   H     0.02777   0.87651   0.36739   0.00000  Uiso   1.00
H676   H     0.31797   0.80697   0.28557   0.00000  Uiso   1.00
H677   H     0.00948   0.85726   0.41477   0.00000  Uiso   1.00
H678   H     0.22441   0.86965   0.43884   0.00000  Uiso   1.00
H679   H     0.22073   0.89007   0.39465   0.00000  Uiso   1.00
H680   H     0.25760   0.85278   0.39091   0.00000  Uiso   1.00
H681   H     0.05871   0.79566   0.15968   0.00000  Uiso   1.00
H682   H     0.01007   0.79254   0.14360   0.00000  Uiso   1.00
H683   H     0.03437   0.74580   0.14230   0.00000  Uiso   1.00
H684   H     0.05133   0.76806   0.07482   0.00000  Uiso   1.00
H685   H     0.09914   0.77031   0.09107   0.00000  Uiso   1.00
H686   H     0.09436   0.84972   0.11106   0.00000  Uiso   1.00
H687   H     0.12651   0.99923   0.28628   0.00000  Uiso   1.00
H688   H     0.04765   0.84383   0.09563   0.00000  Uiso   1.00
H689   H     0.16012   0.84875   0.09580   0.00000  Uiso   1.00
H690   H     0.24201   0.75967   0.09701   0.00000  Uiso   1.00
H691   H     0.17506   0.76673   0.43452   0.00000  Uiso   1.00
H692   H     0.02120   0.71800   0.49538   0.00000  Uiso   1.00
H693   H     0.02143   0.76183   0.46892   0.00000  Uiso   1.00
O694   O     0.16667   0.83333   0.25000   0.00000  Uiso   1.00
O695   O     0.15693   0.79060   0.16625   0.00000  Uiso   1.00
O696   O     0.12687   0.87313   0.33749   0.00000  Uiso   1.00
O697   O     0.21088   0.84159   0.15877   0.00000  Uiso   1.00
O698   O     0.17198   0.82802   0.33749   0.00000  Uiso   1.00
O699   O     0.21340   0.67304   0.20698   0.00000  Uiso   1.00
O700   O     0.04476   0.90123   0.48362   0.00000  Uiso   1.00
O701   O     0.06916   0.89413   0.40252   0.00000  Uiso   1.00
O702   O     0.19371   0.82826   0.40198   0.00000  Uiso   1.00
O703   O     0.17849   0.74768   0.27820   0.00000  Uiso   1.00
O704   O     0.14581   0.92803   0.26767   0.00000  Uiso   1.00
O705   O     0.07452   0.79917   0.23607   0.00000  Uiso   1.00
O706   O     0.26785   0.85845   0.21805   0.00000  Uiso   1.00
O707   O     0.06990   0.85627   0.27820   0.00000  Uiso   1.00
O708   O     0.25440   0.81944   0.26767   0.00000  Uiso   1.00
O709   O     0.13800   0.73570   0.23607   0.00000  Uiso   1.00
O710   O     0.20437   0.92193   0.21805   0.00000  Uiso   1.00
Zn711  Zn    0.19244   0.80756   0.28277   0.00000  Uiso   1.00
Zn712  Zn    0.13459   0.79044   0.22257   0.00000  Uiso   1.00
Zn713  Zn    0.21166   0.86331   0.21188   0.00000  Uiso   1.00
Zn714  Zn    0.12798   0.87202   0.28277   0.00000  Uiso   1.00
C715   C     0.38578   0.82642   0.25888   0.00000  Uiso   1.00
C716   C     0.51031   0.77932   0.46392   0.00000  Uiso   1.00
C717   C     0.53102   0.75782   0.48327   0.00000  Uiso   1.00
C718   C     0.61444   0.84016   0.24118   0.00000  Uiso   1.00
C719   C     0.53431   0.77450   0.02171   0.00000  Uiso   1.00
C720   C     0.50580   0.80475   0.04314   0.00000  Uiso   1.00
C721   C     0.56368   0.76208   0.04035   0.00000  Uiso   1.00
C722   C     0.55711   0.77259   0.08120   0.00000  Uiso   1.00
C723   C     0.50811   0.82118   0.08125   0.00000  Uiso   1.00
C724   C     0.66043   0.84263   0.23750   0.00000  Uiso   1.00
C725   C     0.34041   0.82398   0.26229   0.00000  Uiso   1.00
C726   C     0.42504   0.87533   0.42181   0.00000  Uiso   1.00
C727   C     0.51316   0.98852   0.23615   0.00000  Uiso   1.00
C728   C     0.48532   0.67878   0.26219   0.00000  Uiso   1.00
C729   C     0.48893   0.72280   0.25927   0.00000  Uiso   1.00
C730   C     0.50999   0.94429   0.24095   0.00000  Uiso   1.00
C731   C     0.52140   0.81198   0.14391   0.00000  Uiso   1.00
C732   C     0.47813   0.85386   0.35659   0.00000  Uiso   1.00
C733   C     0.46335   0.85726   0.40063   0.00000  Uiso   1.00
C734   C     0.52986   0.80241   0.10127   0.00000  Uiso   1.00
C735   C     0.41144   0.87763   0.46333   0.00000  Uiso   1.00
C736   C     0.60448   0.74196   0.01787   0.00000  Uiso   1.00
C737   C     0.48636   0.83999   0.42161   0.00000  Uiso   1.00
C738   C     0.64537   0.76415   0.02902   0.00000  Uiso   1.00
C739   C     0.35337   0.75226   0.49814   0.00000  Uiso   1.00
C740   C     0.53590   0.99768   0.17071   0.00000  Uiso   1.00
C741   C     0.54124   0.71421   0.46460   0.00000  Uiso   1.00
C742   C     0.57554   0.71461   0.42422   0.00000  Uiso   1.00
C743   C     0.59302   0.67235   0.41108   0.00000  Uiso   1.00
C744   C     0.33815   0.87538   0.49280   0.00000  Uiso   1.00
C745   C     0.37188   0.86382   0.38994   0.00000  Uiso   1.00
C746   C     0.55839   0.86196   0.40712   0.00000  Uiso   1.00
C747   C     0.41276   0.83140   0.08881   0.00000  Uiso   1.00
C748   C     0.46874   0.83621   0.46268   0.00000  Uiso   1.00
C749   C     0.40244   0.78498   0.09586   0.00000  Uiso   1.00
C750   C     0.37464   0.77954   0.13802   0.00000  Uiso   1.00
C751   C     0.43320   0.85801   0.48385   0.00000  Uiso   1.00
C752   C     0.48710   0.81290   0.48341   0.00000  Uiso   1.00
C753   C     0.47741   0.81935   0.02514   0.00000  Uiso   1.00
C754   C     0.43882   0.83817   0.04621   0.00000  Uiso   1.00
C755   C     0.41878   0.85851   0.02508   0.00000  Uiso   1.00
H756   H     0.39074   0.87412   0.04118   0.00000  Uiso   1.00
H757   H     0.38218   0.76844   0.00711   0.00000  Uiso   1.00
H758   H     0.64533   0.79852   0.03168   0.00000  Uiso   1.00
H759   H     0.64581   0.75540   0.05804   0.00000  Uiso   1.00
H760   H     0.60010   0.70867   0.02362   0.00000  Uiso   1.00
H761   H     0.61071   0.74362   0.48592   0.00000  Uiso   1.00
H762   H     0.50488   0.67631   0.17259   0.00000  Uiso   1.00
H763   H     0.53417   0.96367   0.16068   0.00000  Uiso   1.00
H764   H     0.56167   0.68054   0.14788   0.00000  Uiso   1.00
H765   H     0.60959   0.99849   0.43233   0.00000  Uiso   1.00
H766   H     0.56619   0.98062   0.40920   0.00000  Uiso   1.00
H767   H     0.35022   0.85965   0.21455   0.00000  Uiso   1.00
H768   H     0.61674   0.67317   0.38146   0.00000  Uiso   1.00
H769   H     0.56087   0.72166   0.40152   0.00000  Uiso   1.00
H770   H     0.60297   0.73919   0.42528   0.00000  Uiso   1.00
H771   H     0.55034   0.69657   0.48489   0.00000  Uiso   1.00
H772   H     0.51092   0.69609   0.45992   0.00000  Uiso   1.00
H773   H     0.33942   0.84235   0.47922   0.00000  Uiso   1.00
H774   H     0.64764   0.88891   0.48262   0.00000  Uiso   1.00
H775   H     0.65893   0.87541   0.02538   0.00000  Uiso   1.00
H776   H     0.38535   0.83404   0.37600   0.00000  Uiso   1.00
H777   H     0.36111   0.87651   0.36739   0.00000  Uiso   1.00
H778   H     0.65130   0.80697   0.28557   0.00000  Uiso   1.00
H779   H     0.34281   0.85726   0.41477   0.00000  Uiso   1.00
H780   H     0.55774   0.86965   0.43884   0.00000  Uiso   1.00
H781   H     0.55406   0.89007   0.39465   0.00000  Uiso   1.00
H782   H     0.59094   0.85278   0.39091   0.00000  Uiso   1.00
H783   H     0.39204   0.79566   0.15968   0.00000  Uiso   1.00
H784   H     0.34340   0.79254   0.14360   0.00000  Uiso   1.00
H785   H     0.36771   0.74580   0.14230   0.00000  Uiso   1.00
H786   H     0.38467   0.76806   0.07482   0.00000  Uiso   1.00
H787   H     0.43248   0.77031   0.09107   0.00000  Uiso   1.00
H788   H     0.42770   0.84972   0.11106   0.00000  Uiso   1.00
H789   H     0.45984   0.99923   0.28628   0.00000  Uiso   1.00
H790   H     0.38099   0.84383   0.09563   0.00000  Uiso   1.00
H791   H     0.49346   0.84875   0.09580   0.00000  Uiso   1.00
H792   H     0.57534   0.75967   0.09701   0.00000  Uiso   1.00
H793   H     0.50839   0.76673   0.43452   0.00000  Uiso   1.00
H794   H     0.35453   0.71800   0.49538   0.00000  Uiso   1.00
H795   H     0.35476   0.76183   0.46892   0.00000  Uiso   1.00
O796   O     0.50000   0.83333   0.25000   0.00000  Uiso   1.00
O797   O     0.49027   0.79060   0.16625   0.00000  Uiso   1.00
O798   O     0.46020   0.87313   0.33749   0.00000  Uiso   1.00
O799   O     0.54421   0.84159   0.15877   0.00000  Uiso   1.00
O800   O     0.50532   0.82802   0.33749   0.00000  Uiso   1.00
O801   O     0.54673   0.67304   0.20698   0.00000  Uiso   1.00
O802   O     0.37809   0.90123   0.48362   0.00000  Uiso   1.00
O803   O     0.40249   0.89413   0.40252   0.00000  Uiso   1.00
O804   O     0.52704   0.82826   0.40198   0.00000  Uiso   1.00
O805   O     0.51182   0.74768   0.27820   0.00000  Uiso   1.00
O806   O     0.47914   0.92803   0.26767   0.00000  Uiso   1.00
O807   O     0.40785   0.79917   0.23607   0.00000  Uiso   1.00
O808   O     0.60119   0.85845   0.21805   0.00000  Uiso   1.00
O809   O     0.40323   0.85627   0.27820   0.00000  Uiso   1.00
O810   O     0.58773   0.81944   0.26767   0.00000  Uiso   1.00
O811   O     0.47133   0.73570   0.23607   0.00000  Uiso   1.00
O812   O     0.53771   0.92193   0.21805   0.00000  Uiso   1.00
Zn813  Zn    0.52577   0.80756   0.28277   0.00000  Uiso   1.00
Zn814  Zn    0.46792   0.79044   0.22257   0.00000  Uiso   1.00
Zn815  Zn    0.54500   0.86331   0.21188   0.00000  Uiso   1.00
Zn816  Zn    0.46131   0.87202   0.28277   0.00000  Uiso   1.00
C817   C     0.71911   0.82642   0.25888   0.00000  Uiso   1.00
C818   C     0.84365   0.77932   0.46392   0.00000  Uiso   1.00
C819   C     0.86435   0.75782   0.48327   0.00000  Uiso   1.00
C820   C     0.94777   0.84016   0.24118   0.00000  Uiso   1.00
C821   C     0.86764   0.77450   0.02171   0.00000  Uiso   1.00
C822   C     0.83913   0.80475   0.04314   0.00000  Uiso   1.00
C823   C     0.89701   0.76208   0.04035   0.00000  Uiso   1.00
C824   C     0.89044   0.77259   0.08120   0.00000  Uiso   1.00
C825   C     0.84144   0.82118   0.08125   0.00000  Uiso   1.00
C826   C     0.99377   0.84263   0.23750   0.00000  Uiso   1.00
C827   C     0.67374   0.82398   0.26229   0.00000  Uiso   1.00
C828   C     0.75837   0.87533   0.42181   0.00000  Uiso   1.00
C829   C     0.84650   0.98852   0.23615   0.00000  Uiso   1.00
C830   C     0.81866   0.67878   0.26219   0.00000  Uiso   1.00
C831   C     0.82226   0.72280   0.25927   0.00000  Uiso   1.00
C832   C     0.84333   0.94429   0.24095   0.00000  Uiso   1.00
C833   C     0.85474   0.81198   0.14391   0.00000  Uiso   1.00
C834   C     0.81146   0.85386   0.35659   0.00000  Uiso   1.00
C835   C     0.79668   0.85726   0.40063   0.00000  Uiso   1.00
C836   C     0.86320   0.80241   0.10127   0.00000  Uiso   1.00
C837   C     0.74477   0.87763   0.46333   0.00000  Uiso   1.00
C838   C     0.93781   0.74196   0.01787   0.00000  Uiso   1.00
C839   C     0.81969   0.83999   0.42161   0.00000  Uiso   1.00
C840   C     0.97871   0.76415   0.02902   0.00000  Uiso   1.00
C841   C     0.68670   0.75226   0.49814   0.00000  Uiso   1.00
C842   C     0.86924   0.99768   0.17071   0.00000  Uiso   1.00
C843   C     0.87458   0.71421   0.46460   0.00000  Uiso   1.00
C844   C     0.90888   0.71461   0.42422   0.00000  Uiso   1.00
C845   C     0.92635   0.67235   0.41108   0.00000  Uiso   1.00
C846   C     0.67148   0.87538   0.49280   0.00000  Uiso   1.00
C847   C     0.70521   0.86382   0.38994   0.00000  Uiso   1.00
C848   C     0.89173   0.86196   0.40712   0.00000  Uiso   1.00
C849   C     0.74609   0.83140   0.08881   0.00000  Uiso   1.00
C850   C     0.80207   0.83621   0.46268   0.00000  Uiso   1.00
C851   C     0.73577   0.78498   0.09586   0.00000  Uiso   1.00
C852   C     0.70798   0.77954   0.13802   0.00000  Uiso   1.00
C853   C     0.76653   0.85801   0.48385   0.00000  Uiso   1.00
C854   C     0.82043   0.81290   0.48341   0.00000  Uiso   1.00
C855   C     0.81074   0.81935   0.02514   0.00000  Uiso   1.00
C856   C     0.77216   0.83817   0.04621   0.00000  Uiso   1.00
C857   C     0.75212   0.85851   0.02508   0.00000  Uiso   1.00
H858   H     0.72408   0.87412   0.04118   0.00000  Uiso   1.00
H859   H     0.71551   0.76844   0.00711   0.00000  Uiso   1.00
H860   H     0.97867   0.79852   0.03168   0.00000  Uiso   1.00
H861   H     0.97914   0.75540   0.05804   0.00000  Uiso   1.00
H862   H     0.93343   0.70867   0.02362   0.00000  Uiso   1.00
H863   H     0.94404   0.74362   0.48592   0.00000  Uiso   1.00
H864   H     0.83822   0.67631   0.17259   0.00000  Uiso   1.00
H865   H     0.86750   0.96367   0.16068   0.00000  Uiso   1.00
H866   H     0.89500   0.68054   0.14788   0.00000  Uiso   1.00
H867   H     0.94293   0.99849   0.43233   0.00000  Uiso   1.00
H868   H     0.89952   0.98062   0.40920   0.00000  Uiso   1.00
H869   H     0.68356   0.85965   0.21455   0.00000  Uiso   1.00
H870   H     0.95007   0.67317   0.38146   0.00000  Uiso   1.00
H871   H     0.89420   0.72166   0.40152   0.00000  Uiso   1.00
H872   H     0.93630   0.73919   0.42528   0.00000  Uiso   1.00
H873   H     0.88367   0.69657   0.48489   0.00000  Uiso   1.00
H874   H     0.84425   0.69609   0.45992   0.00000  Uiso   1.00
H875   H     0.67276   0.84235   0.47922   0.00000  Uiso   1.00
H876   H     0.98097   0.88891   0.48262   0.00000  Uiso   1.00
H877   H     0.99226   0.87541   0.02538   0.00000  Uiso   1.00
H878   H     0.71869   0.83404   0.37600   0.00000  Uiso   1.00
H879   H     0.69444   0.87651   0.36739   0.00000  Uiso   1.00
H880   H     0.98464   0.80697   0.28557   0.00000  Uiso   1.00
H881   H     0.67614   0.85726   0.41477   0.00000  Uiso   1.00
H882   H     0.89107   0.86965   0.43884   0.00000  Uiso   1.00
H883   H     0.88740   0.89007   0.39465   0.00000  Uiso   1.00
H884   H     0.92427   0.85278   0.39091   0.00000  Uiso   1.00
H885   H     0.72538   0.79566   0.15968   0.00000  Uiso   1.00
H886   H     0.67673   0.79254   0.14360   0.00000  Uiso   1.00
H887   H     0.70104   0.74580   0.14230   0.00000  Uiso   1.00
H888   H     0.71800   0.76806   0.07482   0.00000  Uiso   1.00
H889   H     0.76581   0.77031   0.09107   0.00000  Uiso   1.00
H890   H     0.76103   0.84972   0.11106   0.00000  Uiso   1.00
H891   H     0.79318   0.99923   0.28628   0.00000  Uiso   1.00
H892   H     0.71432   0.84383   0.09563   0.00000  Uiso   1.00
H893   H     0.82679   0.84875   0.09580   0.00000  Uiso   1.00
H894   H     0.90867   0.75967   0.09701   0.00000  Uiso   1.00
H895   H     0.84172   0.76673   0.43452   0.00000  Uiso   1.00
H896   H     0.68786   0.71800   0.49538   0.00000  Uiso   1.00
H897   H     0.68810   0.76183   0.46892   0.00000  Uiso   1.00
O898   O     0.83333   0.83333   0.25000   0.00000  Uiso   1.00
O899   O     0.82360   0.79060   0.16625   0.00000  Uiso   1.00
O900   O     0.79354   0.87313   0.33749   0.00000  Uiso   1.00
O901   O     0.87755   0.84159   0.15877   0.00000  Uiso   1.00
O902   O     0.83865   0.82802   0.33749   0.00000  Uiso   1.00
O903   O     0.88007   0.67304   0.20698   0.00000  Uiso   1.00
O904   O     0.71143   0.90123   0.48362   0.00000  Uiso   1.00
O905   O     0.73583   0.89413   0.40252   0.00000  Uiso   1.00
O906   O     0.86038   0.82826   0.40198   0.00000  Uiso   1.00
O907   O     0.84515   0.74768   0.27820   0.00000  Uiso   1.00
O908   O     0.81247   0.92803   0.26767   0.00000  Uiso   1.00
O909   O     0.74119   0.79917   0.23607   0.00000  Uiso   1.00
O910   O     0.93452   0.85845   0.21805   0.00000  Uiso   1.00
O911   O     0.73656   0.85627   0.27820   0.00000  Uiso   1.00
O912   O     0.92106   0.81944   0.26767   0.00000  Uiso   1.00
O913   O     0.80467   0.73570   0.23607   0.00000  Uiso   1.00
O914   O     0.87104   0.92193   0.21805   0.00000  Uiso   1.00
Zn915  Zn    0.85910   0.80756   0.28277   0.00000  Uiso   1.00
Zn916  Zn    0.80125   0.79044   0.22257   0.00000  Uiso   1.00
Zn917  Zn    0.87833   0.86331   0.21188   0.00000  Uiso   1.00
Zn918  Zn    0.79465   0.87202   0.28277   0.00000  Uiso   1.00
C919   C     0.05245   0.15976   0.75888   0.00000  Uiso   1.00
C920   C     0.17698   0.11266   0.96392   0.00000  Uiso   1.00
C921   C     0.19768   0.09115   0.98327   0.00000  Uiso   1.00
C922   C     0.28111   0.17350   0.74118   0.00000  Uiso   1.00
C923   C     0.20098   0.10783   0.52171   0.00000  Uiso   1.00
C924   C     0.17247   0.13809   0.54314   0.00000  Uiso   1.00
C925   C     0.23035   0.09541   0.54035   0.00000  Uiso   1.00
C926   C     0.22378   0.10593   0.58120   0.00000  Uiso   1.00
C927   C     0.17477   0.15451   0.58125   0.00000  Uiso   1.00
C928   C     0.32710   0.17596   0.73750   0.00000  Uiso   1.00
C929   C     0.00707   0.15731   0.76229   0.00000  Uiso   1.00
C930   C     0.09170   0.20867   0.92181   0.00000  Uiso   1.00
C931   C     0.17983   0.32185   0.73615   0.00000  Uiso   1.00
C932   C     0.15199   0.01211   0.76219   0.00000  Uiso   1.00
C933   C     0.15559   0.05614   0.75927   0.00000  Uiso   1.00
C934   C     0.17666   0.27762   0.74095   0.00000  Uiso   1.00
C935   C     0.18807   0.14531   0.64391   0.00000  Uiso   1.00
C936   C     0.14479   0.18720   0.85659   0.00000  Uiso   1.00
C937   C     0.13002   0.19059   0.90063   0.00000  Uiso   1.00
C938   C     0.19653   0.13575   0.60127   0.00000  Uiso   1.00
C939   C     0.07811   0.21096   0.96333   0.00000  Uiso   1.00
C940   C     0.27115   0.07529   0.51787   0.00000  Uiso   1.00
C941   C     0.15303   0.17333   0.92161   0.00000  Uiso   1.00
C942   C     0.31204   0.09748   0.52902   0.00000  Uiso   1.00
C943   C     0.02003   0.08559   0.99814   0.00000  Uiso   1.00
C944   C     0.20257   0.33101   0.67071   0.00000  Uiso   1.00
C945   C     0.20791   0.04754   0.96460   0.00000  Uiso   1.00
C946   C     0.24221   0.04794   0.92422   0.00000  Uiso   1.00
C947   C     0.25969   0.00569   0.91108   0.00000  Uiso   1.00
C948   C     0.00482   0.20871   0.99280   0.00000  Uiso   1.00
C949   C     0.03854   0.19715   0.88994   0.00000  Uiso   1.00
C950   C     0.22506   0.19530   0.90712   0.00000  Uiso   1.00
C951   C     0.07943   0.16473   0.58881   0.00000  Uiso   1.00
C952   C     0.13540   0.16954   0.96268   0.00000  Uiso   1.00
C953   C     0.06911   0.11831   0.59586   0.00000  Uiso   1.00
C954   C     0.04131   0.11288   0.63802   0.00000  Uiso   1.00
C955   C     0.09987   0.19134   0.98385   0.00000  Uiso   1.00
C956   C     0.15376   0.14624   0.98341   0.00000  Uiso   1.00
C957   C     0.14407   0.15268   0.52514   0.00000  Uiso   1.00
C958   C     0.10549   0.17150   0.54621   0.00000  Uiso   1.00
C959   C     0.08545   0.19185   0.52508   0.00000  Uiso   1.00
H960   H     0.05741   0.20746   0.54118   0.00000  Uiso   1.00
H961   H     0.04884   0.10177   0.50711   0.00000  Uiso   1.00
H962   H     0.31200   0.13185   0.53168   0.00000  Uiso   1.00
H963   H     0.31248   0.08873   0.55804   0.00000  Uiso   1.00
H964   H     0.26677   0.04200   0.52362   0.00000  Uiso   1.00
H965   H     0.27737   0.07695   0.98592   0.00000  Uiso   1.00
H966   H     0.17155   0.00964   0.67259   0.00000  Uiso   1.00
H967   H     0.20084   0.29700   0.66068   0.00000  Uiso   1.00
H968   H     0.22833   0.01387   0.64788   0.00000  Uiso   1.00
H969   H     0.27626   0.33182   0.93233   0.00000  Uiso   1.00
H970   H     0.23285   0.31396   0.90920   0.00000  Uiso   1.00
H971   H     0.01689   0.19298   0.71455   0.00000  Uiso   1.00
H972   H     0.28340   0.00650   0.88146   0.00000  Uiso   1.00
H973   H     0.22753   0.05500   0.90152   0.00000  Uiso   1.00
H974   H     0.26963   0.07253   0.92528   0.00000  Uiso   1.00
H975   H     0.21701   0.02990   0.98489   0.00000  Uiso   1.00
H976   H     0.17758   0.02943   0.95992   0.00000  Uiso   1.00
H977   H     0.00609   0.17568   0.97922   0.00000  Uiso   1.00
H978   H     0.31431   0.22225   0.98262   0.00000  Uiso   1.00
H979   H     0.32560   0.20874   0.52538   0.00000  Uiso   1.00
H980   H     0.05202   0.16737   0.87600   0.00000  Uiso   1.00
H981   H     0.02777   0.20985   0.86739   0.00000  Uiso   1.00
H982   H     0.31797   0.14031   0.78557   0.00000  Uiso   1.00
H983   H     0.00948   0.19060   0.91477   0.00000  Uiso   1.00
H984   H     0.22441   0.20298   0.93884   0.00000  Uiso   1.00
H985   H     0.22073   0.22340   0.89465   0.00000  Uiso   1.00
H986   H     0.25760   0.18611   0.89091   0.00000  Uiso   1.00
H987   H     0.05871   0.12899   0.65968   0.00000  Uiso   1.00
H988   H     0.01007   0.12587   0.64360   0.00000  Uiso   1.00
H989   H     0.03437   0.07914   0.64230   0.00000  Uiso   1.00
H990   H     0.05133   0.10140   0.57482   0.00000  Uiso   1.00
H991   H     0.09914   0.10365   0.59107   0.00000  Uiso   1.00
H992   H     0.09436   0.18305   0.61106   0.00000  Uiso   1.00
H993   H     0.12651   0.33256   0.78628   0.00000  Uiso   1.00
H994   H     0.04765   0.17717   0.59563   0.00000  Uiso   1.00
H995   H     0.16012   0.18208   0.59580   0.00000  Uiso   1.00
H996   H     0.24201   0.09300   0.59701   0.00000  Uiso   1.00
H997   H     0.17506   0.10006   0.93452   0.00000  Uiso   1.00
H998   H     0.02120   0.05133   0.99538   0.00000  Uiso   1.00
H999   H     0.02143   0.09516   0.96892   0.00000  Uiso   1.00
O1000  O     0.16667   0.16667   0.75000   0.00000  Uiso   1.00
O1001  O     0.15693   0.12393   0.66625   0.00000  Uiso   1.00
O1002  O     0.12687   0.20646   0.83749   0.00000  Uiso   1.00
O1003  O     0.21088   0.17493   0.65877   0.00000  Uiso   1.00
O1004  O     0.17198   0.16135   0.83749   0.00000  Uiso   1.00
O1005  O     0.21340   0.00637   0.70698   0.00000  Uiso   1.00
O1006  O     0.04476   0.23456   0.98362   0.00000  Uiso   1.00
O1007  O     0.06916   0.22747   0.90252   0.00000  Uiso   1.00
O1008  O     0.19371   0.16159   0.90198   0.00000  Uiso   1.00
O1009  O     0.17849   0.08101   0.77820   0.00000  Uiso   1.00
O1010  O     0.14581   0.26136   0.76767   0.00000  Uiso   1.00
O1011  O     0.07452   0.13251   0.73607   0.00000  Uiso   1.00
O1012  O     0.26785   0.19179   0.71805   0.00000  Uiso   1.00
O1013  O     0.06990   0.18960   0.77820   0.00000  Uiso   1.00
O1014  O     0.25440   0.15277   0.76767   0.00000  Uiso   1.00
O1015  O     0.13800   0.06903   0.73607   0.00000  Uiso   1.00
O1016  O     0.20437   0.25527   0.71805   0.00000  Uiso   1.00
Zn1017 Zn    0.19244   0.14090   0.78277   0.00000  Uiso   1.00
Zn1018 Zn    0.13459   0.12378   0.72257   0.00000  Uiso   1.00
Zn1019 Zn    0.21166   0.19664   0.71188   0.00000  Uiso   1.00
Zn1020 Zn    0.12798   0.20535   0.78277   0.00000  Uiso   1.00
C1021  C     0.38578   0.15976   0.75888   0.00000  Uiso   1.00
C1022  C     0.51031   0.11266   0.96392   0.00000  Uiso   1.00
C1023  C     0.53102   0.09115   0.98327   0.00000  Uiso   1.00
C1024  C     0.61444   0.17350   0.74118   0.00000  Uiso   1.00
C1025  C     0.53431   0.10783   0.52171   0.00000  Uiso   1.00
C1026  C     0.50580   0.13809   0.54314   0.00000  Uiso   1.00
C1027  C     0.56368   0.09541   0.54035   0.00000  Uiso   1.00
C1028  C     0.55711   0.10593   0.58120   0.00000  Uiso   1.00
C1029  C     0.50811   0.15451   0.58125   0.00000  Uiso   1.00
C1030  C     0.66043   0.17596   0.73750   0.00000  Uiso   1.00
C1031  C     0.34041   0.15731   0.76229   0.00000  Uiso   1.00
C1032  C     0.42504   0.20867   0.92181   0.00000  Uiso   1.00
C1033  C     0.51316   0.32185   0.73615   0.00000  Uiso   1.00
C1034  C     0.48532   0.01211   0.76219   0.00000  Uiso   1.00
C1035  C     0.48893   0.05614   0.75927   0.00000  Uiso   1.00
C1036  C     0.50999   0.27762   0.74095   0.00000  Uiso   1.00
C1037  C     0.52140   0.14531   0.64391   0.00000  Uiso   1.00
C1038  C     0.47813   0.18720   0.85659   0.00000  Uiso   1.00
C1039  C     0.46335   0.19059   0.90063   0.00000  Uiso   1.00
C1040  C     0.52986   0.13575   0.60127   0.00000  Uiso   1.00
C1041  C     0.41144   0.21096   0.96333   0.00000  Uiso   1.00
C1042  C     0.60448   0.07529   0.51787   0.00000  Uiso   1.00
C1043  C     0.48636   0.17333   0.92161   0.00000  Uiso   1.00
C1044  C     0.64537   0.09748   0.52902   0.00000  Uiso   1.00
C1045  C     0.35337   0.08559   0.99814   0.00000  Uiso   1.00
C1046  C     0.53590   0.33101   0.67071   0.00000  Uiso   1.00
C1047  C     0.54124   0.04754   0.96460   0.00000  Uiso   1.00
C1048  C     0.57554   0.04794   0.92422   0.00000  Uiso   1.00
C1049  C     0.59302   0.00569   0.91108   0.00000  Uiso   1.00
C1050  C     0.33815   0.20871   0.99280   0.00000  Uiso   1.00
C1051  C     0.37188   0.19715   0.88994   0.00000  Uiso   1.00
C1052  C     0.55839   0.19530   0.90712   0.00000  Uiso   1.00
C1053  C     0.41276   0.16473   0.58881   0.00000  Uiso   1.00
C1054  C     0.46874   0.16954   0.96268   0.00000  Uiso   1.00
C1055  C     0.40244   0.11831   0.59586   0.00000  Uiso   1.00
C1056  C     0.37464   0.11288   0.63802   0.00000  Uiso   1.00
C1057  C     0.43320   0.19134   0.98385   0.00000  Uiso   1.00
C1058  C     0.48710   0.14624   0.98341   0.00000  Uiso   1.00
C1059  C     0.47741   0.15268   0.52514   0.00000  Uiso   1.00
C1060  C     0.43882   0.17150   0.54621   0.00000  Uiso   1.00
C1061  C     0.41878   0.19185   0.52508   0.00000  Uiso   1.00
H1062  H     0.39074   0.20746   0.54118   0.00000  Uiso   1.00
H1063  H     0.38218   0.10177   0.50711   0.00000  Uiso   1.00
H1064  H     0.64533   0.13185   0.53168   0.00000  Uiso   1.00
H1065  H     0.64581   0.08873   0.55804   0.00000  Uiso   1.00
H1066  H     0.60010   0.04200   0.52362   0.00000  Uiso   1.00
H1067  H     0.61071   0.07695   0.98592   0.00000  Uiso   1.00
H1068  H     0.50488   0.00964   0.67259   0.00000  Uiso   1.00
H1069  H     0.53417   0.29700   0.66068   0.00000  Uiso   1.00
H1070  H     0.56167   0.01387   0.64788   0.00000  Uiso   1.00
H1071  H     0.60959   0.33182   0.93233   0.00000  Uiso   1.00
H1072  H     0.56619   0.31396   0.90920   0.00000  Uiso   1.00
H1073  H     0.35022   0.19298   0.71455   0.00000  Uiso   1.00
H1074  H     0.61674   0.00650   0.88146   0.00000  Uiso   1.00
H1075  H     0.56087   0.05500   0.90152   0.00000  Uiso   1.00
H1076  H     0.60297   0.07253   0.92528   0.00000  Uiso   1.00
H1077  H     0.55034   0.02990   0.98489   0.00000  Uiso   1.00
H1078  H     0.51092   0.02943   0.95992   0.00000  Uiso   1.00
H1079  H     0.33942   0.17568   0.97922   0.00000  Uiso   1.00
H1080  H     0.64764   0.22225   0.98262   0.00000  Uiso   1.00
H1081  H     0.65893   0.20874   0.52538   0.00000  Uiso   1.00
H1082  H     0.38535   0.16737   0.87600   0.00000  Uiso   1.00
H1083  H     0.36111   0.20985   0.86739   0.00000  Uiso   1.00
H1084  H     0.65130   0.14031   0.78557   0.00000  Uiso   1.00
H1085  H     0.34281   0.19060   0.91477   0.00000  Uiso   1.00
H1086  H     0.55774   0.20298   0.93884   0.00000  Uiso   1.00
H1087  H     0.55406   0.22340   0.89465   0.00000  Uiso   1.00
H1088  H     0.59094   0.18611   0.89091   0.00000  Uiso   1.00
H1089  H     0.39204   0.12899   0.65968   0.00000  Uiso   1.00
H1090  H     0.34340   0.12587   0.64360   0.00000  Uiso   1.00
H1091  H     0.36771   0.07914   0.64230   0.00000  Uiso   1.00
H1092  H     0.38467   0.10140   0.57482   0.00000  Uiso   1.00
H1093  H     0.43248   0.10365   0.59107   0.00000  Uiso   1.00
H1094  H     0.42770   0.18305   0.61106   0.00000  Uiso   1.00
H1095  H     0.45984   0.33256   0.78628   0.00000  Uiso   1.00
H1096  H     0.38099   0.17717   0.59563   0.00000  Uiso   1.00
H1097  H     0.49346   0.18208   0.59580   0.00000  Uiso   1.00
H1098  H     0.57534   0.09300   0.59701   0.00000  Uiso   1.00
H1099  H     0.50839   0.10006   0.93452   0.00000  Uiso   1.00
H1100  H     0.35453   0.05133   0.99538   0.00000  Uiso   1.00
H1101  H     0.35476   0.09516   0.96892   0.00000  Uiso   1.00
O1102  O     0.50000   0.16667   0.75000   0.00000  Uiso   1.00
O1103  O     0.49027   0.12393   0.66625   0.00000  Uiso   1.00
O1104  O     0.46020   0.20646   0.83749   0.00000  Uiso   1.00
O1105  O     0.54421   0.17493   0.65877   0.00000  Uiso   1.00
O1106  O     0.50532   0.16135   0.83749   0.00000  Uiso   1.00
O1107  O     0.54673   0.00637   0.70698   0.00000  Uiso   1.00
O1108  O     0.37809   0.23456   0.98362   0.00000  Uiso   1.00
O1109  O     0.40249   0.22747   0.90252   0.00000  Uiso   1.00
O1110  O     0.52704   0.16159   0.90198   0.00000  Uiso   1.00
O1111  O     0.51182   0.08101   0.77820   0.00000  Uiso   1.00
O1112  O     0.47914   0.26136   0.76767   0.00000  Uiso   1.00
O1113  O     0.40785   0.13251   0.73607   0.00000  Uiso   1.00
O1114  O     0.60119   0.19179   0.71805   0.00000  Uiso   1.00
O1115  O     0.40323   0.18960   0.77820   0.00000  Uiso   1.00
O1116  O     0.58773   0.15277   0.76767   0.00000  Uiso   1.00
O1117  O     0.47133   0.06903   0.73607   0.00000  Uiso   1.00
O1118  O     0.53771   0.25527   0.71805   0.00000  Uiso   1.00
Zn1119 Zn    0.52577   0.14090   0.78277   0.00000  Uiso   1.00
Zn1120 Zn    0.46792   0.12378   0.72257   0.00000  Uiso   1.00
Zn1121 Zn    0.54500   0.19664   0.71188   0.00000  Uiso   1.00
Zn1122 Zn    0.46131   0.20535   0.78277   0.00000  Uiso   1.00
C1123  C     0.71911   0.15976   0.75888   0.00000  Uiso   1.00
C1124  C     0.84365   0.11266   0.96392   0.00000  Uiso   1.00
C1125  C     0.86435   0.09115   0.98327   0.00000  Uiso   1.00
C1126  C     0.94777   0.17350   0.74118   0.00000  Uiso   1.00
C1127  C     0.86764   0.10783   0.52171   0.00000  Uiso   1.00
C1128  C     0.83913   0.13809   0.54314   0.00000  Uiso   1.00
C1129  C     0.89701   0.09541   0.54035   0.00000  Uiso   1.00
C1130  C     0.89044   0.10593   0.58120   0.00000  Uiso   1.00
C1131  C     0.84144   0.15451   0.58125   0.00000  Uiso   1.00
C1132  C     0.99377   0.17596   0.73750   0.00000  Uiso   1.00
C1133  C     0.67374   0.15731   0.76229   0.00000  Uiso   1.00
C1134  C     0.75837   0.20867   0.92181   0.00000  Uiso   1.00
C1135  C     0.84650   0.32185   0.73615   0.00000  Uiso   1.00
C1136  C     0.81866   0.01211   0.76219   0.00000  Uiso   1.00
C1137  C     0.82226   0.05614   0.75927   0.00000  Uiso   1.00
C1138  C     0.84333   0.27762   0.74095   0.00000  Uiso   1.00
C1139  C     0.85474   0.14531   0.64391   0.00000  Uiso   1.00
C1140  C     0.81146   0.18720   0.85659   0.00000  Uiso   1.00
C1141  C     0.79668   0.19059   0.90063   0.00000  Uiso   1.00
C1142  C     0.86320   0.13575   0.60127   0.00000  Uiso   1.00
C1143  C     0.74477   0.21096   0.96333   0.00000  Uiso   1.00
C1144  C     0.93781   0.07529   0.51787   0.00000  Uiso   1.00
C1145  C     0.81969   0.17333   0.92161   0.00000  Uiso   1.00
C1146  C     0.97871   0.09748   0.52902   0.00000  Uiso   1.00
C1147  C     0.68670   0.08559   0.99814   0.00000  Uiso   1.00
C1148  C     0.86924   0.33101   0.67071   0.00000  Uiso   1.00
C1149  C     0.87458   0.04754   0.96460   0.00000  Uiso   1.00
C1150  C     0.90888   0.04794   0.92422   0.00000  Uiso   1.00
C1151  C     0.92635   0.00569   0.91108   0.00000  Uiso   1.00
C1152  C     0.67148   0.20871   0.99280   0.00000  Uiso   1.00
C1153  C     0.70521   0.19715   0.88994   0.00000  Uiso   1.00
C1154  C     0.89173   0.19530   0.90712   0.00000  Uiso   1.00
C1155  C     0.74609   0.16473   0.58881   0.00000  Uiso   1.00
C1156  C     0.80207   0.16954   0.96268   0.00000  Uiso   1.00
C1157  C     0.73577   0.11831   0.59586   0.00000  Uiso   1.00
C1158  C     0.70798   0.11288   0.63802   0.00000  Uiso   1.00
C1159  C     0.76653   0.19134   0.98385   0.00000  Uiso   1.00
C1160  C     0.82043   0.14624   0.98341   0.00000  Uiso   1.00
C1161  C     0.81074   0.15268   0.52514   0.00000  Uiso   1.00
C1162  C     0.77216   0.17150   0.54621   0.00000  Uiso   1.00
C1163  C     0.75212   0.19185   0.52508   0.00000  Uiso   1.00
H1164  H     0.72408   0.20746   0.54118   0.00000  Uiso   1.00
H1165  H     0.71551   0.10177   0.50711   0.00000  Uiso   1.00
H1166  H     0.97867   0.13185   0.53168   0.00000  Uiso   1.00
H1167  H     0.97914   0.08873   0.55804   0.00000  Uiso   1.00
H1168  H     0.93343   0.04200   0.52362   0.00000  Uiso   1.00
H1169  H     0.94404   0.07695   0.98592   0.00000  Uiso   1.00
H1170  H     0.83822   0.00964   0.67259   0.00000  Uiso   1.00
H1171  H     0.86750   0.29700   0.66068   0.00000  Uiso   1.00
H1172  H     0.89500   0.01387   0.64788   0.00000  Uiso   1.00
H1173  H     0.94293   0.33182   0.93233   0.00000  Uiso   1.00
H1174  H     0.89952   0.31396   0.90920   0.00000  Uiso   1.00
H1175  H     0.68356   0.19298   0.71455   0.00000  Uiso   1.00
H1176  H     0.95007   0.00650   0.88146   0.00000  Uiso   1.00
H1177  H     0.89420   0.05500   0.90152   0.00000  Uiso   1.00
H1178  H     0.93630   0.07253   0.92528   0.00000  Uiso   1.00
H1179  H     0.88367   0.02990   0.98489   0.00000  Uiso   1.00
H1180  H     0.84425   0.02943   0.95992   0.00000  Uiso   1.00
H1181  H     0.67276   0.17568   0.97922   0.00000  Uiso   1.00
H1182  H     0.98097   0.22225   0.98262   0.00000  Uiso   1.00
H1183  H     0.99226   0.20874   0.52538   0.00000  Uiso   1.00
H1184  H     0.71869   0.16737   0.87600   0.00000  Uiso   1.00
H1185  H     0.69444   0.20985   0.86739   0.00000  Uiso   1.00
H1186  H     0.98464   0.14031   0.78557   0.00000  Uiso   1.00
H1187  H     0.67614   0.19060   0.91477   0.00000  Uiso   1.00
H1188  H     0.89107   0.20298   0.93884   0.00000  Uiso   1.00
H1189  H     0.88740   0.22340   0.89465   0.00000  Uiso   1.00
H1190  H     0.92427   0.18611   0.89091   0.00000  Uiso   1.00
H1191  H     0.72538   0.12899   0.65968   0.00000  Uiso   1.00
H1192  H     0.67673   0.12587   0.64360   0.00000  Uiso   1.00
H1193  H     0.70104   0.07914   0.64230   0.00000  Uiso   1.00
H1194  H     0.71800   0.10140   0.57482   0.00000  Uiso   1.00
H1195  H     0.76581   0.10365   0.59107   0.00000  Uiso   1.00
H1196  H     0.76103   0.18305   0.61106   0.00000  Uiso   1.00
H1197  H     0.79318   0.33256   0.78628   0.00000  Uiso   1.00
H1198  H     0.71432   0.17717   0.59563   0.00000  Uiso   1.00
H1199  H     0.82679   0.18208   0.59580   0.00000  Uiso   1.00
H1200  H     0.90867   0.09300   0.59701   0.00000  Uiso   1.00
H1201  H     0.84172   0.10006   0.93452   0.00000  Uiso   1.00
H1202  H     0.68786   0.05133   0.99538   0.00000  Uiso   1.00
H1203  H     0.68810   0.09516   0.96892   0.00000  Uiso   1.00
O1204  O     0.83333   0.16667   0.75000   0.00000  Uiso   1.00
O1205  O     0.82360   0.12393   0.66625   0.00000  Uiso   1.00
O1206  O     0.79354   0.20646   0.83749   0.00000  Uiso   1.00
O1207  O     0.87755   0.17493   0.65877   0.00000  Uiso   1.00
O1208  O     0.83865   0.16135   0.83749   0.00000  Uiso   1.00
O1209  O     0.88007   0.00637   0.70698   0.00000  Uiso   1.00
O1210  O     0.71143   0.23456   0.98362   0.00000  Uiso   1.00
O1211  O     0.73583   0.22747   0.90252   0.00000  Uiso   1.00
O1212  O     0.86038   0.16159   0.90198   0.00000  Uiso   1.00
O1213  O     0.84515   0.08101   0.77820   0.00000  Uiso   1.00
O1214  O     0.81247   0.26136   0.76767   0.00000  Uiso   1.00
O1215  O     0.74119   0.13251   0.73607   0.00000  Uiso   1.00
O1216  O     0.93452   0.19179   0.71805   0.00000  Uiso   1.00
O1217  O     0.73656   0.18960   0.77820   0.00000  Uiso   1.00
O1218  O     0.92106   0.15277   0.76767   0.00000  Uiso   1.00
O1219  O     0.80467   0.06903   0.73607   0.00000  Uiso   1.00
O1220  O     0.87104   0.25527   0.71805   0.00000  Uiso   1.00
Zn1221 Zn    0.85910   0.14090   0.78277   0.00000  Uiso   1.00
Zn1222 Zn    0.80125   0.12378   0.72257   0.00000  Uiso   1.00
Zn1223 Zn    0.87833   0.19664   0.71188   0.00000  Uiso   1.00
Zn1224 Zn    0.79465   0.20535   0.78277   0.00000  Uiso   1.00
C1225  C     0.05245   0.49309   0.75888   0.00000  Uiso   1.00
C1226  C     0.17698   0.44599   0.96392   0.00000  Uiso   1.00
C1227  C     0.19768   0.42448   0.98327   0.00000  Uiso   1.00
C1228  C     0.28111   0.50683   0.74118   0.00000  Uiso   1.00
C1229  C     0.20098   0.44117   0.52171   0.00000  Uiso   1.00
C1230  C     0.17247   0.47142   0.54314   0.00000  Uiso   1.00
C1231  C     0.23035   0.42874   0.54035   0.00000  Uiso   1.00
C1232  C     0.22378   0.43926   0.58120   0.00000  Uiso   1.00
C1233  C     0.17477   0.48785   0.58125   0.00000  Uiso   1.00
C1234  C     0.32710   0.50930   0.73750   0.00000  Uiso   1.00
C1235  C     0.00707   0.49064   0.76229   0.00000  Uiso   1.00
C1236  C     0.09170   0.54200   0.92181   0.00000  Uiso   1.00
C1237  C     0.17983   0.65518   0.73615   0.00000  Uiso   1.00
C1238  C     0.15199   0.34545   0.76219   0.00000  Uiso   1.00
C1239  C     0.15559   0.38947   0.75927   0.00000  Uiso   1.00
C1240  C     0.17666   0.61095   0.74095   0.00000  Uiso   1.00
C1241  C     0.18807   0.47865   0.64391   0.00000  Uiso   1.00
C1242  C     0.14479   0.52053   0.85659   0.00000  Uiso   1.00
C1243  C     0.13002   0.52392   0.90063   0.00000  Uiso   1.00
C1244  C     0.19653   0.46908   0.60127   0.00000  Uiso   1.00
C1245  C     0.07811   0.54430   0.96333   0.00000  Uiso   1.00
C1246  C     0.27115   0.40862   0.51787   0.00000  Uiso   1.00
C1247  C     0.15303   0.50666   0.92161   0.00000  Uiso   1.00
C1248  C     0.31204   0.43081   0.52902   0.00000  Uiso   1.00
C1249  C     0.02003   0.41893   0.99814   0.00000  Uiso   1.00
C1250  C     0.20257   0.66435   0.67071   0.00000  Uiso   1.00
C1251  C     0.20791   0.38087   0.96460   0.00000  Uiso   1.00
C1252  C     0.24221   0.38127   0.92422   0.00000  Uiso   1.00
C1253  C     0.25969   0.33902   0.91108   0.00000  Uiso   1.00
C1254  C     0.00482   0.54205   0.99280   0.00000  Uiso   1.00
C1255  C     0.03854   0.53048   0.88994   0.00000  Uiso   1.00
C1256  C     0.22506   0.52863   0.90712   0.00000  Uiso   1.00
C1257  C     0.07943   0.49807   0.58881   0.00000  Uiso   1.00
C1258  C     0.13540   0.50288   0.96268   0.00000  Uiso   1.00
C1259  C     0.06911   0.45164   0.59586   0.00000  Uiso   1.00
C1260  C     0.04131   0.44621   0.63802   0.00000  Uiso   1.00
C1261  C     0.09987   0.52467   0.98385   0.00000  Uiso   1.00
C1262  C     0.15376   0.47957   0.98341   0.00000  Uiso   1.00
C1263  C     0.14407   0.48602   0.52514   0.00000  Uiso   1.00
C1264  C     0.10549   0.50483   0.54621   0.00000  Uiso   1.00
C1265  C     0.08545   0.52518   0.52508   0.00000  Uiso   1.00
H1266  H     0.05741   0.54079   0.54118   0.00000  Uiso   1.00
H1267  H     0.04884   0.43511   0.50711   0.00000  Uiso   1.00
H1268  H     0.31200   0.46518   0.53168   0.00000  Uiso   1.00
H1269  H     0.31248   0.42206   0.55804   0.00000  Uiso   1.00
H1270  H     0.26677   0.37533   0.52362   0.00000  Uiso   1.00
H1271  H     0.27737   0.41029   0.98592   0.00000  Uiso   1.00
H1272  H     0.17155   0.34297   0.67259   0.00000  Uiso   1.00
H1273  H     0.20084   0.63034   0.66068   0.00000  Uiso   1.00
H1274  H     0.22833   0.34720   0.64788   0.00000  Uiso   1.00
H1275  H     0.27626   0.66515   0.93233   0.00000  Uiso   1.00
H1276  H     0.23285   0.64729   0.90920   0.00000  Uiso   1.00
H1277  H     0.01689   0.52632   0.71455   0.00000  Uiso   1.00
H1278  H     0.28340   0.33984   0.88146   0.00000  Uiso   1.00
H1279  H     0.22753   0.38833   0.90152   0.00000  Uiso   1.00
H1280  H     0.26963   0.40586   0.92528   0.00000  Uiso   1.00
H1281  H     0.21701   0.36324   0.98489   0.00000  Uiso   1.00
H1282  H     0.17758   0.36276   0.95992   0.00000  Uiso   1.00
H1283  H     0.00609   0.50902   0.97922   0.00000  Uiso   1.00
H1284  H     0.31431   0.55558   0.98262   0.00000  Uiso   1.00
H1285  H     0.32560   0.54207   0.52538   0.00000  Uiso   1.00
H1286  H     0.05202   0.50071   0.87600   0.00000  Uiso   1.00
H1287  H     0.02777   0.54318   0.86739   0.00000  Uiso   1.00
H1288  H     0.31797   0.47364   0.78557   0.00000  Uiso   1.00
H1289  H     0.00948   0.52393   0.91477   0.00000  Uiso   1.00
H1290  H     0.22441   0.53632   0.93884   0.00000  Uiso   1.00
H1291  H     0.22073   0.55674   0.89465   0.00000  Uiso   1.00
H1292  H     0.25760   0.51945   0.89091   0.00000  Uiso   1.00
H1293  H     0.05871   0.46232   0.65968   0.00000  Uiso   1.00
H1294  H     0.01007   0.45921   0.64360   0.00000  Uiso   1.00
H1295  H     0.03437   0.41247   0.64230   0.00000  Uiso   1.00
H1296  H     0.05133   0.43473   0.57482   0.00000  Uiso   1.00
H1297  H     0.09914   0.43698   0.59107   0.00000  Uiso   1.00
H1298  H     0.09436   0.51638   0.61106   0.00000  Uiso   1.00
H1299  H     0.12651   0.66590   0.78628   0.00000  Uiso   1.00
H1300  H     0.04765   0.51050   0.59563   0.00000  Uiso   1.00
H1301  H     0.16012   0.51541   0.59580   0.00000  Uiso   1.00
H1302  H     0.24201   0.42633   0.59701   0.00000  Uiso   1.00
H1303  H     0.17506   0.43339   0.93452   0.00000  Uiso   1.00
H1304  H     0.02120   0.38467   0.99538   0.00000  Uiso   1.00
H1305  H     0.02143   0.42849   0.96892   0.00000  Uiso   1.00
O1306  O     0.16667   0.50000   0.75000   0.00000  Uiso   1.00
O1307  O     0.15693   0.45726   0.66625   0.00000  Uiso   1.00
O1308  O     0.12687   0.53979   0.83749   0.00000  Uiso   1.00
O1309  O     0.21088   0.50826   0.65877   0.00000  Uiso   1.00
O1310  O     0.17198   0.49468   0.83749   0.00000  Uiso   1.00
O1311  O     0.21340   0.33971   0.70698   0.00000  Uiso   1.00
O1312  O     0.04476   0.56789   0.98362   0.00000  Uiso   1.00
O1313  O     0.06916   0.56080   0.90252   0.00000  Uiso   1.00
O1314  O     0.19371   0.49492   0.90198   0.00000  Uiso   1.00
O1315  O     0.17849   0.41434   0.77820   0.00000  Uiso   1.00
O1316  O     0.14581   0.59469   0.76767   0.00000  Uiso   1.00
O1317  O     0.07452   0.46584   0.73607   0.00000  Uiso   1.00
O1318  O     0.26785   0.52512   0.71805   0.00000  Uiso   1.00
O1319  O     0.06990   0.52293   0.77820   0.00000  Uiso   1.00
O1320  O     0.25440   0.48610   0.76767   0.00000  Uiso   1.00
O1321  O     0.13800   0.40236   0.73607   0.00000  Uiso   1.00
O1322  O     0.20437   0.58860   0.71805   0.00000  Uiso   1.00
Zn1323 Zn    0.19244   0.47423   0.78277   0.00000  Uiso   1.00
Zn1324 Zn    0.13459   0.45711   0.72257   0.00000  Uiso   1.00
Zn1325 Zn    0.21166   0.52997   0.71188   0.00000  Uiso   1.00
Zn1326 Zn    0.12798   0.53868   0.78277   0.00000  Uiso   1.00
C1327  C     0.38578   0.49309   0.75888   0.00000  Uiso   1.00
C1328  C     0.51031   0.44599   0.96392   0.00000  Uiso   1.00
C1329  C     0.53102   0.42448   0.98327   0.00000  Uiso   1.00
C1330  C     0.61444   0.50683   0.74118   0.00000  Uiso   1.00
C1331  C     0.53431   0.44117   0.52171   0.00000  Uiso   1.00
C1332  C     0.50580   0.47142   0.54314   0.00000  Uiso   1.00
C1333  C     0.56368   0.42874   0.54035   0.00000  Uiso   1.00
C1334  C     0.55711   0.43926   0.58120   0.00000  Uiso   1.00
C1335  C     0.50811   0.48785   0.58125   0.00000  Uiso   1.00
C1336  C     0.66043   0.50930   0.73750   0.00000  Uiso   1.00
C1337  C     0.34041   0.49064   0.76229   0.00000  Uiso   1.00
C1338  C     0.42504   0.54200   0.92181   0.00000  Uiso   1.00
C1339  C     0.51316   0.65518   0.73615   0.00000  Uiso   1.00
C1340  C     0.48532   0.34545   0.76219   0.00000  Uiso   1.00
C1341  C     0.48893   0.38947   0.75927   0.00000  Uiso   1.00
C1342  C     0.50999   0.61095   0.74095   0.00000  Uiso   1.00
C1343  C     0.52140   0.47865   0.64391   0.00000  Uiso   1.00
C1344  C     0.47813   0.52053   0.85659   0.00000  Uiso   1.00
C1345  C     0.46335   0.52392   0.90063   0.00000  Uiso   1.00
C1346  C     0.52986   0.46908   0.60127   0.00000  Uiso   1.00
C1347  C     0.41144   0.54430   0.96333   0.00000  Uiso   1.00
C1348  C     0.60448   0.40862   0.51787   0.00000  Uiso   1.00
C1349  C     0.48636   0.50666   0.92161   0.00000  Uiso   1.00
C1350  C     0.64537   0.43081   0.52902   0.00000  Uiso   1.00
C1351  C     0.35337   0.41893   0.99814   0.00000  Uiso   1.00
C1352  C     0.53590   0.66435   0.67071   0.00000  Uiso   1.00
C1353  C     0.54124   0.38087   0.96460   0.00000  Uiso   1.00
C1354  C     0.57554   0.38127   0.92422   0.00000  Uiso   1.00
C1355  C     0.59302   0.33902   0.91108   0.00000  Uiso   1.00
C1356  C     0.33815   0.54205   0.99280   0.00000  Uiso   1.00
C1357  C     0.37188   0.53048   0.88994   0.00000  Uiso   1.00
C1358  C     0.55839   0.52863   0.90712   0.00000  Uiso   1.00
C1359  C     0.41276   0.49807   0.58881   0.00000  Uiso   1.00
C1360  C     0.46874   0.50288   0.96268   0.00000  Uiso   1.00
C1361  C     0.40244   0.45164   0.59586   0.00000  Uiso   1.00
C1362  C     0.37464   0.44621   0.63802   0.00000  Uiso   1.00
C1363  C     0.43320   0.52467   0.98385   0.00000  Uiso   1.00
C1364  C     0.48710   0.47957   0.98341   0.00000  Uiso   1.00
C1365  C     0.47741   0.48602   0.52514   0.00000  Uiso   1.00
C1366  C     0.43882   0.50483   0.54621   0.00000  Uiso   1.00
C1367  C     0.41878   0.52518   0.52508   0.00000  Uiso   1.00
H1368  H     0.39074   0.54079   0.54118   0.00000  Uiso   1.00
H1369  H     0.38218   0.43511   0.50711   0.00000  Uiso   1.00
H1370  H     0.64533   0.46518   0.53168   0.00000  Uiso   1.00
H1371  H     0.64581   0.42206   0.55804   0.00000  Uiso   1.00
H1372  H     0.60010   0.37533   0.52362   0.00000  Uiso   1.00
H1373  H     0.61071   0.41029   0.98592   0.00000  Uiso   1.00
H1374  H     0.50488   0.34297   0.67259   0.00000  Uiso   1.00
H1375  H     0.53417   0.63034   0.66068   0.00000  Uiso   1.00
H1376  H     0.56167   0.34720   0.64788   0.00000  Uiso   1.00
H1377  H     0.60959   0.66515   0.93233   0.00000  Uiso   1.00
H1378  H     0.56619   0.64729   0.90920   0.00000  Uiso   1.00
H1379  H     0.35022   0.52632   0.71455   0.00000  Uiso   1.00
H1380  H     0.61674   0.33984   0.88146   0.00000  Uiso   1.00
H1381  H     0.56087   0.38833   0.90152   0.00000  Uiso   1.00
H1382  H     0.60297   0.40586   0.92528   0.00000  Uiso   1.00
H1383  H     0.55034   0.36324   0.98489   0.00000  Uiso   1.00
H1384  H     0.51092   0.36276   0.95992   0.00000  Uiso   1.00
H1385  H     0.33942   0.50902   0.97922   0.00000  Uiso   1.00
H1386  H     0.64764   0.55558   0.98262   0.00000  Uiso   1.00
H1387  H     0.65893   0.54207   0.52538   0.00000  Uiso   1.00
H1388  H     0.38535   0.50071   0.87600   0.00000  Uiso   1.00
H1389  H     0.36111   0.54318   0.86739   0.00000  Uiso   1.00
H1390  H     0.65130   0.47364   0.78557   0.00000  Uiso   1.00
H1391  H     0.34281   0.52393   0.91477   0.00000  Uiso   1.00
H1392  H     0.55774   0.53632   0.93884   0.00000  Uiso   1.00
H1393  H     0.55406   0.55674   0.89465   0.00000  Uiso   1.00
H1394  H     0.59094   0.51945   0.89091   0.00000  Uiso   1.00
H1395  H     0.39204   0.46232   0.65968   0.00000  Uiso   1.00
H1396  H     0.34340   0.45921   0.64360   0.00000  Uiso   1.00
H1397  H     0.36771   0.41247   0.64230   0.00000  Uiso   1.00
H1398  H     0.38467   0.43473   0.57482   0.00000  Uiso   1.00
H1399  H     0.43248   0.43698   0.59107   0.00000  Uiso   1.00
H1400  H     0.42770   0.51638   0.61106   0.00000  Uiso   1.00
H1401  H     0.45984   0.66590   0.78628   0.00000  Uiso   1.00
H1402  H     0.38099   0.51050   0.59563   0.00000  Uiso   1.00
H1403  H     0.49346   0.51541   0.59580   0.00000  Uiso   1.00
H1404  H     0.57534   0.42633   0.59701   0.00000  Uiso   1.00
H1405  H     0.50839   0.43339   0.93452   0.00000  Uiso   1.00
H1406  H     0.35453   0.38467   0.99538   0.00000  Uiso   1.00
H1407  H     0.35476   0.42849   0.96892   0.00000  Uiso   1.00
O1408  O     0.50000   0.50000   0.75000   0.00000  Uiso   1.00
O1409  O     0.49027   0.45726   0.66625   0.00000  Uiso   1.00
O1410  O     0.46020   0.53979   0.83749   0.00000  Uiso   1.00
O1411  O     0.54421   0.50826   0.65877   0.00000  Uiso   1.00
O1412  O     0.50532   0.49468   0.83749   0.00000  Uiso   1.00
O1413  O     0.54673   0.33971   0.70698   0.00000  Uiso   1.00
O1414  O     0.37809   0.56789   0.98362   0.00000  Uiso   1.00
O1415  O     0.40249   0.56080   0.90252   0.00000  Uiso   1.00
O1416  O     0.52704   0.49492   0.90198   0.00000  Uiso   1.00
O1417  O     0.51182   0.41434   0.77820   0.00000  Uiso   1.00
O1418  O     0.47914   0.59469   0.76767   0.00000  Uiso   1.00
O1419  O     0.40785   0.46584   0.73607   0.00000  Uiso   1.00
O1420  O     0.60119   0.52512   0.71805   0.00000  Uiso   1.00
O1421  O     0.40323   0.52293   0.77820   0.00000  Uiso   1.00
O1422  O     0.58773   0.48610   0.76767   0.00000  Uiso   1.00
O1423  O     0.47133   0.40236   0.73607   0.00000  Uiso   1.00
O1424  O     0.53771   0.58860   0.71805   0.00000  Uiso   1.00
Zn1425 Zn    0.52577   0.47423   0.78277   0.00000  Uiso   1.00
Zn1426 Zn    0.46792   0.45711   0.72257   0.00000  Uiso   1.00
Zn1427 Zn    0.54500   0.52997   0.71188   0.00000  Uiso   1.00
Zn1428 Zn    0.46131   0.53868   0.78277   0.00000  Uiso   1.00
C1429  C     0.71911   0.49309   0.75888   0.00000  Uiso   1.00
C1430  C     0.84365   0.44599   0.96392   0.00000  Uiso   1.00
C1431  C     0.86435   0.42448   0.98327   0.00000  Uiso   1.00
C1432  C     0.94777   0.50683   0.74118   0.00000  Uiso   1.00
C1433  C     0.86764   0.44117   0.52171   0.00000  Uiso   1.00
C1434  C     0.83913   0.47142   0.54314   0.00000  Uiso   1.00
C1435  C     0.89701   0.42874   0.54035   0.00000  Uiso   1.00
C1436  C     0.89044   0.43926   0.58120   0.00000  Uiso   1.00
C1437  C     0.84144   0.48785   0.58125   0.00000  Uiso   1.00
C1438  C     0.99377   0.50930   0.73750   0.00000  Uiso   1.00
C1439  C     0.67374   0.49064   0.76229   0.00000  Uiso   1.00
C1440  C     0.75837   0.54200   0.92181   0.00000  Uiso   1.00
C1441  C     0.84650   0.65518   0.73615   0.00000  Uiso   1.00
C1442  C     0.81866   0.34545   0.76219   0.00000  Uiso   1.00
C1443  C     0.82226   0.38947   0.75927   0.00000  Uiso   1.00
C1444  C     0.84333   0.61095   0.74095   0.00000  Uiso   1.00
C1445  C     0.85474   0.47865   0.64391   0.00000  Uiso   1.00
C1446  C     0.81146   0.52053   0.85659   0.00000  Uiso   1.00
C1447  C     0.79668   0.52392   0.90063   0.00000  Uiso   1.00
C1448  C     0.86320   0.46908   0.60127   0.00000  Uiso   1.00
C1449  C     0.74477   0.54430   0.96333   0.00000  Uiso   1.00
C1450  C     0.93781   0.40862   0.51787   0.00000  Uiso   1.00
C1451  C     0.81969   0.50666   0.92161   0.00000  Uiso   1.00
C1452  C     0.97871   0.43081   0.52902   0.00000  Uiso   1.00
C1453  C     0.68670   0.41893   0.99814   0.00000  Uiso   1.00
C1454  C     0.86924   0.66435   0.67071   0.00000  Uiso   1.00
C1455  C     0.87458   0.38087   0.96460   0.00000  Uiso   1.00
C1456  C     0.90888   0.38127   0.92422   0.00000  Uiso   1.00
C1457  C     0.92635   0.33902   0.91108   0.00000  Uiso   1.00
C1458  C     0.67148   0.54205   0.99280   0.00000  Uiso   1.00
C1459  C     0.70521   0.53048   0.88994   0.00000  Uiso   1.00
C1460  C     0.89173   0.52863   0.90712   0.00000  Uiso   1.00
C1461  C     0.74609   0.49807   0.58881   0.00000  Uiso   1.00
C1462  C     0.80207   0.50288   0.96268   0.00000  Uiso   1.00
C1463  C     0.73577   0.45164   0.59586   0.00000  Uiso   1.00
C1464  C     0.70798   0.44621   0.63802   0.00000  Uiso   1.00
C1465  C     0.76653   0.52467   0.98385   0.00000  Uiso   1.00
C1466  C     0.82043   0.47957   0.98341   0.00000  Uiso   1.00
C1467  C     0.81074   0.48602   0.52514   0.00000  Uiso   1.00
C1468  C     0.77216   0.50483   0.54621   0.00000  Uiso   1.00
C1469  C     0.75212   0.52518   0.52508   0.00000  Uiso   1.00
H1470  H     0.72408   0.54079   0.54118   0.00000  Uiso   1.00
H1471  H     0.71551   0.43511   0.50711   0.00000  Uiso   1.00
H1472  H     0.97867   0.46518   0.53168   0.00000  Uiso   1.00
H1473  H     0.97914   0.42206   0.55804   0.00000  Uiso   1.00
H1474  H     0.93343   0.37533   0.52362   0.00000  Uiso   1.00
H1475  H     0.94404   0.41029   0.98592   0.00000  Uiso   1.00
H1476  H     0.83822   0.34297   0.67259   0.00000  Uiso   1.00
H1477  H     0.86750   0.63034   0.66068   0.00000  Uiso   1.00
H1478  H     0.89500   0.34720   0.64788   0.00000  Uiso   1.00
H1479  H     0.94293   0.66515   0.93233   0.00000  Uiso   1.00
H1480  H     0.89952   0.64729   0.90920   0.00000  Uiso   1.00
H1481  H     0.68356   0.52632   0.71455   0.00000  Uiso   1.00
H1482  H     0.95007   0.33984   0.88146   0.00000  Uiso   1.00
H1483  H     0.89420   0.38833   0.90152   0.00000  Uiso   1.00
H1484  H     0.93630   0.40586   0.92528   0.00000  Uiso   1.00
H1485  H     0.88367   0.36324   0.98489   0.00000  Uiso   1.00
H1486  H     0.84425   0.36276   0.95992   0.00000  Uiso   1.00
H1487  H     0.67276   0.50902   0.97922   0.00000  Uiso   1.00
H1488  H     0.98097   0.55558   0.98262   0.00000  Uiso   1.00
H1489  H     0.99226   0.54207   0.52538   0.00000  Uiso   1.00
H1490  H     0.71869   0.50071   0.87600   0.00000  Uiso   1.00
H1491  H     0.69444   0.54318   0.86739   0.00000  Uiso   1.00
H1492  H     0.98464   0.47364   0.78557   0.00000  Uiso   1.00
H1493  H     0.67614   0.52393   0.91477   0.00000  Uiso   1.00
H1494  H     0.89107   0.53632   0.93884   0.00000  Uiso   1.00
H1495  H     0.88740   0.55674   0.89465   0.00000  Uiso   1.00
H1496  H     0.92427   0.51945   0.89091   0.00000  Uiso   1.00
H1497  H     0.72538   0.46232   0.65968   0.00000  Uiso   1.00
H1498  H     0.67673   0.45921   0.64360   0.00000  Uiso   1.00
H1499  H     0.70104   0.41247   0.64230   0.00000  Uiso   1.00
H1500  H     0.71800   0.43473   0.57482   0.00000  Uiso   1.00
H1501  H     0.76581   0.43698   0.59107   0.00000  Uiso   1.00
H1502  H     0.76103   0.51638   0.61106   0.00000  Uiso   1.00
H1503  H     0.79318   0.66590   0.78628   0.00000  Uiso   1.00
H1504  H     0.71432   0.51050   0.59563   0.00000  Uiso   1.00
H1505  H     0.82679   0.51541   0.59580   0.00000  Uiso   1.00
H1506  H     0.90867   0.42633   0.59701   0.00000  Uiso   1.00
H1507  H     0.84172   0.43339   0.93452   0.00000  Uiso   1.00
H1508  H     0.68786   0.38467   0.99538   0.00000  Uiso   1.00
H1509  H     0.68810   0.42849   0.96892   0.00000  Uiso   1.00
O1510  O     0.83333   0.50000   0.75000   0.00000  Uiso   1.00
O1511  O     0.82360   0.45726   0.66625   0.00000  Uiso   1.00
O1512  O     0.79354   0.53979   0.83749   0.00000  Uiso   1.00
O1513  O     0.87755   0.50826   0.65877   0.00000  Uiso   1.00
O1514  O     0.83865   0.49468   0.83749   0.00000  Uiso   1.00
O1515  O     0.88007   0.33971   0.70698   0.00000  Uiso   1.00
O1516  O     0.71143   0.56789   0.98362   0.00000  Uiso   1.00
O1517  O     0.73583   0.56080   0.90252   0.00000  Uiso   1.00
O1518  O     0.86038   0.49492   0.90198   0.00000  Uiso   1.00
O1519  O     0.84515   0.41434   0.77820   0.00000  Uiso   1.00
O1520  O     0.81247   0.59469   0.76767   0.00000  Uiso   1.00
O1521  O     0.74119   0.46584   0.73607   0.00000  Uiso   1.00
O1522  O     0.93452   0.52512   0.71805   0.00000  Uiso   1.00
O1523  O     0.73656   0.52293   0.77820   0.00000  Uiso   1.00
O1524  O     0.92106   0.48610   0.76767   0.00000  Uiso   1.00
O1525  O     0.80467   0.40236   0.73607   0.00000  Uiso   1.00
O1526  O     0.87104   0.58860   0.71805   0.00000  Uiso   1.00
Zn1527 Zn    0.85910   0.47423   0.78277   0.00000  Uiso   1.00
Zn1528 Zn    0.80125   0.45711   0.72257   0.00000  Uiso   1.00
Zn1529 Zn    0.87833   0.52997   0.71188   0.00000  Uiso   1.00
Zn1530 Zn    0.79465   0.53868   0.78277   0.00000  Uiso   1.00
C1531  C     0.05245   0.82642   0.75888   0.00000  Uiso   1.00
C1532  C     0.17698   0.77932   0.96392   0.00000  Uiso   1.00
C1533  C     0.19768   0.75782   0.98327   0.00000  Uiso   1.00
C1534  C     0.28111   0.84016   0.74118   0.00000  Uiso   1.00
C1535  C     0.20098   0.77450   0.52171   0.00000  Uiso   1.00
C1536  C     0.17247   0.80475   0.54314   0.00000  Uiso   1.00
C1537  C     0.23035   0.76208   0.54035   0.00000  Uiso   1.00
C1538  C     0.22378   0.77259   0.58120   0.00000  Uiso   1.00
C1539  C     0.17477   0.82118   0.58125   0.00000  Uiso   1.00
C1540  C     0.32710   0.84263   0.73750   0.00000  Uiso   1.00
C1541  C     0.00707   0.82398   0.76229   0.00000  Uiso   1.00
C1542  C     0.09170   0.87533   0.92181   0.00000  Uiso   1.00
C1543  C     0.17983   0.98852   0.73615   0.00000  Uiso   1.00
C1544  C     0.15199   0.67878   0.76219   0.00000  Uiso   1.00
C1545  C     0.15559   0.72280   0.75927   0.00000  Uiso   1.00
C1546  C     0.17666   0.94429   0.74095   0.00000  Uiso   1.00
C1547  C     0.18807   0.81198   0.64391   0.00000  Uiso   1.00
C1548  C     0.14479   0.85386   0.85659   0.00000  Uiso   1.00
C1549  C     0.13002   0.85726   0.90063   0.00000  Uiso   1.00
C1550  C     0.19653   0.80241   0.60127   0.00000  Uiso   1.00
C1551  C     0.07811   0.87763   0.96333   0.00000  Uiso   1.00
C1552  C     0.27115   0.74196   0.51787   0.00000  Uiso   1.00
C1553  C     0.15303   0.83999   0.92161   0.00000  Uiso   1.00
C1554  C     0.31204   0.76415   0.52902   0.00000  Uiso   1.00
C1555  C     0.02003   0.75226   0.99814   0.00000  Uiso   1.00
C1556  C     0.20257   0.99768   0.67071   0.00000  Uiso   1.00
C1557  C     0.20791   0.71421   0.96460   0.00000  Uiso   1.00
C1558  C     0.24221   0.71461   0.92422   0.00000  Uiso   1.00
C1559  C     0.25969   0.67235   0.91108   0.00000  Uiso   1.00
C1560  C     0.00482   0.87538   0.99280   0.00000  Uiso   1.00
C1561  C     0.03854   0.86382   0.88994   0.00000  Uiso   1.00
C1562  C     0.22506   0.86196   0.90712   0.00000  Uiso   1.00
C1563  C     0.07943   0.83140   0.58881   0.00000  Uiso   1.00
C1564  C     0.13540   0.83621   0.96268   0.00000  Uiso   1.00
C1565  C     0.06911   0.78498   0.59586   0.00000  Uiso   1.00
C1566  C     0.04131   0.77954   0.63802   0.00000  Uiso   1.00
C1567  C     0.09987   0.85801   0.98385   0.00000  Uiso   1.00
C1568  C     0.15376   0.81290   0.98341   0.00000  Uiso   1.00
C1569  C     0.14407   0.81935   0.52514   0.00000  Uiso   1.00
C1570  C     0.10549   0.83817   0.54621   0.00000  Uiso   1.00
C1571  C     0.08545   0.85851   0.52508   0.00000  Uiso   1.00
H1572  H     0.05741   0.87412   0.54118   0.00000  Uiso   1.00
H1573  H     0.04884   0.76844   0.50711   0.00000  Uiso   1.00
H1574  H     0.31200   0.79852   0.53168   0.00000  Uiso   1.00
H1575  H     0.31248   0.75540   0.55804   0.00000  Uiso   1.00
H1576  H     0.26677   0.70867   0.52362   0.00000  Uiso   1.00
H1577  H     0.27737   0.74362   0.98592   0.00000  Uiso   1.00
H1578  H     0.17155   0.67631   0.67259   0.00000  Uiso   1.00
H1579  H     0.20084   0.96367   0.66068   0.00000  Uiso   1.00
H1580  H     0.22833   0.68054   0.64788   0.00000  Uiso   1.00
H1581  H     0.27626   0.99849   0.93233   0.00000  Uiso   1.00
H1582  H     0.23285   0.98062   0.90920   0.00000  Uiso   1.00
H1583  H     0.01689   0.85965   0.71455   0.00000  Uiso   1.00
H1584  H     0.28340   0.67317   0.88146   0.00000  Uiso   1.00
H1585  H     0.22753   0.72166   0.90152   0.00000  Uiso   1.00
H1586  H     0.26963   0.73919   0.92528   0.00000  Uiso   1.00
H1587  H     0.21701   0.69657   0.98489   0.00000  Uiso   1.00
H1588  H     0.17758   0.69609   0.95992   0.00000  Uiso   1.00
H1589  H     0.00609   0.84235   0.97922   0.00000  Uiso   1.00
H1590  H     0.31431   0.88891   0.98262   0.00000  Uiso   1.00
H1591  H     0.32560   0.87541   0.52538   0.00000  Uiso   1.00
H1592  H     0.05202   0.83404   0.87600   0.00000  Uiso   1.00
H1593  H     0.02777   0.87651   0.86739   0.00000  Uiso   1.00
H1594  H     0.31797   0.80697   0.78557   0.00000  Uiso   1.00
H1595  H     0.00948   0.85726   0.91477   0.00000  Uiso   1.00
H1596  H     0.22441   0.86965   0.93884   0.00000  Uiso   1.00
H1597  H     0.22073   0.89007   0.89465   0.00000  Uiso   1.00
H1598  H     0.25760   0.85278   0.89091   0.00000  Uiso   1.00
H1599  H     0.05871   0.79566   0.65968   0.00000  Uiso   1.00
H1600  H     0.01007   0.79254   0.64360   0.00000  Uiso   1.00
H1601  H     0.03437   0.74580   0.64230   0.00000  Uiso   1.00
H1602  H     0.05133   0.76806   0.57482   0.00000  Uiso   1.00
H1603  H     0.09914   0.77031   0.59107   0.00000  Uiso   1.00
H1604  H     0.09436   0.84972   0.61106   0.00000  Uiso   1.00
H1605  H     0.12651   0.99923   0.78628   0.00000  Uiso   1.00
H1606  H     0.04765   0.84383   0.59563   0.00000  Uiso   1.00
H1607  H     0.16012   0.84875   0.59580   0.00000  Uiso   1.00
H1608  H     0.24201   0.75967   0.59701   0.00000  Uiso   1.00
H1609  H     0.17506   0.76673   0.93452   0.00000  Uiso   1.00
H1610  H     0.02120   0.71800   0.99538   0.00000  Uiso   1.00
H1611  H     0.02143   0.76183   0.96892   0.00000  Uiso   1.00
O1612  O     0.16667   0.83333   0.75000   0.00000  Uiso   1.00
O1613  O     0.15693   0.79060   0.66625   0.00000  Uiso   1.00
O1614  O     0.12687   0.87313   0.83749   0.00000  Uiso   1.00
O1615  O     0.21088   0.84159   0.65877   0.00000  Uiso   1.00
O1616  O     0.17198   0.82802   0.83749   0.00000  Uiso   1.00
O1617  O     0.21340   0.67304   0.70698   0.00000  Uiso   1.00
O1618  O     0.04476   0.90123   0.98362   0.00000  Uiso   1.00
O1619  O     0.06916   0.89413   0.90252   0.00000  Uiso   1.00
O1620  O     0.19371   0.82826   0.90198   0.00000  Uiso   1.00
O1621  O     0.17849   0.74768   0.77820   0.00000  Uiso   1.00
O1622  O     0.14581   0.92803   0.76767   0.00000  Uiso   1.00
O1623  O     0.07452   0.79917   0.73607   0.00000  Uiso   1.00
O1624  O     0.26785   0.85845   0.71805   0.00000  Uiso   1.00
O1625  O     0.06990   0.85627   0.77820   0.00000  Uiso   1.00
O1626  O     0.25440   0.81944   0.76767   0.00000  Uiso   1.00
O1627  O     0.13800   0.73570   0.73607   0.00000  Uiso   1.00
O1628  O     0.20437   0.92193   0.71805   0.00000  Uiso   1.00
Zn1629 Zn    0.19244   0.80756   0.78277   0.00000  Uiso   1.00
Zn1630 Zn    0.13459   0.79044   0.72257   0.00000  Uiso   1.00
Zn1631 Zn    0.21166   0.86331   0.71188   0.00000  Uiso   1.00
Zn1632 Zn    0.12798   0.87202   0.78277   0.00000  Uiso   1.00
C1633  C     0.38578   0.82642   0.75888   0.00000  Uiso   1.00
C1634  C     0.51031   0.77932   0.96392   0.00000  Uiso   1.00
C1635  C     0.53102   0.75782   0.98327   0.00000  Uiso   1.00
C1636  C     0.61444   0.84016   0.74118   0.00000  Uiso   1.00
C1637  C     0.53431   0.77450   0.52171   0.00000  Uiso   1.00
C1638  C     0.50580   0.80475   0.54314   0.00000  Uiso   1.00
C1639  C     0.56368   0.76208   0.54035   0.00000  Uiso   1.00
C1640  C     0.55711   0.77259   0.58120   0.00000  Uiso   1.00
C1641  C     0.50811   0.82118   0.58125   0.00000  Uiso   1.00
C1642  C     0.66043   0.84263   0.73750   0.00000  Uiso   1.00
C1643  C     0.34041   0.82398   0.76229   0.00000  Uiso   1.00
C1644  C     0.42504   0.87533   0.92181   0.00000  Uiso   1.00
C1645  C     0.51316   0.98852   0.73615   0.00000  Uiso   1.00
C1646  C     0.48532   0.67878   0.76219   0.00000  Uiso   1.00
C1647  C     0.48893   0.72280   0.75927   0.00000  Uiso   1.00
C1648  C     0.50999   0.94429   0.74095   0.00000  Uiso   1.00
C1649  C     0.52140   0.81198   0.64391   0.00000  Uiso   1.00
C1650  C     0.47813   0.85386   0.85659   0.00000  Uiso   1.00
C1651  C     0.46335   0.85726   0.90063   0.00000  Uiso   1.00
C1652  C     0.52986   0.80241   0.60127   0.00000  Uiso   1.00
C1653  C     0.41144   0.87763   0.96333   0.00000  Uiso   1.00
C1654  C     0.60448   0.74196   0.51787   0.00000  Uiso   1.00
C1655  C     0.48636   0.83999   0.92161   0.00000  Uiso   1.00
C1656  C     0.64537   0.76415   0.52902   0.00000  Uiso   1.00
C1657  C     0.35337   0.75226   0.99814   0.00000  Uiso   1.00
C1658  C     0.53590   0.99768   0.67071   0.00000  Uiso   1.00
C1659  C     0.54124   0.71421   0.96460   0.00000  Uiso   1.00
C1660  C     0.57554   0.71461   0.92422   0.00000  Uiso   1.00
C1661  C     0.59302   0.67235   0.91108   0.00000  Uiso   1.00
C1662  C     0.33815   0.87538   0.99280   0.00000  Uiso   1.00
C1663  C     0.37188   0.86382   0.88994   0.00000  Uiso   1.00
C1664  C     0.55839   0.86196   0.90712   0.00000  Uiso   1.00
C1665  C     0.41276   0.83140   0.58881   0.00000  Uiso   1.00
C1666  C     0.46874   0.83621   0.96268   0.00000  Uiso   1.00
C1667  C     0.40244   0.78498   0.59586   0.00000  Uiso   1.00
C1668  C     0.37464   0.77954   0.63802   0.00000  Uiso   1.00
C1669  C     0.43320   0.85801   0.98385   0.00000  Uiso   1.00
C1670  C     0.48710   0.81290   0.98341   0.00000  Uiso   1.00
C1671  C     0.47741   0.81935   0.52514   0.00000  Uiso   1.00
C1672  C     0.43882   0.83817   0.54621   0.00000  Uiso   1.00
C1673  C     0.41878   0.85851   0.52508   0.00000  Uiso   1.00
H1674  H     0.39074   0.87412   0.54118   0.00000  Uiso   1.00
H1675  H     0.38218   0.76844   0.50711   0.00000  Uiso   1.00
H1676  H     0.64533   0.79852   0.53168   0.00000  Uiso   1.00
H1677  H     0.64581   0.75540   0.55804   0.00000  Uiso   1.00
H1678  H     0.60010   0.70867   0.52362   0.00000  Uiso   1.00
H1679  H     0.61071   0.74362   0.98592   0.00000  Uiso   1.00
H1680  H     0.50488   0.67631   0.67259   0.00000  Uiso   1.00
H1681  H     0.53417   0.96367   0.66068   0.00000  Uiso   1.00
H1682  H     0.56167   0.68054   0.64788   0.00000  Uiso   1.00
H1683  H     0.60959   0.99849   0.93233   0.00000  Uiso   1.00
H1684  H     0.56619   0.98062   0.90920   0.00000  Uiso   1.00
H1685  H     0.35022   0.85965   0.71455   0.00000  Uiso   1.00
H1686  H     0.61674   0.67317   0.88146   0.00000  Uiso   1.00
H1687  H     0.56087   0.72166   0.90152   0.00000  Uiso   1.00
H1688  H     0.60297   0.73919   0.92528   0.00000  Uiso   1.00
H1689  H     0.55034   0.69657   0.98489   0.00000  Uiso   1.00
H1690  H     0.51092   0.69609   0.95992   0.00000  Uiso   1.00
H1691  H     0.33942   0.84235   0.97922   0.00000  Uiso   1.00
H1692  H     0.64764   0.88891   0.98262   0.00000  Uiso   1.00
H1693  H     0.65893   0.87541   0.52538   0.00000  Uiso   1.00
H1694  H     0.38535   0.83404   0.87600   0.00000  Uiso   1.00
H1695  H     0.36111   0.87651   0.86739   0.00000  Uiso   1.00
H1696  H     0.65130   0.80697   0.78557   0.00000  Uiso   1.00
H1697  H     0.34281   0.85726   0.91477   0.00000  Uiso   1.00
H1698  H     0.55774   0.86965   0.93884   0.00000  Uiso   1.00
H1699  H     0.55406   0.89007   0.89465   0.00000  Uiso   1.00
H1700  H     0.59094   0.85278   0.89091   0.00000  Uiso   1.00
H1701  H     0.39204   0.79566   0.65968   0.00000  Uiso   1.00
H1702  H     0.34340   0.79254   0.64360   0.00000  Uiso   1.00
H1703  H     0.36771   0.74580   0.64230   0.00000  Uiso   1.00
H1704  H     0.38467   0.76806   0.57482   0.00000  Uiso   1.00
H1705  H     0.43248   0.77031   0.59107   0.00000  Uiso   1.00
H1706  H     0.42770   0.84972   0.61106   0.00000  Uiso   1.00
H1707  H     0.45984   0.99923   0.78628   0.00000  Uiso   1.00
H1708  H     0.38099   0.84383   0.59563   0.00000  Uiso   1.00
H1709  H     0.49346   0.84875   0.59580   0.00000  Uiso   1.00
H1710  H     0.57534   0.75967   0.59701   0.00000  Uiso   1.00
H1711  H     0.50839   0.76673   0.93452   0.00000  Uiso   1.00
H1712  H     0.35453   0.71800   0.99538   0.00000  Uiso   1.00
H1713  H     0.35476   0.76183   0.96892   0.00000  Uiso   1.00
O1714  O     0.50000   0.83333   0.75000   0.00000  Uiso   1.00
O1715  O     0.49027   0.79060   0.66625   0.00000  Uiso   1.00
O1716  O     0.46020   0.87313   0.83749   0.00000  Uiso   1.00
O1717  O     0.54421   0.84159   0.65877   0.00000  Uiso   1.00
O1718  O     0.50532   0.82802   0.83749   0.00000  Uiso   1.00
O1719  O     0.54673   0.67304   0.70698   0.00000  Uiso   1.00
O1720  O     0.37809   0.90123   0.98362   0.00000  Uiso   1.00
O1721  O     0.40249   0.89413   0.90252   0.00000  Uiso   1.00
O1722  O     0.52704   0.82826   0.90198   0.00000  Uiso   1.00
O1723  O     0.51182   0.74768   0.77820   0.00000  Uiso   1.00
O1724  O     0.47914   0.92803   0.76767   0.00000  Uiso   1.00
O1725  O     0.40785   0.79917   0.73607   0.00000  Uiso   1.00
O1726  O     0.60119   0.85845   0.71805   0.00000  Uiso   1.00
O1727  O     0.40323   0.85627   0.77820   0.00000  Uiso   1.00
O1728  O     0.58773   0.81944   0.76767   0.00000  Uiso   1.00
O1729  O     0.47133   0.73570   0.73607   0.00000  Uiso   1.00
O1730  O     0.53771   0.92193   0.71805   0.00000  Uiso   1.00
Zn1731 Zn    0.52577   0.80756   0.78277   0.00000  Uiso   1.00
Zn1732 Zn    0.46792   0.79044   0.72257   0.00000  Uiso   1.00
Zn1733 Zn    0.54500   0.86331   0.71188   0.00000  Uiso   1.00
Zn1734 Zn    0.46131   0.87202   0.78277   0.00000  Uiso   1.00
C1735  C     0.71911   0.82642   0.75888   0.00000  Uiso   1.00
C1736  C     0.84365   0.77932   0.96392   0.00000  Uiso   1.00
C1737  C     0.86435   0.75782   0.98327   0.00000  Uiso   1.00
C1738  C     0.94777   0.84016   0.74118   0.00000  Uiso   1.00
C1739  C     0.86764   0.77450   0.52171   0.00000  Uiso   1.00
C1740  C     0.83913   0.80475   0.54314   0.00000  Uiso   1.00
C1741  C     0.89701   0.76208   0.54035   0.00000  Uiso   1.00
C1742  C     0.89044   0.77259   0.58120   0.00000  Uiso   1.00
C1743  C     0.84144   0.82118   0.58125   0.00000  Uiso   1.00
C1744  C     0.99377   0.84263   0.73750   0.00000  Uiso   1.00
C1745  C     0.67374   0.82398   0.76229   0.00000  Uiso   1.00
C1746  C     0.75837   0.87533   0.92181   0.00000  Uiso   1.00
C1747  C     0.84650   0.98852   0.73615   0.00000  Uiso   1.00
C1748  C     0.81866   0.67878   0.76219   0.00000  Uiso   1.00
C1749  C     0.82226   0.72280   0.75927   0.00000  Uiso   1.00
C1750  C     0.84333   0.94429   0.74095   0.00000  Uiso   1.00
C1751  C     0.85474   0.81198   0.64391   0.00000  Uiso   1.00
C1752  C     0.81146   0.85386   0.85659   0.00000  Uiso   1.00
C1753  C     0.79668   0.85726   0.90063   0.00000  Uiso   1.00
C1754  C     0.86320   0.80241   0.60127   0.00000  Uiso   1.00
C1755  C     0.74477   0.87763   0.96333   0.00000  Uiso   1.00
C1756  C     0.93781   0.74196   0.51787   0.00000  Uiso   1.00
C1757  C     0.81969   0.83999   0.92161   0.00000  Uiso   1.00
C1758  C     0.97871   0.76415   0.52902   0.00000  Uiso   1.00
C1759  C     0.68670   0.75226   0.99814   0.00000  Uiso   1.00
C1760  C     0.86924   0.99768   0.67071   0.00000  Uiso   1.00
C1761  C     0.87458   0.71421   0.96460   0.00000  Uiso   1.00
C1762  C     0.90888   0.71461   0.92422   0.00000  Uiso   1.00
C1763  C     0.92635   0.67235   0.91108   0.00000  Uiso   1.00
C1764  C     0.67148   0.87538   0.99280   0.00000  Uiso   1.00
C1765  C     0.70521   0.86382   0.88994   0.00000  Uiso   1.00
C1766  C     0.89173   0.86196   0.90712   0.00000  Uiso   1.00
C1767  C     0.74609   0.83140   0.58881   0.00000  Uiso   1.00
C1768  C     0.80207   0.83621   0.96268   0.00000  Uiso   1.00
C1769  C     0.73577   0.78498   0.59586   0.00000  Uiso   1.00
C1770  C     0.70798   0.77954   0.63802   0.00000  Uiso   1.00
C1771  C     0.76653   0.85801   0.98385   0.00000  Uiso   1.00
C1772  C     0.82043   0.81290   0.98341   0.00000  Uiso   1.00
C1773  C     0.81074   0.81935   0.52514   0.00000  Uiso   1.00
C1774  C     0.77216   0.83817   0.54621   0.00000  Uiso   1.00
C1775  C     0.75212   0.85851   0.52508   0.00000  Uiso   1.00
H1776  H     0.72408   0.87412   0.54118   0.00000  Uiso   1.00
H1777  H     0.71551   0.76844   0.50711   0.00000  Uiso   1.00
H1778  H     0.97867   0.79852   0.53168   0.00000  Uiso   1.00
H1779  H     0.97914   0.75540   0.55804   0.00000  Uiso   1.00
H1780  H     0.93343   0.70867   0.52362   0.00000  Uiso   1.00
H1781  H     0.94404   0.74362   0.98592   0.00000  Uiso   1.00
H1782  H     0.83822   0.67631   0.67259   0.00000  Uiso   1.00
H1783  H     0.86750   0.96367   0.66068   0.00000  Uiso   1.00
H1784  H     0.89500   0.68054   0.64788   0.00000  Uiso   1.00
H1785  H     0.94293   0.99849   0.93233   0.00000  Uiso   1.00
H1786  H     0.89952   0.98062   0.90920   0.00000  Uiso   1.00
H1787  H     0.68356   0.85965   0.71455   0.00000  Uiso   1.00
H1788  H     0.95007   0.67317   0.88146   0.00000  Uiso   1.00
H1789  H     0.89420   0.72166   0.90152   0.00000  Uiso   1.00
H1790  H     0.93630   0.73919   0.92528   0.00000  Uiso   1.00
H1791  H     0.88367   0.69657   0.98489   0.00000  Uiso   1.00
H1792  H     0.84425   0.69609   0.95992   0.00000  Uiso   1.00
H1793  H     0.67276   0.84235   0.97922   0.00000  Uiso   1.00
H1794  H     0.98097   0.88891   0.98262   0.00000  Uiso   1.00
H1795  H     0.99226   0.87541   0.52538   0.00000  Uiso   1.00
H1796  H     0.71869   0.83404   0.87600   0.00000  Uiso   1.00
H1797  H     0.69444   0.87651   0.86739   0.00000  Uiso   1.00
H1798  H     0.98464   0.80697   0.78557   0.00000  Uiso   1.00
H1799  H     0.67614   0.85726   0.91477   0.00000  Uiso   1.00
H1800  H     0.89107   0.86965   0.93884   0.00000  Uiso   1.00
H1801  H     0.88740   0.89007   0.89465   0.00000  Uiso   1.00
H1802  H     0.92427   0.85278   0.89091   0.00000  Uiso   1.00
H1803  H     0.72538   0.79566   0.65968   0.00000  Uiso   1.00
H1804  H     0.67673   0.79254   0.64360   0.00000  Uiso   1.00
H1805  H     0.70104   0.74580   0.64230   0.00000  Uiso   1.00
H1806  H     0.71800   0.76806   0.57482   0.00000  Uiso   1.00
H1807  H     0.76581   0.77031   0.59107   0.00000  Uiso   1.00
H1808  H     0.76103   0.84972   0.61106   0.00000  Uiso   1.00
H1809  H     0.79318   0.99923   0.78628   0.00000  Uiso   1.00
H1810  H     0.71432   0.84383   0.59563   0.00000  Uiso   1.00
H1811  H     0.82679   0.84875   0.59580   0.00000  Uiso   1.00
H1812  H     0.90867   0.75967   0.59701   0.00000  Uiso   1.00
H1813  H     0.84172   0.76673   0.93452   0.00000  Uiso   1.00
H1814  H     0.68786   0.71800   0.99538   0.00000  Uiso   1.00
H1815  H     0.68810   0.76183   0.96892   0.00000  Uiso   1.00
O1816  O     0.83333   0.83333   0.75000   0.00000  Uiso   1.00
O1817  O     0.82360   0.79060   0.66625   0.00000  Uiso   1.00
O1818  O     0.79354   0.87313   0.83749   0.00000  Uiso   1.00
O1819  O     0.87755   0.84159   0.65877   0.00000  Uiso   1.00
O1820  O     0.83865   0.82802   0.83749   0.00000  Uiso   1.00
O1821  O     0.88007   0.67304   0.70698   0.00000  Uiso   1.00
O1822  O     0.71143   0.90123   0.98362   0.00000  Uiso   1.00
O1823  O     0.73583   0.89413   0.90252   0.00000  Uiso   1.00
O1824  O     0.86038   0.82826   0.90198   0.00000  Uiso   1.00
O1825  O     0.84515   0.74768   0.77820   0.00000  Uiso   1.00
O1826  O     0.81247   0.92803   0.76767   0.00000  Uiso   1.00
O1827  O     0.74119   0.79917   0.73607   0.00000  Uiso   1.00
O1828  O     0.93452   0.85845   0.71805   0.00000  Uiso   1.00
O1829  O     0.73656   0.85627   0.77820   0.00000  Uiso   1.00
O1830  O     0.92106   0.81944   0.76767   0.00000  Uiso   1.00
O1831  O     0.80467   0.73570   0.73607   0.00000  Uiso   1.00
O1832  O     0.87104   0.92193   0.71805   0.00000  Uiso   1.00
Zn1833 Zn    0.85910   0.80756   0.78277   0.00000  Uiso   1.00
Zn1834 Zn    0.80125   0.79044   0.72257   0.00000  Uiso   1.00
Zn1835 Zn    0.87833   0.86331   0.71188   0.00000  Uiso   1.00
Zn1836 Zn    0.79465   0.87202   0.78277   0.00000  Uiso   1.00
loop_
_geom_bond_atom_site_label_1
_geom_bond_atom_site_label_2
_geom_bond_distance
_geom_bond_site_symmetry_2
_ccdc_geom_bond_type
C1     C11     1.433   .     S
C1     O95     1.268   .     A
C1     O93     1.268   .     A
C2     H79     1.082   .     S
C2     C38     1.404   .     A
C2     C3      1.398   .     A
C3     C27     1.521   .     S
C3     C923    1.423   .     S
C4     O96     1.274   .     A
C4     O94     1.277   .     A
C4     C10     1.451   .     S
C5     C6      1.435   .     A
C5     C7      1.436   .     A
C5     C921    1.423   1_554 S
C6     C9      1.401   .     A
C6     C39     1.428   .     A
C7     C8      1.403   .     A
C7     C22     1.523   .     S
C8     H78     1.083   .     S
C8     C20     1.389   .     A
C9     C20     1.384   .     A
C9     H77     1.074   .     S
C10    C113    1.333   .     S
C10    H155    1.088   .     S
C11    C214    1.333   1_455 S
C11    H268    1.086   1_455 S
C12    O89     1.385   .     S
C12    C21     1.406   .     A
C12    C19     1.418   .     A
C13    C16     1.458   .     S
C13    C320    1.336   .     S
C13    O393    1.388   .     S
C14    C15     1.436   .     S
C14    C625    1.336   1_545 S
C14    H687    1.086   1_545 S
C15    O97     1.273   .     A
C15    O91     1.271   .     A
C16    O92     1.272   .     A
C16    O98     1.267   .     A
C17    O85     1.275   .     A
C17    C20     1.454   .     S
C17    O83     1.272   .     A
C18    O86     1.289   .     A
C18    C19     1.490   .     S
C18    O84     1.283   .     A
C19    C23     1.411   .     A
C21    O88     1.386   .     S
C21    C37     1.414   .     A
C22    H46     1.111   .     S
C22    C24     1.542   .     S
C22    H965    1.100   1_554 S
C23    C34     1.419   .     A
C23    O90     1.385   .     S
C24    H45     1.111   .     S
C24    H44     1.109   .     S
C24    C1045   1.529   1_554 S
C25    H81     1.111   .     S
C25    H80     1.111   .     S
C25    C1146   1.529   1_455 S
C25    H961    1.109   .     S
C26    H49     1.112   .     S
C26    H354    1.114   .     S
C26    H356    1.109   .     S
C26    O393    1.410   .     S
C27    H57     1.106   .     S
C27    H58     1.112   .     S
C27    C28     1.540   .     S
C28    H56     1.110   .     S
C28    C29     1.526   .     S
C28    H55     1.111   .     S
C29    H54     1.110   .     S
C29    H663    1.111   1_545 S
C29    H664    1.111   1_545 S
C30    H59     1.116   .     S
C30    O88     1.415   .     S
C30    H264    1.109   1_455 S
C30    H1183   1.109   1_455 S
C31    O89     1.414   .     S
C31    H62     1.114   .     S
C31    H63     1.109   .     S
C31    H65     1.107   .     S
C32    O90     1.411   .     S
C32    H68     1.109   .     S
C32    H67     1.113   .     S
C32    H66     1.113   .     S
C33    C40     1.533   .     S
C33    H76     1.113   .     S
C33    C35     1.538   .     S
C33    H74     1.103   .     S
C34    C37     1.411   .     A
C34    C38     1.420   .     A
C35    C36     1.527   .     S
C35    H72     1.110   .     S
C35    H73     1.108   .     S
C36    H71     1.110   .     S
C36    H70     1.111   .     S
C36    H69     1.111   .     S
C37    C959    1.400   .     S
C38    C957    1.414   .     S
C39    C40     1.436   .     A
C39    C956    1.414   1_554 S
C40    C41     1.405   .     A
C41    H42     1.081   .     S
C41    C955    1.400   1_554 S
H43    C943    1.109   1_554 S
H47    C940    1.100   .     S
H48    C638    1.114   1_545 S
H50    C638    1.109   1_545 S
H51    C335    1.111   .     S
H52    C335    1.111   .     S
H53    C214    1.088   1_455 S
H60    C132    1.109   .     S
H61    C1050   1.109   1_554 S
H64    C113    1.086   .     S
H75    C320    1.086   .     S
O82    Zn99    1.949   .     S
O82    Zn102   1.931   .     S
O82    Zn100   1.936   .     S
O82    Zn101   1.929   .     S
O83    Zn100   1.920   .     S
O84    Zn102   1.927   .     S
O85    Zn101   1.924   .     S
O86    Zn99    1.918   .     S
O87    C625    1.388   1_545 S
O87    C638    1.410   1_545 S
O91    Zn99    1.929   .     S
O92    Zn102   1.930   .     S
O93    Zn100   1.923   .     S
O94    Zn101   1.930   .     S
O95    Zn102   1.925   .     S
O96    Zn99    1.920   .     S
O97    Zn100   1.935   .     S
O98    Zn101   1.932   .     S
C103   C113    1.433   .     S
C103   O197    1.268   .     A
C103   O195    1.268   .     A
C104   H181    1.082   .     S
C104   C140    1.404   .     A
C104   C105    1.398   .     A
C105   C129    1.521   .     S
C105   C1025   1.423   .     S
C106   O198    1.274   .     A
C106   O196    1.277   .     A
C106   C112    1.451   .     S
C107   C108    1.435   .     A
C107   C109    1.436   .     A
C107   C1023   1.423   1_554 S
C108   C111    1.401   .     A
C108   C141    1.428   .     A
C109   C110    1.403   .     A
C109   C124    1.523   .     S
C110   H180    1.083   .     S
C110   C122    1.389   .     A
C111   C122    1.384   .     A
C111   H179    1.074   .     S
C112   C215    1.333   .     S
C112   H257    1.088   .     S
C114   O191    1.385   .     S
C114   C123    1.406   .     A
C114   C121    1.418   .     A
C115   C118    1.458   .     S
C115   C422    1.336   .     S
C115   O495    1.388   .     S
C116   C117    1.436   .     S
C116   C727    1.336   1_545 S
C116   H789    1.086   1_545 S
C117   O199    1.273   .     A
C117   O193    1.271   .     A
C118   O194    1.272   .     A
C118   O200    1.267   .     A
C119   O187    1.275   .     A
C119   C122    1.454   .     S
C119   O185    1.272   .     A
C120   O188    1.289   .     A
C120   C121    1.490   .     S
C120   O186    1.283   .     A
C121   C125    1.411   .     A
C123   O190    1.386   .     S
C123   C139    1.414   .     A
C124   H148    1.111   .     S
C124   C126    1.542   .     S
C124   H1067   1.100   1_554 S
C125   C136    1.419   .     A
C125   O192    1.385   .     S
C126   H147    1.111   .     S
C126   H146    1.109   .     S
C126   C1147   1.529   1_554 S
C127   H183    1.111   .     S
C127   H182    1.111   .     S
C127   C942    1.529   .     S
C127   H1063   1.109   .     S
C128   H151    1.112   .     S
C128   H456    1.114   .     S
C128   H458    1.109   .     S
C128   O495    1.410   .     S
C129   H159    1.106   .     S
C129   H160    1.112   .     S
C129   C130    1.540   .     S
C130   H158    1.110   .     S
C130   C131    1.526   .     S
C130   H157    1.111   .     S
C131   H156    1.110   .     S
C131   H765    1.111   1_545 S
C131   H766    1.111   1_545 S
C132   H161    1.116   .     S
C132   O190    1.415   .     S
C132   H979    1.109   .     S
C133   O191    1.414   .     S
C133   H164    1.114   .     S
C133   H165    1.109   .     S
C133   H167    1.107   .     S
C134   O192    1.411   .     S
C134   H170    1.109   .     S
C134   H169    1.113   .     S
C134   H168    1.113   .     S
C135   C142    1.533   .     S
C135   H178    1.113   .     S
C135   C137    1.538   .     S
C135   H176    1.103   .     S
C136   C139    1.411   .     A
C136   C140    1.420   .     A
C137   C138    1.527   .     S
C137   H174    1.110   .     S
C137   H175    1.108   .     S
C138   H173    1.110   .     S
C138   H172    1.111   .     S
C138   H171    1.111   .     S
C139   C1061   1.400   .     S
C140   C1059   1.414   .     S
C141   C142    1.436   .     A
C141   C1058   1.414   1_554 S
C142   C143    1.405   .     A
C143   H144    1.081   .     S
C143   C1057   1.400   1_554 S
H145   C1045   1.109   1_554 S
H149   C1042   1.100   .     S
H150   C740    1.114   1_545 S
H152   C740    1.109   1_545 S
H153   C437    1.111   .     S
H154   C437    1.111   .     S
H162   C234    1.109   .     S
H163   C1152   1.109   1_554 S
H166   C215    1.086   .     S
H177   C422    1.086   .     S
O184   Zn201   1.949   .     S
O184   Zn204   1.931   .     S
O184   Zn202   1.936   .     S
O184   Zn203   1.929   .     S
O185   Zn202   1.920   .     S
O186   Zn204   1.927   .     S
O187   Zn203   1.924   .     S
O188   Zn201   1.918   .     S
O189   C727    1.388   1_545 S
O189   C740    1.410   1_545 S
O193   Zn201   1.929   .     S
O194   Zn204   1.930   .     S
O195   Zn202   1.923   .     S
O196   Zn203   1.930   .     S
O197   Zn204   1.925   .     S
O198   Zn201   1.920   .     S
O199   Zn202   1.935   .     S
O200   Zn203   1.932   .     S
C205   C215    1.433   .     S
C205   O299    1.268   .     A
C205   O297    1.268   .     A
C206   H283    1.082   .     S
C206   C242    1.404   .     A
C206   C207    1.398   .     A
C207   C231    1.521   .     S
C207   C1127   1.423   .     S
C208   O300    1.274   .     A
C208   O298    1.277   .     A
C208   C214    1.451   .     S
C209   C210    1.435   .     A
C209   C211    1.436   .     A
C209   C1125   1.423   1_554 S
C210   C213    1.401   .     A
C210   C243    1.428   .     A
C211   C212    1.403   .     A
C211   C226    1.523   .     S
C212   H282    1.083   .     S
C212   C224    1.389   .     A
C213   C224    1.384   .     A
C213   H281    1.074   .     S
C214   C11     1.333   1_655 S
C214   H53     1.088   1_655 S
C216   O293    1.385   .     S
C216   C225    1.406   .     A
C216   C223    1.418   .     A
C217   C220    1.458   .     S
C217   C524    1.336   .     S
C217   O597    1.388   .     S
C218   C219    1.436   .     S
C218   C829    1.336   1_545 S
C218   H891    1.086   1_545 S
C219   O301    1.273   .     A
C219   O295    1.271   .     A
C220   O296    1.272   .     A
C220   O302    1.267   .     A
C221   O289    1.275   .     A
C221   C224    1.454   .     S
C221   O287    1.272   .     A
C222   O290    1.289   .     A
C222   C223    1.490   .     S
C222   O288    1.283   .     A
C223   C227    1.411   .     A
C225   O292    1.386   .     S
C225   C241    1.414   .     A
C226   H250    1.111   .     S
C226   C228    1.542   .     S
C226   H1169   1.100   1_554 S
C227   C238    1.419   .     A
C227   O294    1.385   .     S
C228   H249    1.111   .     S
C228   H248    1.109   .     S
C228   C943    1.529   1_654 S
C229   H285    1.111   .     S
C229   H284    1.111   .     S
C229   C1044   1.529   .     S
C229   H1165   1.109   .     S
C230   H253    1.112   .     S
C230   H558    1.114   .     S
C230   H560    1.109   .     S
C230   O597    1.410   .     S
C231   H261    1.106   .     S
C231   H262    1.112   .     S
C231   C232    1.540   .     S
C232   H260    1.110   .     S
C232   C233    1.526   .     S
C232   H259    1.111   .     S
C233   H258    1.110   .     S
C233   H867    1.111   1_545 S
C233   H868    1.111   1_545 S
C234   H263    1.116   .     S
C234   O292    1.415   .     S
C234   H1081   1.109   .     S
C235   O293    1.414   .     S
C235   H266    1.114   .     S
C235   H267    1.109   .     S
C235   H269    1.107   .     S
C236   O294    1.411   .     S
C236   H272    1.109   .     S
C236   H271    1.113   .     S
C236   H270    1.113   .     S
C237   C244    1.533   .     S
C237   H280    1.113   .     S
C237   C239    1.538   .     S
C237   H278    1.103   .     S
C238   C241    1.411   .     A
C238   C242    1.420   .     A
C239   C240    1.527   .     S
C239   H276    1.110   .     S
C239   H277    1.108   .     S
C240   H275    1.110   .     S
C240   H274    1.111   .     S
C240   H273    1.111   .     S
C241   C1163   1.400   .     S
C242   C1161   1.414   .     S
C243   C244    1.436   .     A
C243   C1160   1.414   1_554 S
C244   C245    1.405   .     A
C245   H246    1.081   .     S
C245   C1159   1.400   1_554 S
H247   C1147   1.109   1_554 S
H251   C1144   1.100   .     S
H252   C842    1.114   1_545 S
H254   C842    1.109   1_545 S
H255   C539    1.111   .     S
H256   C539    1.111   .     S
H264   C30     1.109   1_655 S
H265   C948    1.109   1_654 S
H268   C11     1.086   1_655 S
H279   C524    1.086   .     S
O286   Zn303   1.949   .     S
O286   Zn306   1.931   .     S
O286   Zn304   1.936   .     S
O286   Zn305   1.929   .     S
O287   Zn304   1.920   .     S
O288   Zn306   1.927   .     S
O289   Zn305   1.924   .     S
O290   Zn303   1.918   .     S
O291   C829    1.388   1_545 S
O291   C842    1.410   1_545 S
O295   Zn303   1.929   .     S
O296   Zn306   1.930   .     S
O297   Zn304   1.923   .     S
O298   Zn305   1.930   .     S
O299   Zn306   1.925   .     S
O300   Zn303   1.920   .     S
O301   Zn304   1.935   .     S
O302   Zn305   1.932   .     S
C307   C317    1.433   .     S
C307   O401    1.268   .     A
C307   O399    1.268   .     A
C308   H385    1.082   .     S
C308   C344    1.404   .     A
C308   C309    1.398   .     A
C309   C333    1.521   .     S
C309   C1229   1.423   .     S
C310   O402    1.274   .     A
C310   O400    1.277   .     A
C310   C316    1.451   .     S
C311   C312    1.435   .     A
C311   C313    1.436   .     A
C311   C1227   1.423   1_554 S
C312   C315    1.401   .     A
C312   C345    1.428   .     A
C313   C314    1.403   .     A
C313   C328    1.523   .     S
C314   H384    1.083   .     S
C314   C326    1.389   .     A
C315   C326    1.384   .     A
C315   H383    1.074   .     S
C316   C419    1.333   .     S
C316   H461    1.088   .     S
C317   C520    1.333   1_455 S
C317   H574    1.086   1_455 S
C318   O395    1.385   .     S
C318   C327    1.406   .     A
C318   C325    1.418   .     A
C319   C322    1.458   .     S
C319   C626    1.336   .     S
C319   O699    1.388   .     S
C320   C321    1.436   .     S
C321   O403    1.273   .     A
C321   O397    1.271   .     A
C322   O398    1.272   .     A
C322   O404    1.267   .     A
C323   O391    1.275   .     A
C323   C326    1.454   .     S
C323   O389    1.272   .     A
C324   O392    1.289   .     A
C324   C325    1.490   .     S
C324   O390    1.283   .     A
C325   C329    1.411   .     A
C327   O394    1.386   .     S
C327   C343    1.414   .     A
C328   H352    1.111   .     S
C328   C330    1.542   .     S
C328   H1271   1.100   1_554 S
C329   C340    1.419   .     A
C329   O396    1.385   .     S
C330   H351    1.111   .     S
C330   H350    1.109   .     S
C330   C1351   1.529   1_554 S
C331   H387    1.111   .     S
C331   H386    1.111   .     S
C331   C1452   1.529   1_455 S
C331   H1267   1.109   .     S
C332   H355    1.112   .     S
C332   H660    1.114   .     S
C332   H662    1.109   .     S
C332   O699    1.410   .     S
C333   H363    1.106   .     S
C333   H364    1.112   .     S
C333   C334    1.540   .     S
C334   H362    1.110   .     S
C334   C335    1.526   .     S
C334   H361    1.111   .     S
C335   H360    1.110   .     S
C336   H365    1.116   .     S
C336   O394    1.415   .     S
C336   H570    1.109   1_455 S
C336   H1489   1.109   1_455 S
C337   O395    1.414   .     S
C337   H368    1.114   .     S
C337   H369    1.109   .     S
C337   H371    1.107   .     S
C338   O396    1.411   .     S
C338   H374    1.109   .     S
C338   H373    1.113   .     S
C338   H372    1.113   .     S
C339   C346    1.533   .     S
C339   H382    1.113   .     S
C339   C341    1.538   .     S
C339   H380    1.103   .     S
C340   C343    1.411   .     A
C340   C344    1.420   .     A
C341   C342    1.527   .     S
C341   H378    1.110   .     S
C341   H379    1.108   .     S
C342   H377    1.110   .     S
C342   H376    1.111   .     S
C342   H375    1.111   .     S
C343   C1265   1.400   .     S
C344   C1263   1.414   .     S
C345   C346    1.436   .     A
C345   C1262   1.414   1_554 S
C346   C347    1.405   .     A
C347   H348    1.081   .     S
C347   C1261   1.400   1_554 S
H349   C1249   1.109   1_554 S
H353   C1246   1.100   .     S
H357   C641    1.111   .     S
H358   C641    1.111   .     S
H359   C520    1.088   1_455 S
H366   C438    1.109   .     S
H367   C1356   1.109   1_554 S
H370   C419    1.086   .     S
H381   C626    1.086   .     S
O388   Zn405   1.949   .     S
O388   Zn408   1.931   .     S
O388   Zn406   1.936   .     S
O388   Zn407   1.929   .     S
O389   Zn406   1.920   .     S
O390   Zn408   1.927   .     S
O391   Zn407   1.924   .     S
O392   Zn405   1.918   .     S
O397   Zn405   1.929   .     S
O398   Zn408   1.930   .     S
O399   Zn406   1.923   .     S
O400   Zn407   1.930   .     S
O401   Zn408   1.925   .     S
O402   Zn405   1.920   .     S
O403   Zn406   1.935   .     S
O404   Zn407   1.932   .     S
C409   C419    1.433   .     S
C409   O503    1.268   .     A
C409   O501    1.268   .     A
C410   H487    1.082   .     S
C410   C446    1.404   .     A
C410   C411    1.398   .     A
C411   C435    1.521   .     S
C411   C1331   1.423   .     S
C412   O504    1.274   .     A
C412   O502    1.277   .     A
C412   C418    1.451   .     S
C413   C414    1.435   .     A
C413   C415    1.436   .     A
C413   C1329   1.423   1_554 S
C414   C417    1.401   .     A
C414   C447    1.428   .     A
C415   C416    1.403   .     A
C415   C430    1.523   .     S
C416   H486    1.083   .     S
C416   C428    1.389   .     A
C417   C428    1.384   .     A
C417   H485    1.074   .     S
C418   C521    1.333   .     S
C418   H563    1.088   .     S
C420   O497    1.385   .     S
C420   C429    1.406   .     A
C420   C427    1.418   .     A
C421   C424    1.458   .     S
C421   C728    1.336   .     S
C421   O801    1.388   .     S
C422   C423    1.436   .     S
C423   O505    1.273   .     A
C423   O499    1.271   .     A
C424   O500    1.272   .     A
C424   O506    1.267   .     A
C425   O493    1.275   .     A
C425   C428    1.454   .     S
C425   O491    1.272   .     A
C426   O494    1.289   .     A
C426   C427    1.490   .     S
C426   O492    1.283   .     A
C427   C431    1.411   .     A
C429   O496    1.386   .     S
C429   C445    1.414   .     A
C430   H454    1.111   .     S
C430   C432    1.542   .     S
C430   H1373   1.100   1_554 S
C431   C442    1.419   .     A
C431   O498    1.385   .     S
C432   H453    1.111   .     S
C432   H452    1.109   .     S
C432   C1453   1.529   1_554 S
C433   H489    1.111   .     S
C433   H488    1.111   .     S
C433   C1248   1.529   .     S
C433   H1369   1.109   .     S
C434   H457    1.112   .     S
C434   H762    1.114   .     S
C434   H764    1.109   .     S
C434   O801    1.410   .     S
C435   H465    1.106   .     S
C435   H466    1.112   .     S
C435   C436    1.540   .     S
C436   H464    1.110   .     S
C436   C437    1.526   .     S
C436   H463    1.111   .     S
C437   H462    1.110   .     S
C438   H467    1.116   .     S
C438   O496    1.415   .     S
C438   H1285   1.109   .     S
C439   O497    1.414   .     S
C439   H470    1.114   .     S
C439   H471    1.109   .     S
C439   H473    1.107   .     S
C440   O498    1.411   .     S
C440   H476    1.109   .     S
C440   H475    1.113   .     S
C440   H474    1.113   .     S
C441   C448    1.533   .     S
C441   H484    1.113   .     S
C441   C443    1.538   .     S
C441   H482    1.103   .     S
C442   C445    1.411   .     A
C442   C446    1.420   .     A
C443   C444    1.527   .     S
C443   H480    1.110   .     S
C443   H481    1.108   .     S
C444   H479    1.110   .     S
C444   H478    1.111   .     S
C444   H477    1.111   .     S
C445   C1367   1.400   .     S
C446   C1365   1.414   .     S
C447   C448    1.436   .     A
C447   C1364   1.414   1_554 S
C448   C449    1.405   .     A
C449   H450    1.081   .     S
C449   C1363   1.400   1_554 S
H451   C1351   1.109   1_554 S
H455   C1348   1.100   .     S
H459   C743    1.111   .     S
H460   C743    1.111   .     S
H468   C540    1.109   .     S
H469   C1458   1.109   1_554 S
H472   C521    1.086   .     S
H483   C728    1.086   .     S
O490   Zn507   1.949   .     S
O490   Zn510   1.931   .     S
O490   Zn508   1.936   .     S
O490   Zn509   1.929   .     S
O491   Zn508   1.920   .     S
O492   Zn510   1.927   .     S
O493   Zn509   1.924   .     S
O494   Zn507   1.918   .     S
O499   Zn507   1.929   .     S
O500   Zn510   1.930   .     S
O501   Zn508   1.923   .     S
O502   Zn509   1.930   .     S
O503   Zn510   1.925   .     S
O504   Zn507   1.920   .     S
O505   Zn508   1.935   .     S
O506   Zn509   1.932   .     S
C511   C521    1.433   .     S
C511   O605    1.268   .     A
C511   O603    1.268   .     A
C512   H589    1.082   .     S
C512   C548    1.404   .     A
C512   C513    1.398   .     A
C513   C537    1.521   .     S
C513   C1433   1.423   .     S
C514   O606    1.274   .     A
C514   O604    1.277   .     A
C514   C520    1.451   .     S
C515   C516    1.435   .     A
C515   C517    1.436   .     A
C515   C1431   1.423   1_554 S
C516   C519    1.401   .     A
C516   C549    1.428   .     A
C517   C518    1.403   .     A
C517   C532    1.523   .     S
C518   H588    1.083   .     S
C518   C530    1.389   .     A
C519   C530    1.384   .     A
C519   H587    1.074   .     S
C520   C317    1.333   1_655 S
C520   H359    1.088   1_655 S
C522   O599    1.385   .     S
C522   C531    1.406   .     A
C522   C529    1.418   .     A
C523   C526    1.458   .     S
C523   C830    1.336   .     S
C523   O903    1.388   .     S
C524   C525    1.436   .     S
C525   O607    1.273   .     A
C525   O601    1.271   .     A
C526   O602    1.272   .     A
C526   O608    1.267   .     A
C527   O595    1.275   .     A
C527   C530    1.454   .     S
C527   O593    1.272   .     A
C528   O596    1.289   .     A
C528   C529    1.490   .     S
C528   O594    1.283   .     A
C529   C533    1.411   .     A
C531   O598    1.386   .     S
C531   C547    1.414   .     A
C532   H556    1.111   .     S
C532   C534    1.542   .     S
C532   H1475   1.100   1_554 S
C533   C544    1.419   .     A
C533   O600    1.385   .     S
C534   H555    1.111   .     S
C534   H554    1.109   .     S
C534   C1249   1.529   1_654 S
C535   H591    1.111   .     S
C535   H590    1.111   .     S
C535   C1350   1.529   .     S
C535   H1471   1.109   .     S
C536   H559    1.112   .     S
C536   H864    1.114   .     S
C536   H866    1.109   .     S
C536   O903    1.410   .     S
C537   H567    1.106   .     S
C537   H568    1.112   .     S
C537   C538    1.540   .     S
C538   H566    1.110   .     S
C538   C539    1.526   .     S
C538   H565    1.111   .     S
C539   H564    1.110   .     S
C540   H569    1.116   .     S
C540   O598    1.415   .     S
C540   H1387   1.109   .     S
C541   O599    1.414   .     S
C541   H572    1.114   .     S
C541   H573    1.109   .     S
C541   H575    1.107   .     S
C542   O600    1.411   .     S
C542   H578    1.109   .     S
C542   H577    1.113   .     S
C542   H576    1.113   .     S
C543   C550    1.533   .     S
C543   H586    1.113   .     S
C543   C545    1.538   .     S
C543   H584    1.103   .     S
C544   C547    1.411   .     A
C544   C548    1.420   .     A
C545   C546    1.527   .     S
C545   H582    1.110   .     S
C545   H583    1.108   .     S
C546   H581    1.110   .     S
C546   H580    1.111   .     S
C546   H579    1.111   .     S
C547   C1469   1.400   .     S
C548   C1467   1.414   .     S
C549   C550    1.436   .     A
C549   C1466   1.414   1_554 S
C550   C551    1.405   .     A
C551   H552    1.081   .     S
C551   C1465   1.400   1_554 S
H553   C1453   1.109   1_554 S
H557   C1450   1.100   .     S
H561   C845    1.111   .     S
H562   C845    1.111   .     S
H570   C336    1.109   1_655 S
H571   C1254   1.109   1_654 S
H574   C317    1.086   1_655 S
H585   C830    1.086   .     S
O592   Zn609   1.949   .     S
O592   Zn612   1.931   .     S
O592   Zn610   1.936   .     S
O592   Zn611   1.929   .     S
O593   Zn610   1.920   .     S
O594   Zn612   1.927   .     S
O595   Zn611   1.924   .     S
O596   Zn609   1.918   .     S
O601   Zn609   1.929   .     S
O602   Zn612   1.930   .     S
O603   Zn610   1.923   .     S
O604   Zn611   1.930   .     S
O605   Zn612   1.925   .     S
O606   Zn609   1.920   .     S
O607   Zn610   1.935   .     S
O608   Zn611   1.932   .     S
C613   C623    1.433   .     S
C613   O707    1.268   .     A
C613   O705    1.268   .     A
C614   H691    1.082   .     S
C614   C650    1.404   .     A
C614   C615    1.398   .     A
C615   C639    1.521   .     S
C615   C1535   1.423   .     S
C616   O708    1.274   .     A
C616   O706    1.277   .     A
C616   C622    1.451   .     S
C617   C618    1.435   .     A
C617   C619    1.436   .     A
C617   C1533   1.423   1_554 S
C618   C621    1.401   .     A
C618   C651    1.428   .     A
C619   C620    1.403   .     A
C619   C634    1.523   .     S
C620   H690    1.083   .     S
C620   C632    1.389   .     A
C621   C632    1.384   .     A
C621   H689    1.074   .     S
C622   C725    1.333   .     S
C622   H767    1.088   .     S
C623   C826    1.333   1_455 S
C623   H880    1.086   1_455 S
C624   O701    1.385   .     S
C624   C633    1.406   .     A
C624   C631    1.418   .     A
C625   C628    1.458   .     S
C625   C14     1.336   1_565 S
C625   O87     1.388   1_565 S
C626   C627    1.436   .     S
C627   O709    1.273   .     A
C627   O703    1.271   .     A
C628   O704    1.272   .     A
C628   O710    1.267   .     A
C629   O697    1.275   .     A
C629   C632    1.454   .     S
C629   O695    1.272   .     A
C630   O698    1.289   .     A
C630   C631    1.490   .     S
C630   O696    1.283   .     A
C631   C635    1.411   .     A
C633   O700    1.386   .     S
C633   C649    1.414   .     A
C634   H658    1.111   .     S
C634   C636    1.542   .     S
C634   H1577   1.100   1_554 S
C635   C646    1.419   .     A
C635   O702    1.385   .     S
C636   H657    1.111   .     S
C636   H656    1.109   .     S
C636   C1657   1.529   1_554 S
C637   H693    1.111   .     S
C637   H692    1.111   .     S
C637   C1758   1.529   1_455 S
C637   H1573   1.109   .     S
C638   H661    1.112   .     S
C638   H48     1.114   1_565 S
C638   H50     1.109   1_565 S
C638   O87     1.410   1_565 S
C639   H669    1.106   .     S
C639   H670    1.112   .     S
C639   C640    1.540   .     S
C640   H668    1.110   .     S
C640   C641    1.526   .     S
C640   H667    1.111   .     S
C641   H666    1.110   .     S
C642   H671    1.116   .     S
C642   O700    1.415   .     S
C642   H876    1.109   1_455 S
C642   H1795   1.109   1_455 S
C643   O701    1.414   .     S
C643   H674    1.114   .     S
C643   H675    1.109   .     S
C643   H677    1.107   .     S
C644   O702    1.411   .     S
C644   H680    1.109   .     S
C644   H679    1.113   .     S
C644   H678    1.113   .     S
C645   C652    1.533   .     S
C645   H688    1.113   .     S
C645   C647    1.538   .     S
C645   H686    1.103   .     S
C646   C649    1.411   .     A
C646   C650    1.420   .     A
C647   C648    1.527   .     S
C647   H684    1.110   .     S
C647   H685    1.108   .     S
C648   H683    1.110   .     S
C648   H682    1.111   .     S
C648   H681    1.111   .     S
C649   C1571   1.400   .     S
C650   C1569   1.414   .     S
C651   C652    1.436   .     A
C651   C1568   1.414   1_554 S
C652   C653    1.405   .     A
C653   H654    1.081   .     S
C653   C1567   1.400   1_554 S
H655   C1555   1.109   1_554 S
H659   C1552   1.100   .     S
H663   C29     1.111   1_565 S
H664   C29     1.111   1_565 S
H665   C826    1.088   1_455 S
H672   C744    1.109   .     S
H673   C1662   1.109   1_554 S
H676   C725    1.086   .     S
H687   C14     1.086   1_565 S
O694   Zn711   1.949   .     S
O694   Zn714   1.931   .     S
O694   Zn712   1.936   .     S
O694   Zn713   1.929   .     S
O695   Zn712   1.920   .     S
O696   Zn714   1.927   .     S
O697   Zn713   1.924   .     S
O698   Zn711   1.918   .     S
O703   Zn711   1.929   .     S
O704   Zn714   1.930   .     S
O705   Zn712   1.923   .     S
O706   Zn713   1.930   .     S
O707   Zn714   1.925   .     S
O708   Zn711   1.920   .     S
O709   Zn712   1.935   .     S
O710   Zn713   1.932   .     S
C715   C725    1.433   .     S
C715   O809    1.268   .     A
C715   O807    1.268   .     A
C716   H793    1.082   .     S
C716   C752    1.404   .     A
C716   C717    1.398   .     A
C717   C741    1.521   .     S
C717   C1637   1.423   .     S
C718   O810    1.274   .     A
C718   O808    1.277   .     A
C718   C724    1.451   .     S
C719   C720    1.435   .     A
C719   C721    1.436   .     A
C719   C1635   1.423   1_554 S
C720   C723    1.401   .     A
C720   C753    1.428   .     A
C721   C722    1.403   .     A
C721   C736    1.523   .     S
C722   H792    1.083   .     S
C722   C734    1.389   .     A
C723   C734    1.384   .     A
C723   H791    1.074   .     S
C724   C827    1.333   .     S
C724   H869    1.088   .     S
C726   O803    1.385   .     S
C726   C735    1.406   .     A
C726   C733    1.418   .     A
C727   C730    1.458   .     S
C727   C116    1.336   1_565 S
C727   O189    1.388   1_565 S
C728   C729    1.436   .     S
C729   O811    1.273   .     A
C729   O805    1.271   .     A
C730   O806    1.272   .     A
C730   O812    1.267   .     A
C731   O799    1.275   .     A
C731   C734    1.454   .     S
C731   O797    1.272   .     A
C732   O800    1.289   .     A
C732   C733    1.490   .     S
C732   O798    1.283   .     A
C733   C737    1.411   .     A
C735   O802    1.386   .     S
C735   C751    1.414   .     A
C736   H760    1.111   .     S
C736   C738    1.542   .     S
C736   H1679   1.100   1_554 S
C737   C748    1.419   .     A
C737   O804    1.385   .     S
C738   H759    1.111   .     S
C738   H758    1.109   .     S
C738   C1759   1.529   1_554 S
C739   H795    1.111   .     S
C739   H794    1.111   .     S
C739   C1554   1.529   .     S
C739   H1675   1.109   .     S
C740   H763    1.112   .     S
C740   H150    1.114   1_565 S
C740   H152    1.109   1_565 S
C740   O189    1.410   1_565 S
C741   H771    1.106   .     S
C741   H772    1.112   .     S
C741   C742    1.540   .     S
C742   H770    1.110   .     S
C742   C743    1.526   .     S
C742   H769    1.111   .     S
C743   H768    1.110   .     S
C744   H773    1.116   .     S
C744   O802    1.415   .     S
C744   H1591   1.109   .     S
C745   O803    1.414   .     S
C745   H776    1.114   .     S
C745   H777    1.109   .     S
C745   H779    1.107   .     S
C746   O804    1.411   .     S
C746   H782    1.109   .     S
C746   H781    1.113   .     S
C746   H780    1.113   .     S
C747   C754    1.533   .     S
C747   H790    1.113   .     S
C747   C749    1.538   .     S
C747   H788    1.103   .     S
C748   C751    1.411   .     A
C748   C752    1.420   .     A
C749   C750    1.527   .     S
C749   H786    1.110   .     S
C749   H787    1.108   .     S
C750   H785    1.110   .     S
C750   H784    1.111   .     S
C750   H783    1.111   .     S
C751   C1673   1.400   .     S
C752   C1671   1.414   .     S
C753   C754    1.436   .     A
C753   C1670   1.414   1_554 S
C754   C755    1.405   .     A
C755   H756    1.081   .     S
C755   C1669   1.400   1_554 S
H757   C1657   1.109   1_554 S
H761   C1654   1.100   .     S
H765   C131    1.111   1_565 S
H766   C131    1.111   1_565 S
H774   C846    1.109   .     S
H775   C1764   1.109   1_554 S
H778   C827    1.086   .     S
H789   C116    1.086   1_565 S
O796   Zn813   1.949   .     S
O796   Zn816   1.931   .     S
O796   Zn814   1.936   .     S
O796   Zn815   1.929   .     S
O797   Zn814   1.920   .     S
O798   Zn816   1.927   .     S
O799   Zn815   1.924   .     S
O800   Zn813   1.918   .     S
O805   Zn813   1.929   .     S
O806   Zn816   1.930   .     S
O807   Zn814   1.923   .     S
O808   Zn815   1.930   .     S
O809   Zn816   1.925   .     S
O810   Zn813   1.920   .     S
O811   Zn814   1.935   .     S
O812   Zn815   1.932   .     S
C817   C827    1.433   .     S
C817   O911    1.268   .     A
C817   O909    1.268   .     A
C818   H895    1.082   .     S
C818   C854    1.404   .     A
C818   C819    1.398   .     A
C819   C843    1.521   .     S
C819   C1739   1.423   .     S
C820   O912    1.274   .     A
C820   O910    1.277   .     A
C820   C826    1.451   .     S
C821   C822    1.435   .     A
C821   C823    1.436   .     A
C821   C1737   1.423   1_554 S
C822   C825    1.401   .     A
C822   C855    1.428   .     A
C823   C824    1.403   .     A
C823   C838    1.523   .     S
C824   H894    1.083   .     S
C824   C836    1.389   .     A
C825   C836    1.384   .     A
C825   H893    1.074   .     S
C826   C623    1.333   1_655 S
C826   H665    1.088   1_655 S
C828   O905    1.385   .     S
C828   C837    1.406   .     A
C828   C835    1.418   .     A
C829   C832    1.458   .     S
C829   C218    1.336   1_565 S
C829   O291    1.388   1_565 S
C830   C831    1.436   .     S
C831   O913    1.273   .     A
C831   O907    1.271   .     A
C832   O908    1.272   .     A
C832   O914    1.267   .     A
C833   O901    1.275   .     A
C833   C836    1.454   .     S
C833   O899    1.272   .     A
C834   O902    1.289   .     A
C834   C835    1.490   .     S
C834   O900    1.283   .     A
C835   C839    1.411   .     A
C837   O904    1.386   .     S
C837   C853    1.414   .     A
C838   H862    1.111   .     S
C838   C840    1.542   .     S
C838   H1781   1.100   1_554 S
C839   C850    1.419   .     A
C839   O906    1.385   .     S
C840   H861    1.111   .     S
C840   H860    1.109   .     S
C840   C1555   1.529   1_654 S
C841   H897    1.111   .     S
C841   H896    1.111   .     S
C841   C1656   1.529   .     S
C841   H1777   1.109   .     S
C842   H865    1.112   .     S
C842   H252    1.114   1_565 S
C842   H254    1.109   1_565 S
C842   O291    1.410   1_565 S
C843   H873    1.106   .     S
C843   H874    1.112   .     S
C843   C844    1.540   .     S
C844   H872    1.110   .     S
C844   C845    1.526   .     S
C844   H871    1.111   .     S
C845   H870    1.110   .     S
C846   H875    1.116   .     S
C846   O904    1.415   .     S
C846   H1693   1.109   .     S
C847   O905    1.414   .     S
C847   H878    1.114   .     S
C847   H879    1.109   .     S
C847   H881    1.107   .     S
C848   O906    1.411   .     S
C848   H884    1.109   .     S
C848   H883    1.113   .     S
C848   H882    1.113   .     S
C849   C856    1.533   .     S
C849   H892    1.113   .     S
C849   C851    1.538   .     S
C849   H890    1.103   .     S
C850   C853    1.411   .     A
C850   C854    1.420   .     A
C851   C852    1.527   .     S
C851   H888    1.110   .     S
C851   H889    1.108   .     S
C852   H887    1.110   .     S
C852   H886    1.111   .     S
C852   H885    1.111   .     S
C853   C1775   1.400   .     S
C854   C1773   1.414   .     S
C855   C856    1.436   .     A
C855   C1772   1.414   1_554 S
C856   C857    1.405   .     A
C857   H858    1.081   .     S
C857   C1771   1.400   1_554 S
H859   C1759   1.109   1_554 S
H863   C1756   1.100   .     S
H867   C233    1.111   1_565 S
H868   C233    1.111   1_565 S
H876   C642    1.109   1_655 S
H877   C1560   1.109   1_654 S
H880   C623    1.086   1_655 S
H891   C218    1.086   1_565 S
O898   Zn915   1.949   .     S
O898   Zn918   1.931   .     S
O898   Zn916   1.936   .     S
O898   Zn917   1.929   .     S
O899   Zn916   1.920   .     S
O900   Zn918   1.927   .     S
O901   Zn917   1.924   .     S
O902   Zn915   1.918   .     S
O907   Zn915   1.929   .     S
O908   Zn918   1.930   .     S
O909   Zn916   1.923   .     S
O910   Zn917   1.930   .     S
O911   Zn918   1.925   .     S
O912   Zn915   1.920   .     S
O913   Zn916   1.935   .     S
O914   Zn917   1.932   .     S
C919   C929    1.433   .     S
C919   O1013   1.268   .     A
C919   O1011   1.268   .     A
C920   H997    1.082   .     S
C920   C956    1.404   .     A
C920   C921    1.398   .     A
C921   C945    1.521   .     S
C921   C5      1.423   1_556 S
C922   O1014   1.274   .     A
C922   O1012   1.277   .     A
C922   C928    1.451   .     S
C923   C924    1.435   .     A
C923   C925    1.436   .     A
C924   C927    1.401   .     A
C924   C957    1.428   .     A
C925   C926    1.403   .     A
C925   C940    1.523   .     S
C926   H996    1.083   .     S
C926   C938    1.389   .     A
C927   C938    1.384   .     A
C927   H995    1.074   .     S
C928   C1031   1.333   .     S
C928   H1073   1.088   .     S
C929   C1132   1.333   1_455 S
C929   H1186   1.086   1_455 S
C930   O1007   1.385   .     S
C930   C939    1.406   .     A
C930   C937    1.418   .     A
C931   C934    1.458   .     S
C931   C1238   1.336   .     S
C931   O1311   1.388   .     S
C932   C933    1.436   .     S
C932   C1543   1.336   1_545 S
C932   H1605   1.086   1_545 S
C933   O1015   1.273   .     A
C933   O1009   1.271   .     A
C934   O1010   1.272   .     A
C934   O1016   1.267   .     A
C935   O1003   1.275   .     A
C935   C938    1.454   .     S
C935   O1001   1.272   .     A
C936   O1004   1.289   .     A
C936   C937    1.490   .     S
C936   O1002   1.283   .     A
C937   C941    1.411   .     A
C939   O1006   1.386   .     S
C939   C955    1.414   .     A
C940   H964    1.111   .     S
C940   C942    1.542   .     S
C941   C952    1.419   .     A
C941   O1008   1.385   .     S
C942   H963    1.111   .     S
C942   H962    1.109   .     S
C943   H999    1.111   .     S
C943   H998    1.111   .     S
C943   C228    1.529   1_456 S
C943   H43     1.109   1_556 S
C944   H967    1.112   .     S
C944   H1272   1.114   .     S
C944   H1274   1.109   .     S
C944   O1311   1.410   .     S
C945   H975    1.106   .     S
C945   H976    1.112   .     S
C945   C946    1.540   .     S
C946   H974    1.110   .     S
C946   C947    1.526   .     S
C946   H973    1.111   .     S
C947   H972    1.110   .     S
C947   H1581   1.111   1_545 S
C947   H1582   1.111   1_545 S
C948   H977    1.116   .     S
C948   O1006   1.415   .     S
C948   H1182   1.109   1_455 S
C948   H265    1.109   1_456 S
C949   O1007   1.414   .     S
C949   H980    1.114   .     S
C949   H981    1.109   .     S
C949   H983    1.107   .     S
C950   O1008   1.411   .     S
C950   H986    1.109   .     S
C950   H985    1.113   .     S
C950   H984    1.113   .     S
C951   C958    1.533   .     S
C951   H994    1.113   .     S
C951   C953    1.538   .     S
C951   H992    1.103   .     S
C952   C955    1.411   .     A
C952   C956    1.420   .     A
C953   C954    1.527   .     S
C953   H990    1.110   .     S
C953   H991    1.108   .     S
C954   H989    1.110   .     S
C954   H988    1.111   .     S
C954   H987    1.111   .     S
C955   C41     1.400   1_556 S
C956   C39     1.414   1_556 S
C957   C958    1.436   .     A
C958   C959    1.405   .     A
C959   H960    1.081   .     S
H965   C22     1.100   1_556 S
H966   C1556   1.114   1_545 S
H968   C1556   1.109   1_545 S
H969   C1253   1.111   .     S
H970   C1253   1.111   .     S
H971   C1132   1.088   1_455 S
H978   C1050   1.109   .     S
H982   C1031   1.086   .     S
H993   C1238   1.086   .     S
O1000  Zn1017  1.949   .     S
O1000  Zn1020  1.931   .     S
O1000  Zn1018  1.936   .     S
O1000  Zn1019  1.929   .     S
O1001  Zn1018  1.920   .     S
O1002  Zn1020  1.927   .     S
O1003  Zn1019  1.924   .     S
O1004  Zn1017  1.918   .     S
O1005  C1543   1.388   1_545 S
O1005  C1556   1.410   1_545 S
O1009  Zn1017  1.929   .     S
O1010  Zn1020  1.930   .     S
O1011  Zn1018  1.923   .     S
O1012  Zn1019  1.930   .     S
O1013  Zn1020  1.925   .     S
O1014  Zn1017  1.920   .     S
O1015  Zn1018  1.935   .     S
O1016  Zn1019  1.932   .     S
C1021  C1031   1.433   .     S
C1021  O1115   1.268   .     A
C1021  O1113   1.268   .     A
C1022  H1099   1.082   .     S
C1022  C1058   1.404   .     A
C1022  C1023   1.398   .     A
C1023  C1047   1.521   .     S
C1023  C107    1.423   1_556 S
C1024  O1116   1.274   .     A
C1024  O1114   1.277   .     A
C1024  C1030   1.451   .     S
C1025  C1026   1.435   .     A
C1025  C1027   1.436   .     A
C1026  C1029   1.401   .     A
C1026  C1059   1.428   .     A
C1027  C1028   1.403   .     A
C1027  C1042   1.523   .     S
C1028  H1098   1.083   .     S
C1028  C1040   1.389   .     A
C1029  C1040   1.384   .     A
C1029  H1097   1.074   .     S
C1030  C1133   1.333   .     S
C1030  H1175   1.088   .     S
C1032  O1109   1.385   .     S
C1032  C1041   1.406   .     A
C1032  C1039   1.418   .     A
C1033  C1036   1.458   .     S
C1033  C1340   1.336   .     S
C1033  O1413   1.388   .     S
C1034  C1035   1.436   .     S
C1034  C1645   1.336   1_545 S
C1034  H1707   1.086   1_545 S
C1035  O1117   1.273   .     A
C1035  O1111   1.271   .     A
C1036  O1112   1.272   .     A
C1036  O1118   1.267   .     A
C1037  O1105   1.275   .     A
C1037  C1040   1.454   .     S
C1037  O1103   1.272   .     A
C1038  O1106   1.289   .     A
C1038  C1039   1.490   .     S
C1038  O1104   1.283   .     A
C1039  C1043   1.411   .     A
C1041  O1108   1.386   .     S
C1041  C1057   1.414   .     A
C1042  H1066   1.111   .     S
C1042  C1044   1.542   .     S
C1043  C1054   1.419   .     A
C1043  O1110   1.385   .     S
C1044  H1065   1.111   .     S
C1044  H1064   1.109   .     S
C1045  H1101   1.111   .     S
C1045  H1100   1.111   .     S
C1045  C24     1.529   1_556 S
C1045  H145    1.109   1_556 S
C1046  H1069   1.112   .     S
C1046  H1374   1.114   .     S
C1046  H1376   1.109   .     S
C1046  O1413   1.410   .     S
C1047  H1077   1.106   .     S
C1047  H1078   1.112   .     S
C1047  C1048   1.540   .     S
C1048  H1076   1.110   .     S
C1048  C1049   1.526   .     S
C1048  H1075   1.111   .     S
C1049  H1074   1.110   .     S
C1049  H1683   1.111   1_545 S
C1049  H1684   1.111   1_545 S
C1050  H1079   1.116   .     S
C1050  O1108   1.415   .     S
C1050  H61     1.109   1_556 S
C1051  O1109   1.414   .     S
C1051  H1082   1.114   .     S
C1051  H1083   1.109   .     S
C1051  H1085   1.107   .     S
C1052  O1110   1.411   .     S
C1052  H1088   1.109   .     S
C1052  H1087   1.113   .     S
C1052  H1086   1.113   .     S
C1053  C1060   1.533   .     S
C1053  H1096   1.113   .     S
C1053  C1055   1.538   .     S
C1053  H1094   1.103   .     S
C1054  C1057   1.411   .     A
C1054  C1058   1.420   .     A
C1055  C1056   1.527   .     S
C1055  H1092   1.110   .     S
C1055  H1093   1.108   .     S
C1056  H1091   1.110   .     S
C1056  H1090   1.111   .     S
C1056  H1089   1.111   .     S
C1057  C143    1.400   1_556 S
C1058  C141    1.414   1_556 S
C1059  C1060   1.436   .     A
C1060  C1061   1.405   .     A
C1061  H1062   1.081   .     S
H1067  C124    1.100   1_556 S
H1068  C1658   1.114   1_545 S
H1070  C1658   1.109   1_545 S
H1071  C1355   1.111   .     S
H1072  C1355   1.111   .     S
H1080  C1152   1.109   .     S
H1084  C1133   1.086   .     S
H1095  C1340   1.086   .     S
O1102  Zn1119  1.949   .     S
O1102  Zn1122  1.931   .     S
O1102  Zn1120  1.936   .     S
O1102  Zn1121  1.929   .     S
O1103  Zn1120  1.920   .     S
O1104  Zn1122  1.927   .     S
O1105  Zn1121  1.924   .     S
O1106  Zn1119  1.918   .     S
O1107  C1645   1.388   1_545 S
O1107  C1658   1.410   1_545 S
O1111  Zn1119  1.929   .     S
O1112  Zn1122  1.930   .     S
O1113  Zn1120  1.923   .     S
O1114  Zn1121  1.930   .     S
O1115  Zn1122  1.925   .     S
O1116  Zn1119  1.920   .     S
O1117  Zn1120  1.935   .     S
O1118  Zn1121  1.932   .     S
C1123  C1133   1.433   .     S
C1123  O1217   1.268   .     A
C1123  O1215   1.268   .     A
C1124  H1201   1.082   .     S
C1124  C1160   1.404   .     A
C1124  C1125   1.398   .     A
C1125  C1149   1.521   .     S
C1125  C209    1.423   1_556 S
C1126  O1218   1.274   .     A
C1126  O1216   1.277   .     A
C1126  C1132   1.451   .     S
C1127  C1128   1.435   .     A
C1127  C1129   1.436   .     A
C1128  C1131   1.401   .     A
C1128  C1161   1.428   .     A
C1129  C1130   1.403   .     A
C1129  C1144   1.523   .     S
C1130  H1200   1.083   .     S
C1130  C1142   1.389   .     A
C1131  C1142   1.384   .     A
C1131  H1199   1.074   .     S
C1132  C929    1.333   1_655 S
C1132  H971    1.088   1_655 S
C1134  O1211   1.385   .     S
C1134  C1143   1.406   .     A
C1134  C1141   1.418   .     A
C1135  C1138   1.458   .     S
C1135  C1442   1.336   .     S
C1135  O1515   1.388   .     S
C1136  C1137   1.436   .     S
C1136  C1747   1.336   1_545 S
C1136  H1809   1.086   1_545 S
C1137  O1219   1.273   .     A
C1137  O1213   1.271   .     A
C1138  O1214   1.272   .     A
C1138  O1220   1.267   .     A
C1139  O1207   1.275   .     A
C1139  C1142   1.454   .     S
C1139  O1205   1.272   .     A
C1140  O1208   1.289   .     A
C1140  C1141   1.490   .     S
C1140  O1206   1.283   .     A
C1141  C1145   1.411   .     A
C1143  O1210   1.386   .     S
C1143  C1159   1.414   .     A
C1144  H1168   1.111   .     S
C1144  C1146   1.542   .     S
C1145  C1156   1.419   .     A
C1145  O1212   1.385   .     S
C1146  H1167   1.111   .     S
C1146  H1166   1.109   .     S
C1146  C25     1.529   1_655 S
C1147  H1203   1.111   .     S
C1147  H1202   1.111   .     S
C1147  C126    1.529   1_556 S
C1147  H247    1.109   1_556 S
C1148  H1171   1.112   .     S
C1148  H1476   1.114   .     S
C1148  H1478   1.109   .     S
C1148  O1515   1.410   .     S
C1149  H1179   1.106   .     S
C1149  H1180   1.112   .     S
C1149  C1150   1.540   .     S
C1150  H1178   1.110   .     S
C1150  C1151   1.526   .     S
C1150  H1177   1.111   .     S
C1151  H1176   1.110   .     S
C1151  H1785   1.111   1_545 S
C1151  H1786   1.111   1_545 S
C1152  H1181   1.116   .     S
C1152  O1210   1.415   .     S
C1152  H163    1.109   1_556 S
C1153  O1211   1.414   .     S
C1153  H1184   1.114   .     S
C1153  H1185   1.109   .     S
C1153  H1187   1.107   .     S
C1154  O1212   1.411   .     S
C1154  H1190   1.109   .     S
C1154  H1189   1.113   .     S
C1154  H1188   1.113   .     S
C1155  C1162   1.533   .     S
C1155  H1198   1.113   .     S
C1155  C1157   1.538   .     S
C1155  H1196   1.103   .     S
C1156  C1159   1.411   .     A
C1156  C1160   1.420   .     A
C1157  C1158   1.527   .     S
C1157  H1194   1.110   .     S
C1157  H1195   1.108   .     S
C1158  H1193   1.110   .     S
C1158  H1192   1.111   .     S
C1158  H1191   1.111   .     S
C1159  C245    1.400   1_556 S
C1160  C243    1.414   1_556 S
C1161  C1162   1.436   .     A
C1162  C1163   1.405   .     A
C1163  H1164   1.081   .     S
H1169  C226    1.100   1_556 S
H1170  C1760   1.114   1_545 S
H1172  C1760   1.109   1_545 S
H1173  C1457   1.111   .     S
H1174  C1457   1.111   .     S
H1182  C948    1.109   1_655 S
H1183  C30     1.109   1_655 S
H1186  C929    1.086   1_655 S
H1197  C1442   1.086   .     S
O1204  Zn1221  1.949   .     S
O1204  Zn1224  1.931   .     S
O1204  Zn1222  1.936   .     S
O1204  Zn1223  1.929   .     S
O1205  Zn1222  1.920   .     S
O1206  Zn1224  1.927   .     S
O1207  Zn1223  1.924   .     S
O1208  Zn1221  1.918   .     S
O1209  C1747   1.388   1_545 S
O1209  C1760   1.410   1_545 S
O1213  Zn1221  1.929   .     S
O1214  Zn1224  1.930   .     S
O1215  Zn1222  1.923   .     S
O1216  Zn1223  1.930   .     S
O1217  Zn1224  1.925   .     S
O1218  Zn1221  1.920   .     S
O1219  Zn1222  1.935   .     S
O1220  Zn1223  1.932   .     S
C1225  C1235   1.433   .     S
C1225  O1319   1.268   .     A
C1225  O1317   1.268   .     A
C1226  H1303   1.082   .     S
C1226  C1262   1.404   .     A
C1226  C1227   1.398   .     A
C1227  C1251   1.521   .     S
C1227  C311    1.423   1_556 S
C1228  O1320   1.274   .     A
C1228  O1318   1.277   .     A
C1228  C1234   1.451   .     S
C1229  C1230   1.435   .     A
C1229  C1231   1.436   .     A
C1230  C1233   1.401   .     A
C1230  C1263   1.428   .     A
C1231  C1232   1.403   .     A
C1231  C1246   1.523   .     S
C1232  H1302   1.083   .     S
C1232  C1244   1.389   .     A
C1233  C1244   1.384   .     A
C1233  H1301   1.074   .     S
C1234  C1337   1.333   .     S
C1234  H1379   1.088   .     S
C1235  C1438   1.333   1_455 S
C1235  H1492   1.086   1_455 S
C1236  O1313   1.385   .     S
C1236  C1245   1.406   .     A
C1236  C1243   1.418   .     A
C1237  C1240   1.458   .     S
C1237  C1544   1.336   .     S
C1237  O1617   1.388   .     S
C1238  C1239   1.436   .     S
C1239  O1321   1.273   .     A
C1239  O1315   1.271   .     A
C1240  O1316   1.272   .     A
C1240  O1322   1.267   .     A
C1241  O1309   1.275   .     A
C1241  C1244   1.454   .     S
C1241  O1307   1.272   .     A
C1242  O1310   1.289   .     A
C1242  C1243   1.490   .     S
C1242  O1308   1.283   .     A
C1243  C1247   1.411   .     A
C1245  O1312   1.386   .     S
C1245  C1261   1.414   .     A
C1246  H1270   1.111   .     S
C1246  C1248   1.542   .     S
C1247  C1258   1.419   .     A
C1247  O1314   1.385   .     S
C1248  H1269   1.111   .     S
C1248  H1268   1.109   .     S
C1249  H1305   1.111   .     S
C1249  H1304   1.111   .     S
C1249  C534    1.529   1_456 S
C1249  H349    1.109   1_556 S
C1250  H1273   1.112   .     S
C1250  H1578   1.114   .     S
C1250  H1580   1.109   .     S
C1250  O1617   1.410   .     S
C1251  H1281   1.106   .     S
C1251  H1282   1.112   .     S
C1251  C1252   1.540   .     S
C1252  H1280   1.110   .     S
C1252  C1253   1.526   .     S
C1252  H1279   1.111   .     S
C1253  H1278   1.110   .     S
C1254  H1283   1.116   .     S
C1254  O1312   1.415   .     S
C1254  H1488   1.109   1_455 S
C1254  H571    1.109   1_456 S
C1255  O1313   1.414   .     S
C1255  H1286   1.114   .     S
C1255  H1287   1.109   .     S
C1255  H1289   1.107   .     S
C1256  O1314   1.411   .     S
C1256  H1292   1.109   .     S
C1256  H1291   1.113   .     S
C1256  H1290   1.113   .     S
C1257  C1264   1.533   .     S
C1257  H1300   1.113   .     S
C1257  C1259   1.538   .     S
C1257  H1298   1.103   .     S
C1258  C1261   1.411   .     A
C1258  C1262   1.420   .     A
C1259  C1260   1.527   .     S
C1259  H1296   1.110   .     S
C1259  H1297   1.108   .     S
C1260  H1295   1.110   .     S
C1260  H1294   1.111   .     S
C1260  H1293   1.111   .     S
C1261  C347    1.400   1_556 S
C1262  C345    1.414   1_556 S
C1263  C1264   1.436   .     A
C1264  C1265   1.405   .     A
C1265  H1266   1.081   .     S
H1271  C328    1.100   1_556 S
H1275  C1559   1.111   .     S
H1276  C1559   1.111   .     S
H1277  C1438   1.088   1_455 S
H1284  C1356   1.109   .     S
H1288  C1337   1.086   .     S
H1299  C1544   1.086   .     S
O1306  Zn1323  1.949   .     S
O1306  Zn1326  1.931   .     S
O1306  Zn1324  1.936   .     S
O1306  Zn1325  1.929   .     S
O1307  Zn1324  1.920   .     S
O1308  Zn1326  1.927   .     S
O1309  Zn1325  1.924   .     S
O1310  Zn1323  1.918   .     S
O1315  Zn1323  1.929   .     S
O1316  Zn1326  1.930   .     S
O1317  Zn1324  1.923   .     S
O1318  Zn1325  1.930   .     S
O1319  Zn1326  1.925   .     S
O1320  Zn1323  1.920   .     S
O1321  Zn1324  1.935   .     S
O1322  Zn1325  1.932   .     S
C1327  C1337   1.433   .     S
C1327  O1421   1.268   .     A
C1327  O1419   1.268   .     A
C1328  H1405   1.082   .     S
C1328  C1364   1.404   .     A
C1328  C1329   1.398   .     A
C1329  C1353   1.521   .     S
C1329  C413    1.423   1_556 S
C1330  O1422   1.274   .     A
C1330  O1420   1.277   .     A
C1330  C1336   1.451   .     S
C1331  C1332   1.435   .     A
C1331  C1333   1.436   .     A
C1332  C1335   1.401   .     A
C1332  C1365   1.428   .     A
C1333  C1334   1.403   .     A
C1333  C1348   1.523   .     S
C1334  H1404   1.083   .     S
C1334  C1346   1.389   .     A
C1335  C1346   1.384   .     A
C1335  H1403   1.074   .     S
C1336  C1439   1.333   .     S
C1336  H1481   1.088   .     S
C1338  O1415   1.385   .     S
C1338  C1347   1.406   .     A
C1338  C1345   1.418   .     A
C1339  C1342   1.458   .     S
C1339  C1646   1.336   .     S
C1339  O1719   1.388   .     S
C1340  C1341   1.436   .     S
C1341  O1423   1.273   .     A
C1341  O1417   1.271   .     A
C1342  O1418   1.272   .     A
C1342  O1424   1.267   .     A
C1343  O1411   1.275   .     A
C1343  C1346   1.454   .     S
C1343  O1409   1.272   .     A
C1344  O1412   1.289   .     A
C1344  C1345   1.490   .     S
C1344  O1410   1.283   .     A
C1345  C1349   1.411   .     A
C1347  O1414   1.386   .     S
C1347  C1363   1.414   .     A
C1348  H1372   1.111   .     S
C1348  C1350   1.542   .     S
C1349  C1360   1.419   .     A
C1349  O1416   1.385   .     S
C1350  H1371   1.111   .     S
C1350  H1370   1.109   .     S
C1351  H1407   1.111   .     S
C1351  H1406   1.111   .     S
C1351  C330    1.529   1_556 S
C1351  H451    1.109   1_556 S
C1352  H1375   1.112   .     S
C1352  H1680   1.114   .     S
C1352  H1682   1.109   .     S
C1352  O1719   1.410   .     S
C1353  H1383   1.106   .     S
C1353  H1384   1.112   .     S
C1353  C1354   1.540   .     S
C1354  H1382   1.110   .     S
C1354  C1355   1.526   .     S
C1354  H1381   1.111   .     S
C1355  H1380   1.110   .     S
C1356  H1385   1.116   .     S
C1356  O1414   1.415   .     S
C1356  H367    1.109   1_556 S
C1357  O1415   1.414   .     S
C1357  H1388   1.114   .     S
C1357  H1389   1.109   .     S
C1357  H1391   1.107   .     S
C1358  O1416   1.411   .     S
C1358  H1394   1.109   .     S
C1358  H1393   1.113   .     S
C1358  H1392   1.113   .     S
C1359  C1366   1.533   .     S
C1359  H1402   1.113   .     S
C1359  C1361   1.538   .     S
C1359  H1400   1.103   .     S
C1360  C1363   1.411   .     A
C1360  C1364   1.420   .     A
C1361  C1362   1.527   .     S
C1361  H1398   1.110   .     S
C1361  H1399   1.108   .     S
C1362  H1397   1.110   .     S
C1362  H1396   1.111   .     S
C1362  H1395   1.111   .     S
C1363  C449    1.400   1_556 S
C1364  C447    1.414   1_556 S
C1365  C1366   1.436   .     A
C1366  C1367   1.405   .     A
C1367  H1368   1.081   .     S
H1373  C430    1.100   1_556 S
H1377  C1661   1.111   .     S
H1378  C1661   1.111   .     S
H1386  C1458   1.109   .     S
H1390  C1439   1.086   .     S
H1401  C1646   1.086   .     S
O1408  Zn1425  1.949   .     S
O1408  Zn1428  1.931   .     S
O1408  Zn1426  1.936   .     S
O1408  Zn1427  1.929   .     S
O1409  Zn1426  1.920   .     S
O1410  Zn1428  1.927   .     S
O1411  Zn1427  1.924   .     S
O1412  Zn1425  1.918   .     S
O1417  Zn1425  1.929   .     S
O1418  Zn1428  1.930   .     S
O1419  Zn1426  1.923   .     S
O1420  Zn1427  1.930   .     S
O1421  Zn1428  1.925   .     S
O1422  Zn1425  1.920   .     S
O1423  Zn1426  1.935   .     S
O1424  Zn1427  1.932   .     S
C1429  C1439   1.433   .     S
C1429  O1523   1.268   .     A
C1429  O1521   1.268   .     A
C1430  H1507   1.082   .     S
C1430  C1466   1.404   .     A
C1430  C1431   1.398   .     A
C1431  C1455   1.521   .     S
C1431  C515    1.423   1_556 S
C1432  O1524   1.274   .     A
C1432  O1522   1.277   .     A
C1432  C1438   1.451   .     S
C1433  C1434   1.435   .     A
C1433  C1435   1.436   .     A
C1434  C1437   1.401   .     A
C1434  C1467   1.428   .     A
C1435  C1436   1.403   .     A
C1435  C1450   1.523   .     S
C1436  H1506   1.083   .     S
C1436  C1448   1.389   .     A
C1437  C1448   1.384   .     A
C1437  H1505   1.074   .     S
C1438  C1235   1.333   1_655 S
C1438  H1277   1.088   1_655 S
C1440  O1517   1.385   .     S
C1440  C1449   1.406   .     A
C1440  C1447   1.418   .     A
C1441  C1444   1.458   .     S
C1441  C1748   1.336   .     S
C1441  O1821   1.388   .     S
C1442  C1443   1.436   .     S
C1443  O1525   1.273   .     A
C1443  O1519   1.271   .     A
C1444  O1520   1.272   .     A
C1444  O1526   1.267   .     A
C1445  O1513   1.275   .     A
C1445  C1448   1.454   .     S
C1445  O1511   1.272   .     A
C1446  O1514   1.289   .     A
C1446  C1447   1.490   .     S
C1446  O1512   1.283   .     A
C1447  C1451   1.411   .     A
C1449  O1516   1.386   .     S
C1449  C1465   1.414   .     A
C1450  H1474   1.111   .     S
C1450  C1452   1.542   .     S
C1451  C1462   1.419   .     A
C1451  O1518   1.385   .     S
C1452  H1473   1.111   .     S
C1452  H1472   1.109   .     S
C1452  C331    1.529   1_655 S
C1453  H1509   1.111   .     S
C1453  H1508   1.111   .     S
C1453  C432    1.529   1_556 S
C1453  H553    1.109   1_556 S
C1454  H1477   1.112   .     S
C1454  H1782   1.114   .     S
C1454  H1784   1.109   .     S
C1454  O1821   1.410   .     S
C1455  H1485   1.106   .     S
C1455  H1486   1.112   .     S
C1455  C1456   1.540   .     S
C1456  H1484   1.110   .     S
C1456  C1457   1.526   .     S
C1456  H1483   1.111   .     S
C1457  H1482   1.110   .     S
C1458  H1487   1.116   .     S
C1458  O1516   1.415   .     S
C1458  H469    1.109   1_556 S
C1459  O1517   1.414   .     S
C1459  H1490   1.114   .     S
C1459  H1491   1.109   .     S
C1459  H1493   1.107   .     S
C1460  O1518   1.411   .     S
C1460  H1496   1.109   .     S
C1460  H1495   1.113   .     S
C1460  H1494   1.113   .     S
C1461  C1468   1.533   .     S
C1461  H1504   1.113   .     S
C1461  C1463   1.538   .     S
C1461  H1502   1.103   .     S
C1462  C1465   1.411   .     A
C1462  C1466   1.420   .     A
C1463  C1464   1.527   .     S
C1463  H1500   1.110   .     S
C1463  H1501   1.108   .     S
C1464  H1499   1.110   .     S
C1464  H1498   1.111   .     S
C1464  H1497   1.111   .     S
C1465  C551    1.400   1_556 S
C1466  C549    1.414   1_556 S
C1467  C1468   1.436   .     A
C1468  C1469   1.405   .     A
C1469  H1470   1.081   .     S
H1475  C532    1.100   1_556 S
H1479  C1763   1.111   .     S
H1480  C1763   1.111   .     S
H1488  C1254   1.109   1_655 S
H1489  C336    1.109   1_655 S
H1492  C1235   1.086   1_655 S
H1503  C1748   1.086   .     S
O1510  Zn1527  1.949   .     S
O1510  Zn1530  1.931   .     S
O1510  Zn1528  1.936   .     S
O1510  Zn1529  1.929   .     S
O1511  Zn1528  1.920   .     S
O1512  Zn1530  1.927   .     S
O1513  Zn1529  1.924   .     S
O1514  Zn1527  1.918   .     S
O1519  Zn1527  1.929   .     S
O1520  Zn1530  1.930   .     S
O1521  Zn1528  1.923   .     S
O1522  Zn1529  1.930   .     S
O1523  Zn1530  1.925   .     S
O1524  Zn1527  1.920   .     S
O1525  Zn1528  1.935   .     S
O1526  Zn1529  1.932   .     S
C1531  C1541   1.433   .     S
C1531  O1625   1.268   .     A
C1531  O1623   1.268   .     A
C1532  H1609   1.082   .     S
C1532  C1568   1.404   .     A
C1532  C1533   1.398   .     A
C1533  C1557   1.521   .     S
C1533  C617    1.423   1_556 S
C1534  O1626   1.274   .     A
C1534  O1624   1.277   .     A
C1534  C1540   1.451   .     S
C1535  C1536   1.435   .     A
C1535  C1537   1.436   .     A
C1536  C1539   1.401   .     A
C1536  C1569   1.428   .     A
C1537  C1538   1.403   .     A
C1537  C1552   1.523   .     S
C1538  H1608   1.083   .     S
C1538  C1550   1.389   .     A
C1539  C1550   1.384   .     A
C1539  H1607   1.074   .     S
C1540  C1643   1.333   .     S
C1540  H1685   1.088   .     S
C1541  C1744   1.333   1_455 S
C1541  H1798   1.086   1_455 S
C1542  O1619   1.385   .     S
C1542  C1551   1.406   .     A
C1542  C1549   1.418   .     A
C1543  C1546   1.458   .     S
C1543  C932    1.336   1_565 S
C1543  O1005   1.388   1_565 S
C1544  C1545   1.436   .     S
C1545  O1627   1.273   .     A
C1545  O1621   1.271   .     A
C1546  O1622   1.272   .     A
C1546  O1628   1.267   .     A
C1547  O1615   1.275   .     A
C1547  C1550   1.454   .     S
C1547  O1613   1.272   .     A
C1548  O1616   1.289   .     A
C1548  C1549   1.490   .     S
C1548  O1614   1.283   .     A
C1549  C1553   1.411   .     A
C1551  O1618   1.386   .     S
C1551  C1567   1.414   .     A
C1552  H1576   1.111   .     S
C1552  C1554   1.542   .     S
C1553  C1564   1.419   .     A
C1553  O1620   1.385   .     S
C1554  H1575   1.111   .     S
C1554  H1574   1.109   .     S
C1555  H1611   1.111   .     S
C1555  H1610   1.111   .     S
C1555  C840    1.529   1_456 S
C1555  H655    1.109   1_556 S
C1556  H1579   1.112   .     S
C1556  H966    1.114   1_565 S
C1556  H968    1.109   1_565 S
C1556  O1005   1.410   1_565 S
C1557  H1587   1.106   .     S
C1557  H1588   1.112   .     S
C1557  C1558   1.540   .     S
C1558  H1586   1.110   .     S
C1558  C1559   1.526   .     S
C1558  H1585   1.111   .     S
C1559  H1584   1.110   .     S
C1560  H1589   1.116   .     S
C1560  O1618   1.415   .     S
C1560  H1794   1.109   1_455 S
C1560  H877    1.109   1_456 S
C1561  O1619   1.414   .     S
C1561  H1592   1.114   .     S
C1561  H1593   1.109   .     S
C1561  H1595   1.107   .     S
C1562  O1620   1.411   .     S
C1562  H1598   1.109   .     S
C1562  H1597   1.113   .     S
C1562  H1596   1.113   .     S
C1563  C1570   1.533   .     S
C1563  H1606   1.113   .     S
C1563  C1565   1.538   .     S
C1563  H1604   1.103   .     S
C1564  C1567   1.411   .     A
C1564  C1568   1.420   .     A
C1565  C1566   1.527   .     S
C1565  H1602   1.110   .     S
C1565  H1603   1.108   .     S
C1566  H1601   1.110   .     S
C1566  H1600   1.111   .     S
C1566  H1599   1.111   .     S
C1567  C653    1.400   1_556 S
C1568  C651    1.414   1_556 S
C1569  C1570   1.436   .     A
C1570  C1571   1.405   .     A
C1571  H1572   1.081   .     S
H1577  C634    1.100   1_556 S
H1581  C947    1.111   1_565 S
H1582  C947    1.111   1_565 S
H1583  C1744   1.088   1_455 S
H1590  C1662   1.109   .     S
H1594  C1643   1.086   .     S
H1605  C932    1.086   1_565 S
O1612  Zn1629  1.949   .     S
O1612  Zn1632  1.931   .     S
O1612  Zn1630  1.936   .     S
O1612  Zn1631  1.929   .     S
O1613  Zn1630  1.920   .     S
O1614  Zn1632  1.927   .     S
O1615  Zn1631  1.924   .     S
O1616  Zn1629  1.918   .     S
O1621  Zn1629  1.929   .     S
O1622  Zn1632  1.930   .     S
O1623  Zn1630  1.923   .     S
O1624  Zn1631  1.930   .     S
O1625  Zn1632  1.925   .     S
O1626  Zn1629  1.920   .     S
O1627  Zn1630  1.935   .     S
O1628  Zn1631  1.932   .     S
C1633  C1643   1.433   .     S
C1633  O1727   1.268   .     A
C1633  O1725   1.268   .     A
C1634  H1711   1.082   .     S
C1634  C1670   1.404   .     A
C1634  C1635   1.398   .     A
C1635  C1659   1.521   .     S
C1635  C719    1.423   1_556 S
C1636  O1728   1.274   .     A
C1636  O1726   1.277   .     A
C1636  C1642   1.451   .     S
C1637  C1638   1.435   .     A
C1637  C1639   1.436   .     A
C1638  C1641   1.401   .     A
C1638  C1671   1.428   .     A
C1639  C1640   1.403   .     A
C1639  C1654   1.523   .     S
C1640  H1710   1.083   .     S
C1640  C1652   1.389   .     A
C1641  C1652   1.384   .     A
C1641  H1709   1.074   .     S
C1642  C1745   1.333   .     S
C1642  H1787   1.088   .     S
C1644  O1721   1.385   .     S
C1644  C1653   1.406   .     A
C1644  C1651   1.418   .     A
C1645  C1648   1.458   .     S
C1645  C1034   1.336   1_565 S
C1645  O1107   1.388   1_565 S
C1646  C1647   1.436   .     S
C1647  O1729   1.273   .     A
C1647  O1723   1.271   .     A
C1648  O1724   1.272   .     A
C1648  O1730   1.267   .     A
C1649  O1717   1.275   .     A
C1649  C1652   1.454   .     S
C1649  O1715   1.272   .     A
C1650  O1718   1.289   .     A
C1650  C1651   1.490   .     S
C1650  O1716   1.283   .     A
C1651  C1655   1.411   .     A
C1653  O1720   1.386   .     S
C1653  C1669   1.414   .     A
C1654  H1678   1.111   .     S
C1654  C1656   1.542   .     S
C1655  C1666   1.419   .     A
C1655  O1722   1.385   .     S
C1656  H1677   1.111   .     S
C1656  H1676   1.109   .     S
C1657  H1713   1.111   .     S
C1657  H1712   1.111   .     S
C1657  C636    1.529   1_556 S
C1657  H757    1.109   1_556 S
C1658  H1681   1.112   .     S
C1658  H1068   1.114   1_565 S
C1658  H1070   1.109   1_565 S
C1658  O1107   1.410   1_565 S
C1659  H1689   1.106   .     S
C1659  H1690   1.112   .     S
C1659  C1660   1.540   .     S
C1660  H1688   1.110   .     S
C1660  C1661   1.526   .     S
C1660  H1687   1.111   .     S
C1661  H1686   1.110   .     S
C1662  H1691   1.116   .     S
C1662  O1720   1.415   .     S
C1662  H673    1.109   1_556 S
C1663  O1721   1.414   .     S
C1663  H1694   1.114   .     S
C1663  H1695   1.109   .     S
C1663  H1697   1.107   .     S
C1664  O1722   1.411   .     S
C1664  H1700   1.109   .     S
C1664  H1699   1.113   .     S
C1664  H1698   1.113   .     S
C1665  C1672   1.533   .     S
C1665  H1708   1.113   .     S
C1665  C1667   1.538   .     S
C1665  H1706   1.103   .     S
C1666  C1669   1.411   .     A
C1666  C1670   1.420   .     A
C1667  C1668   1.527   .     S
C1667  H1704   1.110   .     S
C1667  H1705   1.108   .     S
C1668  H1703   1.110   .     S
C1668  H1702   1.111   .     S
C1668  H1701   1.111   .     S
C1669  C755    1.400   1_556 S
C1670  C753    1.414   1_556 S
C1671  C1672   1.436   .     A
C1672  C1673   1.405   .     A
C1673  H1674   1.081   .     S
H1679  C736    1.100   1_556 S
H1683  C1049   1.111   1_565 S
H1684  C1049   1.111   1_565 S
H1692  C1764   1.109   .     S
H1696  C1745   1.086   .     S
H1707  C1034   1.086   1_565 S
O1714  Zn1731  1.949   .     S
O1714  Zn1734  1.931   .     S
O1714  Zn1732  1.936   .     S
O1714  Zn1733  1.929   .     S
O1715  Zn1732  1.920   .     S
O1716  Zn1734  1.927   .     S
O1717  Zn1733  1.924   .     S
O1718  Zn1731  1.918   .     S
O1723  Zn1731  1.929   .     S
O1724  Zn1734  1.930   .     S
O1725  Zn1732  1.923   .     S
O1726  Zn1733  1.930   .     S
O1727  Zn1734  1.925   .     S
O1728  Zn1731  1.920   .     S
O1729  Zn1732  1.935   .     S
O1730  Zn1733  1.932   .     S
C1735  C1745   1.433   .     S
C1735  O1829   1.268   .     A
C1735  O1827   1.268   .     A
C1736  H1813   1.082   .     S
C1736  C1772   1.404   .     A
C1736  C1737   1.398   .     A
C1737  C1761   1.521   .     S
C1737  C821    1.423   1_556 S
C1738  O1830   1.274   .     A
C1738  O1828   1.277   .     A
C1738  C1744   1.451   .     S
C1739  C1740   1.435   .     A
C1739  C1741   1.436   .     A
C1740  C1743   1.401   .     A
C1740  C1773   1.428   .     A
C1741  C1742   1.403   .     A
C1741  C1756   1.523   .     S
C1742  H1812   1.083   .     S
C1742  C1754   1.389   .     A
C1743  C1754   1.384   .     A
C1743  H1811   1.074   .     S
C1744  C1541   1.333   1_655 S
C1744  H1583   1.088   1_655 S
C1746  O1823   1.385   .     S
C1746  C1755   1.406   .     A
C1746  C1753   1.418   .     A
C1747  C1750   1.458   .     S
C1747  C1136   1.336   1_565 S
C1747  O1209   1.388   1_565 S
C1748  C1749   1.436   .     S
C1749  O1831   1.273   .     A
C1749  O1825   1.271   .     A
C1750  O1826   1.272   .     A
C1750  O1832   1.267   .     A
C1751  O1819   1.275   .     A
C1751  C1754   1.454   .     S
C1751  O1817   1.272   .     A
C1752  O1820   1.289   .     A
C1752  C1753   1.490   .     S
C1752  O1818   1.283   .     A
C1753  C1757   1.411   .     A
C1755  O1822   1.386   .     S
C1755  C1771   1.414   .     A
C1756  H1780   1.111   .     S
C1756  C1758   1.542   .     S
C1757  C1768   1.419   .     A
C1757  O1824   1.385   .     S
C1758  H1779   1.111   .     S
C1758  H1778   1.109   .     S
C1758  C637    1.529   1_655 S
C1759  H1815   1.111   .     S
C1759  H1814   1.111   .     S
C1759  C738    1.529   1_556 S
C1759  H859    1.109   1_556 S
C1760  H1783   1.112   .     S
C1760  H1170   1.114   1_565 S
C1760  H1172   1.109   1_565 S
C1760  O1209   1.410   1_565 S
C1761  H1791   1.106   .     S
C1761  H1792   1.112   .     S
C1761  C1762   1.540   .     S
C1762  H1790   1.110   .     S
C1762  C1763   1.526   .     S
C1762  H1789   1.111   .     S
C1763  H1788   1.110   .     S
C1764  H1793   1.116   .     S
C1764  O1822   1.415   .     S
C1764  H775    1.109   1_556 S
C1765  O1823   1.414   .     S
C1765  H1796   1.114   .     S
C1765  H1797   1.109   .     S
C1765  H1799   1.107   .     S
C1766  O1824   1.411   .     S
C1766  H1802   1.109   .     S
C1766  H1801   1.113   .     S
C1766  H1800   1.113   .     S
C1767  C1774   1.533   .     S
C1767  H1810   1.113   .     S
C1767  C1769   1.538   .     S
C1767  H1808   1.103   .     S
C1768  C1771   1.411   .     A
C1768  C1772   1.420   .     A
C1769  C1770   1.527   .     S
C1769  H1806   1.110   .     S
C1769  H1807   1.108   .     S
C1770  H1805   1.110   .     S
C1770  H1804   1.111   .     S
C1770  H1803   1.111   .     S
C1771  C857    1.400   1_556 S
C1772  C855    1.414   1_556 S
C1773  C1774   1.436   .     A
C1774  C1775   1.405   .     A
C1775  H1776   1.081   .     S
H1781  C838    1.100   1_556 S
H1785  C1151   1.111   1_565 S
H1786  C1151   1.111   1_565 S
H1794  C1560   1.109   1_655 S
H1795  C642    1.109   1_655 S
H1798  C1541   1.086   1_655 S
H1809  C1136   1.086   1_565 S
O1816  Zn1833  1.949   .     S
O1816  Zn1836  1.931   .     S
O1816  Zn1834  1.936   .     S
O1816  Zn1835  1.929   .     S
O1817  Zn1834  1.920   .     S
O1818  Zn1836  1.927   .     S
O1819  Zn1835  1.924   .     S
O1820  Zn1833  1.918   .     S
O1825  Zn1833  1.929   .     S
O1826  Zn1836  1.930   .     S
O1827  Zn1834  1.923   .     S
O1828  Zn1835  1.930   .     S
O1829  Zn1836  1.925   .     S
O1830  Zn1833  1.920   .     S
O1831  Zn1834  1.935   .     S
O1832  Zn1835  1.932   .     S
