data_str_m1_o1_o2_pcu_sym.61
_audit_creation_date              2020-01-03
_audit_creation_method            'Materials Studio'
_symmetry_space_group_name_H-M    'P1'
_symmetry_Int_Tables_number       1
_symmetry_cell_setting            triclinic
loop_
_symmetry_equiv_pos_as_xyz
  x,y,z
_cell_length_a                    36.6520
_cell_length_b                    36.6520
_cell_length_c                    34.5681
_cell_angle_alpha                 90.0000
_cell_angle_beta                  90.0000
_cell_angle_gamma                 90.0002
loop_
_atom_site_label
_atom_site_type_symbol
_atom_site_fract_x
_atom_site_fract_y
_atom_site_fract_z
_atom_site_U_iso_or_equiv
_atom_site_adp_type
_atom_site_occupancy
C1     C     0.21967   0.48690   0.04141   0.00000  Uiso   1.00
C2     C     0.03032   0.23689   0.45859   0.00000  Uiso   1.00
C3     C     0.34813   0.40187   0.75000   0.00000  Uiso   1.00
C4     C     0.40186   0.15186   0.25000   0.00000  Uiso   1.00
C5     C     0.09813   0.34813   0.75000   0.00000  Uiso   1.00
C6     C     0.34814   0.40186   0.25000   0.00000  Uiso   1.00
C7     C     0.15187   0.09813   0.75000   0.00000  Uiso   1.00
C8     C     0.09814   0.15186   0.75000   0.00000  Uiso   1.00
C9     C     0.40187   0.34813   0.25000   0.00000  Uiso   1.00
C10    C     0.15186   0.40186   0.75000   0.00000  Uiso   1.00
C11    C     0.34813   0.09813   0.25000   0.00000  Uiso   1.00
C12    C     0.40186   0.34814   0.75000   0.00000  Uiso   1.00
C13    C     0.26311   0.46968   0.54141   0.00000  Uiso   1.00
C14    C     0.09813   0.15187   0.25000   0.00000  Uiso   1.00
C15    C     0.34814   0.09814   0.75000   0.00000  Uiso   1.00
C16    C     0.15187   0.40187   0.25000   0.00000  Uiso   1.00
C17    C     0.25000  -0.00000   0.10227   0.00000  Uiso   1.00
C18    C     0.25000  -0.00000   0.89773   0.00000  Uiso   1.00
C19    C     0.00000   0.25000   0.10227   0.00000  Uiso   1.00
C20    C     0.00000   0.25000   0.89773   0.00000  Uiso   1.00
C21    C     0.00000   0.25000   0.60227   0.00000  Uiso   1.00
C22    C     0.00000   0.25000   0.39773   0.00000  Uiso   1.00
C23    C     0.25000  -0.00000   0.60227   0.00000  Uiso   1.00
C24    C     0.26308   0.03034   0.45859   0.00000  Uiso   1.00
C25    C     0.25000   0.00000   0.39773   0.00000  Uiso   1.00
C26    C     0.19513   0.43574   0.11172   0.00000  Uiso   1.00
C27    C     0.17862   0.40968   0.08186   0.00000  Uiso   1.00
C28    C     0.18068   0.37017   0.09559   0.00000  Uiso   1.00
C29    C     0.30489   0.43575   0.88828   0.00000  Uiso   1.00
C30    C     0.32142   0.40970   0.91814   0.00000  Uiso   1.00
C31    C     0.31936   0.37018   0.90441   0.00000  Uiso   1.00
C32    C     0.06425   0.19511   0.11172   0.00000  Uiso   1.00
C33    C     0.09030   0.17858   0.08186   0.00000  Uiso   1.00
C34    C     0.12982   0.18064   0.09559   0.00000  Uiso   1.00
C35    C     0.03034   0.26308   0.54141   0.00000  Uiso   1.00
C36    C     0.06426   0.30487   0.88828   0.00000  Uiso   1.00
C37    C     0.09032   0.32138   0.91814   0.00000  Uiso   1.00
C38    C     0.12983   0.31932   0.90441   0.00000  Uiso   1.00
C39    C     0.30487   0.06426   0.11172   0.00000  Uiso   1.00
C40    C     0.32138   0.09032   0.08186   0.00000  Uiso   1.00
C41    C     0.31932   0.12983   0.09559   0.00000  Uiso   1.00
C42    C     0.19511   0.06425   0.88828   0.00000  Uiso   1.00
C43    C     0.17858   0.09030   0.91814   0.00000  Uiso   1.00
C44    C     0.18064   0.12982   0.90441   0.00000  Uiso   1.00
C45    C     0.43575   0.30489   0.11172   0.00000  Uiso   1.00
C46    C     0.46968   0.26311   0.45859   0.00000  Uiso   1.00
C47    C     0.40970   0.32142   0.08186   0.00000  Uiso   1.00
C48    C     0.37018   0.31936   0.09559   0.00000  Uiso   1.00
C49    C     0.43574   0.19513   0.88828   0.00000  Uiso   1.00
C50    C     0.40968   0.17862   0.91814   0.00000  Uiso   1.00
C51    C     0.37017   0.18068   0.90441   0.00000  Uiso   1.00
C52    C     0.44509   0.18577   0.61172   0.00000  Uiso   1.00
C53    C     0.42855   0.15972   0.58186   0.00000  Uiso   1.00
C54    C     0.43060   0.12020   0.59559   0.00000  Uiso   1.00
C55    C     0.05484   0.18571   0.38827   0.00000  Uiso   1.00
C56    C     0.07130   0.15964   0.41815   0.00000  Uiso   1.00
C57    C     0.23689   0.03032   0.54141   0.00000  Uiso   1.00
C58    C     0.06921   0.12013   0.40441   0.00000  Uiso   1.00
C59    C     0.31429   0.44516   0.61173   0.00000  Uiso   1.00
C60    C     0.34036   0.42870   0.58185   0.00000  Uiso   1.00
C61    C     0.37987   0.43079   0.59559   0.00000  Uiso   1.00
C62    C     0.31423   0.05491   0.38828   0.00000  Uiso   1.00
C63    C     0.34028   0.07145   0.41814   0.00000  Uiso   1.00
C64    C     0.37980   0.06940   0.40441   0.00000  Uiso   1.00
C65    C     0.05491   0.31423   0.61172   0.00000  Uiso   1.00
C66    C     0.07145   0.34028   0.58186   0.00000  Uiso   1.00
C67    C     0.06940   0.37980   0.59559   0.00000  Uiso   1.00
C68    C     0.23692   0.46966   0.45859   0.00000  Uiso   1.00
C69    C     0.44517   0.31429   0.38827   0.00000  Uiso   1.00
C70    C     0.42873   0.34036   0.41816   0.00000  Uiso   1.00
C71    C     0.43081   0.37987   0.40441   0.00000  Uiso   1.00
C72    C     0.18571   0.05483   0.61173   0.00000  Uiso   1.00
C73    C     0.15964   0.07127   0.58184   0.00000  Uiso   1.00
C74    C     0.12013   0.06919   0.59559   0.00000  Uiso   1.00
C75    C     0.18577   0.44509   0.38828   0.00000  Uiso   1.00
C76    C     0.15972   0.42855   0.41814   0.00000  Uiso   1.00
C77    C     0.12021   0.43060   0.40441   0.00000  Uiso   1.00
C78    C     0.21976   0.48584   0.08167   0.00000  Uiso   1.00
C79    C     0.28025   0.48585   0.91833   0.00000  Uiso   1.00
C80    C     0.01415   0.21975   0.08167   0.00000  Uiso   1.00
C81    C     0.28033   0.48691   0.95859   0.00000  Uiso   1.00
C82    C     0.01416   0.28024   0.91833   0.00000  Uiso   1.00
C83    C     0.28024   0.01416   0.08167   0.00000  Uiso   1.00
C84    C     0.21975   0.01415   0.91833   0.00000  Uiso   1.00
C85    C     0.48585   0.28025   0.08167   0.00000  Uiso   1.00
C86    C     0.48584   0.21976   0.91833   0.00000  Uiso   1.00
C87    C     0.46975   0.23586   0.58167   0.00000  Uiso   1.00
C88    C     0.03024   0.23583   0.41833   0.00000  Uiso   1.00
C89    C     0.26417   0.46976   0.58167   0.00000  Uiso   1.00
C90    C     0.26414   0.03025   0.41833   0.00000  Uiso   1.00
C91    C     0.03025   0.26414   0.58167   0.00000  Uiso   1.00
C92    C     0.01309   0.21967   0.04141   0.00000  Uiso   1.00
C93    C     0.46976   0.26418   0.41833   0.00000  Uiso   1.00
C94    C     0.23582   0.03024   0.58167   0.00000  Uiso   1.00
C95    C     0.23586   0.46975   0.41833   0.00000  Uiso   1.00
C96    C     0.25000   0.00000   0.02119   0.00000  Uiso   1.00
C97    C     0.25000  -0.00000   0.97881   0.00000  Uiso   1.00
C98    C     0.00000   0.25000   0.02119   0.00000  Uiso   1.00
C99    C     0.00000   0.25000   0.97881   0.00000  Uiso   1.00
C100   C     0.00000   0.25000   0.52119   0.00000  Uiso   1.00
C101   C     0.00000   0.25000   0.47881   0.00000  Uiso   1.00
C102   C     0.25000  -0.00000   0.52119   0.00000  Uiso   1.00
C103   C     0.01310   0.28033   0.95859   0.00000  Uiso   1.00
C104   C     0.25000  -0.00000   0.47882   0.00000  Uiso   1.00
C105   C     0.25000  -0.00000   0.35524   0.00000  Uiso   1.00
C106   C     0.25000   0.00000   0.64477   0.00000  Uiso   1.00
C107   C     0.00000   0.25000   0.35523   0.00000  Uiso   1.00
C108   C     0.00000   0.25000   0.64477   0.00000  Uiso   1.00
C109   C     0.00000   0.25000   0.85524   0.00000  Uiso   1.00
C110   C     0.00000   0.25000   0.14477   0.00000  Uiso   1.00
C111   C     0.25000   0.00000   0.85524   0.00000  Uiso   1.00
C112   C     0.25000   0.00000   0.14476   0.00000  Uiso   1.00
C113   C     0.17993   0.07007   0.25000   0.00000  Uiso   1.00
C114   C     0.28033   0.01310   0.04141   0.00000  Uiso   1.00
C115   C     0.32007   0.42993   0.75000   0.00000  Uiso   1.00
C116   C     0.42993   0.17992   0.25000   0.00000  Uiso   1.00
C117   C     0.07007   0.32007   0.75000   0.00000  Uiso   1.00
C118   C     0.32008   0.42992   0.25000   0.00000  Uiso   1.00
C119   C     0.17993   0.07007   0.75000   0.00000  Uiso   1.00
C120   C     0.07008   0.32008   0.25000   0.00000  Uiso   1.00
C121   C     0.42993   0.17993   0.75000   0.00000  Uiso   1.00
C122   C     0.17993   0.42993   0.75000   0.00000  Uiso   1.00
C123   C     0.32007   0.07007   0.25000   0.00000  Uiso   1.00
C124   C     0.42993   0.32007   0.75000   0.00000  Uiso   1.00
C125   C     0.21967   0.01309   0.95859   0.00000  Uiso   1.00
C126   C     0.07007   0.17993   0.25000   0.00000  Uiso   1.00
C127   C     0.32008   0.07007   0.75000   0.00000  Uiso   1.00
C128   C     0.17993   0.42993   0.25000   0.00000  Uiso   1.00
C129   C     0.07008   0.17993   0.75000   0.00000  Uiso   1.00
C130   C     0.42993   0.32007   0.25000   0.00000  Uiso   1.00
C131   C     0.12380   0.40296   0.22249   0.00000  Uiso   1.00
C132   C     0.37624   0.09705   0.77749   0.00000  Uiso   1.00
C133   C     0.09703   0.12379   0.22251   0.00000  Uiso   1.00
C134   C     0.40297   0.37625   0.77747   0.00000  Uiso   1.00
C135   C     0.37620   0.09704   0.22249   0.00000  Uiso   1.00
C136   C     0.48691   0.28033   0.04141   0.00000  Uiso   1.00
C137   C     0.12376   0.40295   0.77749   0.00000  Uiso   1.00
C138   C     0.40297   0.37621   0.22250   0.00000  Uiso   1.00
C139   C     0.09704   0.12375   0.77747   0.00000  Uiso   1.00
C140   C     0.12379   0.09703   0.77750   0.00000  Uiso   1.00
C141   C     0.37625   0.40296   0.22253   0.00000  Uiso   1.00
C142   C     0.09704   0.37620   0.77751   0.00000  Uiso   1.00
C143   C     0.40295   0.12376   0.22252   0.00000  Uiso   1.00
C144   C     0.37621   0.40297   0.77750   0.00000  Uiso   1.00
C145   C     0.12375   0.09703   0.22253   0.00000  Uiso   1.00
C146   C     0.40296   0.12380   0.77751   0.00000  Uiso   1.00
C147   C     0.48690   0.21967   0.95859   0.00000  Uiso   1.00
C148   C     0.09705   0.37624   0.22252   0.00000  Uiso   1.00
C149   C     0.37380   0.15296   0.72249   0.00000  Uiso   1.00
C150   C     0.12624   0.34705   0.27749   0.00000  Uiso   1.00
C151   C     0.34703   0.37379   0.72251   0.00000  Uiso   1.00
C152   C     0.15297   0.12625   0.27747   0.00000  Uiso   1.00
C153   C     0.12620   0.34704   0.72249   0.00000  Uiso   1.00
C154   C     0.37376   0.15295   0.27749   0.00000  Uiso   1.00
C155   C     0.15297   0.12621   0.72251   0.00000  Uiso   1.00
C156   C     0.34703   0.37375   0.27747   0.00000  Uiso   1.00
C157   C     0.37379   0.34703   0.27750   0.00000  Uiso   1.00
C158   C     0.46966   0.23692   0.54141   0.00000  Uiso   1.00
C159   C     0.12625   0.15297   0.72253   0.00000  Uiso   1.00
C160   C     0.34704   0.12620   0.27751   0.00000  Uiso   1.00
C161   C     0.15295   0.37376   0.72252   0.00000  Uiso   1.00
C162   C     0.12621   0.15297   0.27749   0.00000  Uiso   1.00
C163   C     0.37375   0.34703   0.72253   0.00000  Uiso   1.00
C164   C     0.15296   0.37380   0.27751   0.00000  Uiso   1.00
C165   C     0.34705   0.12624   0.72252   0.00000  Uiso   1.00
C166   C     0.09814   0.34814   0.25000   0.00000  Uiso   1.00
C167   C     0.40187   0.15187   0.75000   0.00000  Uiso   1.00
C168   C     0.15186   0.09814   0.25000   0.00000  Uiso   1.00
H169   H     0.19615   0.47657   0.02590   0.00000  Uiso   1.00
H170   H     0.05384   0.22654   0.47410   0.00000  Uiso   1.00
H171   H     0.41703   0.14958   0.92321   0.00000  Uiso   1.00
H172   H     0.41221   0.19362   0.94594   0.00000  Uiso   1.00
H173   H     0.36207   0.20954   0.89963   0.00000  Uiso   1.00
H174   H     0.35196   0.16867   0.92670   0.00000  Uiso   1.00
H175   H     0.36671   0.16516   0.87704   0.00000  Uiso   1.00
H176   H     0.43097   0.18158   0.63982   0.00000  Uiso   1.00
H177   H     0.47440   0.17884   0.61674   0.00000  Uiso   1.00
H178   H     0.39952   0.16709   0.57680   0.00000  Uiso   1.00
H179   H     0.44354   0.16224   0.55406   0.00000  Uiso   1.00
H180   H     0.45945   0.11209   0.60035   0.00000  Uiso   1.00
H181   H     0.27346   0.44616   0.52590   0.00000  Uiso   1.00
H182   H     0.41856   0.10201   0.57330   0.00000  Uiso   1.00
H183   H     0.41508   0.11676   0.62296   0.00000  Uiso   1.00
H184   H     0.06898   0.18151   0.36018   0.00000  Uiso   1.00
H185   H     0.02552   0.17883   0.38321   0.00000  Uiso   1.00
H186   H     0.10033   0.16697   0.42325   0.00000  Uiso   1.00
H187   H     0.05628   0.16218   0.44593   0.00000  Uiso   1.00
H188   H     0.04035   0.11206   0.39960   0.00000  Uiso   1.00
H189   H     0.08119   0.10191   0.42671   0.00000  Uiso   1.00
H190   H     0.08476   0.11666   0.37706   0.00000  Uiso   1.00
H191   H     0.31849   0.43102   0.63982   0.00000  Uiso   1.00
H192   H     0.27341   0.05386   0.47410   0.00000  Uiso   1.00
H193   H     0.32117   0.47448   0.61679   0.00000  Uiso   1.00
H194   H     0.33303   0.39967   0.57675   0.00000  Uiso   1.00
H195   H     0.33782   0.44372   0.55407   0.00000  Uiso   1.00
H196   H     0.38794   0.45965   0.60040   0.00000  Uiso   1.00
H197   H     0.39809   0.41881   0.57329   0.00000  Uiso   1.00
H198   H     0.38334   0.41524   0.62294   0.00000  Uiso   1.00
H199   H     0.31842   0.06903   0.36018   0.00000  Uiso   1.00
H200   H     0.32116   0.02560   0.38327   0.00000  Uiso   1.00
H201   H     0.33291   0.10048   0.42320   0.00000  Uiso   1.00
H202   H     0.33776   0.05646   0.44594   0.00000  Uiso   1.00
H203   H     0.05386   0.27340   0.52590   0.00000  Uiso   1.00
H204   H     0.38791   0.04055   0.39965   0.00000  Uiso   1.00
H205   H     0.39799   0.08144   0.42670   0.00000  Uiso   1.00
H206   H     0.38324   0.08492   0.37704   0.00000  Uiso   1.00
H207   H     0.06903   0.31842   0.63982   0.00000  Uiso   1.00
H208   H     0.02560   0.32116   0.61674   0.00000  Uiso   1.00
H209   H     0.10048   0.33291   0.57680   0.00000  Uiso   1.00
H210   H     0.05646   0.33776   0.55406   0.00000  Uiso   1.00
H211   H     0.04055   0.38791   0.60035   0.00000  Uiso   1.00
H212   H     0.08143   0.39799   0.57330   0.00000  Uiso   1.00
H213   H     0.08492   0.38324   0.62296   0.00000  Uiso   1.00
H214   H     0.44616   0.27346   0.47410   0.00000  Uiso   1.00
H215   H     0.43100   0.31849   0.36019   0.00000  Uiso   1.00
H216   H     0.47448   0.32116   0.38319   0.00000  Uiso   1.00
H217   H     0.39970   0.33304   0.42328   0.00000  Uiso   1.00
H218   H     0.44377   0.33782   0.44593   0.00000  Uiso   1.00
H219   H     0.45967   0.38794   0.39958   0.00000  Uiso   1.00
H220   H     0.41886   0.39809   0.42673   0.00000  Uiso   1.00
H221   H     0.41525   0.38334   0.37707   0.00000  Uiso   1.00
H222   H     0.18151   0.06900   0.63981   0.00000  Uiso   1.00
H223   H     0.17884   0.02552   0.61681   0.00000  Uiso   1.00
H224   H     0.16696   0.10030   0.57672   0.00000  Uiso   1.00
H225   H     0.22654   0.05384   0.52590   0.00000  Uiso   1.00
H226   H     0.16218   0.05623   0.55407   0.00000  Uiso   1.00
H227   H     0.11206   0.04033   0.60042   0.00000  Uiso   1.00
H228   H     0.10191   0.08114   0.57327   0.00000  Uiso   1.00
H229   H     0.11666   0.08475   0.62293   0.00000  Uiso   1.00
H230   H     0.18158   0.43097   0.36018   0.00000  Uiso   1.00
H231   H     0.17884   0.47440   0.38326   0.00000  Uiso   1.00
H232   H     0.16709   0.39952   0.42320   0.00000  Uiso   1.00
H233   H     0.16224   0.44354   0.44594   0.00000  Uiso   1.00
H234   H     0.11209   0.45945   0.39965   0.00000  Uiso   1.00
H235   H     0.10201   0.41857   0.42670   0.00000  Uiso   1.00
H236   H     0.22660   0.44614   0.47410   0.00000  Uiso   1.00
H237   H     0.11676   0.41508   0.37704   0.00000  Uiso   1.00
H238   H     0.12256   0.42433   0.20089   0.00000  Uiso   1.00
H239   H     0.37752   0.07564   0.79905   0.00000  Uiso   1.00
H240   H     0.07565   0.12253   0.20091   0.00000  Uiso   1.00
H241   H     0.30385   0.47658   0.97410   0.00000  Uiso   1.00
H242   H     0.42438   0.37754   0.79902   0.00000  Uiso   1.00
H243   H     0.37744   0.07567   0.20089   0.00000  Uiso   1.00
H244   H     0.12248   0.42436   0.79905   0.00000  Uiso   1.00
H245   H     0.42435   0.37746   0.20091   0.00000  Uiso   1.00
H246   H     0.07562   0.12246   0.79903   0.00000  Uiso   1.00
H247   H     0.12254   0.07565   0.79909   0.00000  Uiso   1.00
H248   H     0.37754   0.42438   0.20097   0.00000  Uiso   1.00
H249   H     0.07567   0.37744   0.79911   0.00000  Uiso   1.00
H250   H     0.42436   0.12248   0.20095   0.00000  Uiso   1.00
H251   H     0.37747   0.42435   0.79909   0.00000  Uiso   1.00
H252   H     0.02342   0.19615   0.02590   0.00000  Uiso   1.00
H253   H     0.12246   0.07562   0.20098   0.00000  Uiso   1.00
H254   H     0.42433   0.12256   0.79911   0.00000  Uiso   1.00
H255   H     0.07564   0.37752   0.20095   0.00000  Uiso   1.00
H256   H     0.37256   0.17433   0.70089   0.00000  Uiso   1.00
H257   H     0.12752   0.32564   0.29905   0.00000  Uiso   1.00
H258   H     0.32565   0.37253   0.70091   0.00000  Uiso   1.00
H259   H     0.17438   0.12754   0.29902   0.00000  Uiso   1.00
H260   H     0.12744   0.32567   0.70089   0.00000  Uiso   1.00
H261   H     0.37248   0.17436   0.29905   0.00000  Uiso   1.00
H262   H     0.17435   0.12746   0.70091   0.00000  Uiso   1.00
H263   H     0.02343   0.30385   0.97410   0.00000  Uiso   1.00
H264   H     0.32562   0.37246   0.29902   0.00000  Uiso   1.00
H265   H     0.37254   0.32565   0.29909   0.00000  Uiso   1.00
H266   H     0.12754   0.17438   0.70098   0.00000  Uiso   1.00
H267   H     0.32567   0.12744   0.29911   0.00000  Uiso   1.00
H268   H     0.17436   0.37248   0.70095   0.00000  Uiso   1.00
H269   H     0.12747   0.17435   0.29909   0.00000  Uiso   1.00
H270   H     0.37246   0.32562   0.70098   0.00000  Uiso   1.00
H271   H     0.17433   0.37256   0.29911   0.00000  Uiso   1.00
H272   H     0.32564   0.12752   0.70095   0.00000  Uiso   1.00
H273   H     0.18100   0.43155   0.13982   0.00000  Uiso   1.00
H274   H     0.30385   0.02343   0.02590   0.00000  Uiso   1.00
H275   H     0.22444   0.42883   0.11675   0.00000  Uiso   1.00
H276   H     0.14958   0.41703   0.07679   0.00000  Uiso   1.00
H277   H     0.19362   0.41221   0.05406   0.00000  Uiso   1.00
H278   H     0.20954   0.36207   0.10037   0.00000  Uiso   1.00
H279   H     0.16867   0.35196   0.07330   0.00000  Uiso   1.00
H280   H     0.16516   0.36671   0.12296   0.00000  Uiso   1.00
H281   H     0.31901   0.43156   0.86017   0.00000  Uiso   1.00
H282   H     0.27558   0.42883   0.88326   0.00000  Uiso   1.00
H283   H     0.35045   0.41706   0.92320   0.00000  Uiso   1.00
H284   H     0.30643   0.41223   0.94594   0.00000  Uiso   1.00
H285   H     0.19615   0.02342   0.97410   0.00000  Uiso   1.00
H286   H     0.29050   0.36208   0.89964   0.00000  Uiso   1.00
H287   H     0.33138   0.35198   0.92670   0.00000  Uiso   1.00
H288   H     0.33487   0.36673   0.87703   0.00000  Uiso   1.00
H289   H     0.06844   0.18099   0.13983   0.00000  Uiso   1.00
H290   H     0.07117   0.22442   0.11674   0.00000  Uiso   1.00
H291   H     0.08294   0.14955   0.07680   0.00000  Uiso   1.00
H292   H     0.08777   0.19357   0.05406   0.00000  Uiso   1.00
H293   H     0.13792   0.20950   0.10036   0.00000  Uiso   1.00
H294   H     0.14802   0.16862   0.07330   0.00000  Uiso   1.00
H295   H     0.13327   0.16513   0.12297   0.00000  Uiso   1.00
H296   H     0.47658   0.30385   0.02590   0.00000  Uiso   1.00
H297   H     0.06845   0.31900   0.86018   0.00000  Uiso   1.00
H298   H     0.07117   0.27556   0.88325   0.00000  Uiso   1.00
H299   H     0.08297   0.35042   0.92321   0.00000  Uiso   1.00
H300   H     0.08779   0.30638   0.94594   0.00000  Uiso   1.00
H301   H     0.13793   0.29046   0.89963   0.00000  Uiso   1.00
H302   H     0.14804   0.33133   0.92670   0.00000  Uiso   1.00
H303   H     0.13329   0.33484   0.87704   0.00000  Uiso   1.00
H304   H     0.31900   0.06845   0.13982   0.00000  Uiso   1.00
H305   H     0.27556   0.07117   0.11675   0.00000  Uiso   1.00
H306   H     0.35042   0.08297   0.07679   0.00000  Uiso   1.00
H307   H     0.47657   0.19615   0.97410   0.00000  Uiso   1.00
H308   H     0.30638   0.08779   0.05406   0.00000  Uiso   1.00
H309   H     0.29046   0.13793   0.10037   0.00000  Uiso   1.00
H310   H     0.33133   0.14804   0.07330   0.00000  Uiso   1.00
H311   H     0.33484   0.13329   0.12296   0.00000  Uiso   1.00
H312   H     0.18099   0.06844   0.86018   0.00000  Uiso   1.00
H313   H     0.22442   0.07117   0.88326   0.00000  Uiso   1.00
H314   H     0.14955   0.08294   0.92320   0.00000  Uiso   1.00
H315   H     0.19357   0.08777   0.94594   0.00000  Uiso   1.00
H316   H     0.20950   0.13792   0.89964   0.00000  Uiso   1.00
H317   H     0.16862   0.14802   0.92670   0.00000  Uiso   1.00
H318   H     0.44614   0.22659   0.52590   0.00000  Uiso   1.00
H319   H     0.16513   0.13327   0.87703   0.00000  Uiso   1.00
H320   H     0.43156   0.31901   0.13982   0.00000  Uiso   1.00
H321   H     0.42883   0.27558   0.11674   0.00000  Uiso   1.00
H322   H     0.41706   0.35045   0.07680   0.00000  Uiso   1.00
H323   H     0.41223   0.30643   0.05406   0.00000  Uiso   1.00
H324   H     0.36208   0.29050   0.10036   0.00000  Uiso   1.00
H325   H     0.35198   0.33138   0.07330   0.00000  Uiso   1.00
H326   H     0.36673   0.33487   0.12297   0.00000  Uiso   1.00
H327   H     0.43155   0.18100   0.86018   0.00000  Uiso   1.00
H328   H     0.42883   0.22444   0.88325   0.00000  Uiso   1.00
O329   O     0.25000  -0.00000   0.25000   0.00000  Uiso   1.00
O330   O     0.25000   0.46964   0.66317   0.00000  Uiso   1.00
O331   O     0.46964   0.25000   0.33683   0.00000  Uiso   1.00
O332   O     0.03036   0.25000   0.66317   0.00000  Uiso   1.00
O333   O     0.00000   0.21964   0.83683   0.00000  Uiso   1.00
O334   O     0.00000   0.28036   0.16317   0.00000  Uiso   1.00
O335   O     0.28036  -0.00000   0.83683   0.00000  Uiso   1.00
O336   O     0.21964   0.00000   0.16317   0.00000  Uiso   1.00
O337   O     0.00000   0.28036   0.83683   0.00000  Uiso   1.00
O338   O     0.00000   0.21964   0.16317   0.00000  Uiso   1.00
O339   O     0.21964  -0.00000   0.83683   0.00000  Uiso   1.00
O340   O     0.25000  -0.00000   0.75000   0.00000  Uiso   1.00
O341   O     0.28036   0.00000   0.16317   0.00000  Uiso   1.00
O342   O     0.20726   0.07307   0.27282   0.00000  Uiso   1.00
O343   O     0.29275   0.42693   0.72718   0.00000  Uiso   1.00
O344   O     0.42693   0.20725   0.27282   0.00000  Uiso   1.00
O345   O     0.07307   0.29275   0.72718   0.00000  Uiso   1.00
O346   O     0.29275   0.42693   0.27282   0.00000  Uiso   1.00
O347   O     0.20726   0.07307   0.72718   0.00000  Uiso   1.00
O348   O     0.07307   0.29275   0.27282   0.00000  Uiso   1.00
O349   O     0.42693   0.20725   0.72718   0.00000  Uiso   1.00
O350   O     0.20726   0.42693   0.72718   0.00000  Uiso   1.00
O351   O     0.00000   0.25000   0.25000   0.00000  Uiso   1.00
O352   O     0.29275   0.07307   0.27282   0.00000  Uiso   1.00
O353   O     0.42693   0.29274   0.72718   0.00000  Uiso   1.00
O354   O     0.07307   0.20726   0.27282   0.00000  Uiso   1.00
O355   O     0.29275   0.07307   0.72718   0.00000  Uiso   1.00
O356   O     0.20726   0.42693   0.27282   0.00000  Uiso   1.00
O357   O     0.07307   0.20726   0.72718   0.00000  Uiso   1.00
O358   O     0.42693   0.29274   0.27282   0.00000  Uiso   1.00
O359   O     0.45726   0.32307   0.77282   0.00000  Uiso   1.00
O360   O     0.04275   0.17693   0.22718   0.00000  Uiso   1.00
O361   O     0.17693   0.45726   0.77282   0.00000  Uiso   1.00
O362   O     0.00000   0.25000   0.75000   0.00000  Uiso   1.00
O363   O     0.32307   0.04274   0.22718   0.00000  Uiso   1.00
O364   O     0.04275   0.17693   0.77282   0.00000  Uiso   1.00
O365   O     0.45726   0.32307   0.22718   0.00000  Uiso   1.00
O366   O     0.32307   0.04274   0.77282   0.00000  Uiso   1.00
O367   O     0.17693   0.45726   0.22718   0.00000  Uiso   1.00
O368   O     0.45726   0.17693   0.22718   0.00000  Uiso   1.00
O369   O     0.04275   0.32307   0.77282   0.00000  Uiso   1.00
O370   O     0.17693   0.04274   0.22718   0.00000  Uiso   1.00
O371   O     0.32307   0.45725   0.77282   0.00000  Uiso   1.00
O372   O     0.04275   0.32307   0.22718   0.00000  Uiso   1.00
O373   O     0.25000   0.46964   0.33683   0.00000  Uiso   1.00
O374   O     0.45726   0.17693   0.77282   0.00000  Uiso   1.00
O375   O     0.32307   0.45725   0.22718   0.00000  Uiso   1.00
O376   O     0.17693   0.04274   0.77282   0.00000  Uiso   1.00
O377   O     0.18922   0.47244   0.10048   0.00000  Uiso   1.00
O378   O     0.31079   0.47245   0.89952   0.00000  Uiso   1.00
O379   O     0.02755   0.18921   0.10048   0.00000  Uiso   1.00
O380   O     0.02756   0.31078   0.89952   0.00000  Uiso   1.00
O381   O     0.31078   0.02756   0.10048   0.00000  Uiso   1.00
O382   O     0.18921   0.02755   0.89952   0.00000  Uiso   1.00
O383   O     0.47245   0.31079   0.10048   0.00000  Uiso   1.00
O384   O     0.25000   0.03036   0.66317   0.00000  Uiso   1.00
O385   O     0.47244   0.18922   0.89952   0.00000  Uiso   1.00
O386   O     0.43921   0.22247   0.60048   0.00000  Uiso   1.00
O387   O     0.06077   0.22241   0.39952   0.00000  Uiso   1.00
O388   O     0.27759   0.43923   0.60048   0.00000  Uiso   1.00
O389   O     0.27753   0.06079   0.39953   0.00000  Uiso   1.00
O390   O     0.06079   0.27753   0.60048   0.00000  Uiso   1.00
O391   O     0.43924   0.27759   0.39952   0.00000  Uiso   1.00
O392   O     0.22241   0.06076   0.60048   0.00000  Uiso   1.00
O393   O     0.22247   0.43921   0.39953   0.00000  Uiso   1.00
O394   O     0.03036   0.25000   0.33683   0.00000  Uiso   1.00
O395   O     0.46964   0.25000   0.66317   0.00000  Uiso   1.00
O396   O     0.25000   0.03036   0.33683   0.00000  Uiso   1.00
Zn397  Zn    0.20660  -0.00000   0.21760   0.00000  Uiso   1.00
Zn398  Zn    0.04340   0.25000   0.28240   0.00000  Uiso   1.00
Zn399  Zn    0.25000   0.45660   0.71760   0.00000  Uiso   1.00
Zn400  Zn    0.25000   0.04340   0.28240   0.00000  Uiso   1.00
Zn401  Zn    0.04340   0.25000   0.71760   0.00000  Uiso   1.00
Zn402  Zn    0.45660   0.25000   0.28240   0.00000  Uiso   1.00
Zn403  Zn    0.25000   0.04340   0.71760   0.00000  Uiso   1.00
Zn404  Zn    0.25000   0.45660   0.28240   0.00000  Uiso   1.00
Zn405  Zn    0.29340  -0.00000   0.78240   0.00000  Uiso   1.00
Zn406  Zn    0.00000   0.20660   0.21760   0.00000  Uiso   1.00
Zn407  Zn    0.00000   0.29340   0.78240   0.00000  Uiso   1.00
Zn408  Zn    0.29340  -0.00000   0.21760   0.00000  Uiso   1.00
Zn409  Zn    0.20660  -0.00000   0.78240   0.00000  Uiso   1.00
Zn410  Zn    0.00000   0.29340   0.21760   0.00000  Uiso   1.00
Zn411  Zn    0.00000   0.20660   0.78240   0.00000  Uiso   1.00
Zn412  Zn    0.45660   0.25000   0.71760   0.00000  Uiso   1.00
C413   C     0.71967   0.48690   0.04141   0.00000  Uiso   1.00
C414   C     0.53032   0.23689   0.45859   0.00000  Uiso   1.00
C415   C     0.84813   0.40187   0.75000   0.00000  Uiso   1.00
C416   C     0.90186   0.15186   0.25000   0.00000  Uiso   1.00
C417   C     0.59813   0.34813   0.75000   0.00000  Uiso   1.00
C418   C     0.84814   0.40186   0.25000   0.00000  Uiso   1.00
C419   C     0.65187   0.09813   0.75000   0.00000  Uiso   1.00
C420   C     0.59814   0.15186   0.75000   0.00000  Uiso   1.00
C421   C     0.90187   0.34813   0.25000   0.00000  Uiso   1.00
C422   C     0.65186   0.40186   0.75000   0.00000  Uiso   1.00
C423   C     0.84813   0.09813   0.25000   0.00000  Uiso   1.00
C424   C     0.90186   0.34814   0.75000   0.00000  Uiso   1.00
C425   C     0.76311   0.46968   0.54141   0.00000  Uiso   1.00
C426   C     0.59813   0.15187   0.25000   0.00000  Uiso   1.00
C427   C     0.84814   0.09814   0.75000   0.00000  Uiso   1.00
C428   C     0.65187   0.40187   0.25000   0.00000  Uiso   1.00
C429   C     0.75000  -0.00000   0.10227   0.00000  Uiso   1.00
C430   C     0.75000  -0.00000   0.89773   0.00000  Uiso   1.00
C431   C     0.50000   0.25000   0.10227   0.00000  Uiso   1.00
C432   C     0.50000   0.25000   0.89773   0.00000  Uiso   1.00
C433   C     0.50000   0.25000   0.60227   0.00000  Uiso   1.00
C434   C     0.50000   0.25000   0.39773   0.00000  Uiso   1.00
C435   C     0.75000  -0.00000   0.60227   0.00000  Uiso   1.00
C436   C     0.76308   0.03034   0.45859   0.00000  Uiso   1.00
C437   C     0.75000   0.00000   0.39773   0.00000  Uiso   1.00
C438   C     0.69513   0.43574   0.11172   0.00000  Uiso   1.00
C439   C     0.67862   0.40968   0.08186   0.00000  Uiso   1.00
C440   C     0.68068   0.37017   0.09559   0.00000  Uiso   1.00
C441   C     0.80489   0.43575   0.88828   0.00000  Uiso   1.00
C442   C     0.82142   0.40970   0.91814   0.00000  Uiso   1.00
C443   C     0.81936   0.37018   0.90441   0.00000  Uiso   1.00
C444   C     0.56425   0.19511   0.11172   0.00000  Uiso   1.00
C445   C     0.59030   0.17858   0.08186   0.00000  Uiso   1.00
C446   C     0.62982   0.18064   0.09559   0.00000  Uiso   1.00
C447   C     0.53034   0.26308   0.54141   0.00000  Uiso   1.00
C448   C     0.56426   0.30487   0.88828   0.00000  Uiso   1.00
C449   C     0.59032   0.32138   0.91814   0.00000  Uiso   1.00
C450   C     0.62983   0.31932   0.90441   0.00000  Uiso   1.00
C451   C     0.80487   0.06426   0.11172   0.00000  Uiso   1.00
C452   C     0.82138   0.09032   0.08186   0.00000  Uiso   1.00
C453   C     0.81932   0.12983   0.09559   0.00000  Uiso   1.00
C454   C     0.69511   0.06425   0.88828   0.00000  Uiso   1.00
C455   C     0.67858   0.09030   0.91814   0.00000  Uiso   1.00
C456   C     0.68064   0.12982   0.90441   0.00000  Uiso   1.00
C457   C     0.93575   0.30489   0.11172   0.00000  Uiso   1.00
C458   C     0.96968   0.26311   0.45859   0.00000  Uiso   1.00
C459   C     0.90970   0.32142   0.08186   0.00000  Uiso   1.00
C460   C     0.87018   0.31936   0.09559   0.00000  Uiso   1.00
C461   C     0.93574   0.19513   0.88828   0.00000  Uiso   1.00
C462   C     0.90968   0.17862   0.91814   0.00000  Uiso   1.00
C463   C     0.87017   0.18068   0.90441   0.00000  Uiso   1.00
C464   C     0.94509   0.18577   0.61172   0.00000  Uiso   1.00
C465   C     0.92855   0.15972   0.58186   0.00000  Uiso   1.00
C466   C     0.93060   0.12020   0.59559   0.00000  Uiso   1.00
C467   C     0.55484   0.18571   0.38827   0.00000  Uiso   1.00
C468   C     0.57130   0.15964   0.41815   0.00000  Uiso   1.00
C469   C     0.73689   0.03032   0.54141   0.00000  Uiso   1.00
C470   C     0.56921   0.12013   0.40441   0.00000  Uiso   1.00
C471   C     0.81429   0.44516   0.61173   0.00000  Uiso   1.00
C472   C     0.84036   0.42870   0.58185   0.00000  Uiso   1.00
C473   C     0.87987   0.43079   0.59559   0.00000  Uiso   1.00
C474   C     0.81423   0.05491   0.38828   0.00000  Uiso   1.00
C475   C     0.84028   0.07145   0.41814   0.00000  Uiso   1.00
C476   C     0.87980   0.06940   0.40441   0.00000  Uiso   1.00
C477   C     0.55491   0.31423   0.61172   0.00000  Uiso   1.00
C478   C     0.57145   0.34028   0.58186   0.00000  Uiso   1.00
C479   C     0.56940   0.37980   0.59559   0.00000  Uiso   1.00
C480   C     0.73692   0.46966   0.45859   0.00000  Uiso   1.00
C481   C     0.94517   0.31429   0.38827   0.00000  Uiso   1.00
C482   C     0.92873   0.34036   0.41816   0.00000  Uiso   1.00
C483   C     0.93081   0.37987   0.40441   0.00000  Uiso   1.00
C484   C     0.68571   0.05483   0.61173   0.00000  Uiso   1.00
C485   C     0.65964   0.07127   0.58184   0.00000  Uiso   1.00
C486   C     0.62013   0.06919   0.59559   0.00000  Uiso   1.00
C487   C     0.68577   0.44509   0.38828   0.00000  Uiso   1.00
C488   C     0.65972   0.42855   0.41814   0.00000  Uiso   1.00
C489   C     0.62021   0.43060   0.40441   0.00000  Uiso   1.00
C490   C     0.71976   0.48584   0.08167   0.00000  Uiso   1.00
C491   C     0.78025   0.48585   0.91833   0.00000  Uiso   1.00
C492   C     0.51415   0.21975   0.08167   0.00000  Uiso   1.00
C493   C     0.78033   0.48691   0.95859   0.00000  Uiso   1.00
C494   C     0.51416   0.28024   0.91833   0.00000  Uiso   1.00
C495   C     0.78024   0.01416   0.08167   0.00000  Uiso   1.00
C496   C     0.71975   0.01415   0.91833   0.00000  Uiso   1.00
C497   C     0.98585   0.28025   0.08167   0.00000  Uiso   1.00
C498   C     0.98584   0.21976   0.91833   0.00000  Uiso   1.00
C499   C     0.96975   0.23586   0.58167   0.00000  Uiso   1.00
C500   C     0.53024   0.23583   0.41833   0.00000  Uiso   1.00
C501   C     0.76417   0.46976   0.58167   0.00000  Uiso   1.00
C502   C     0.76414   0.03025   0.41833   0.00000  Uiso   1.00
C503   C     0.53025   0.26414   0.58167   0.00000  Uiso   1.00
C504   C     0.51309   0.21967   0.04141   0.00000  Uiso   1.00
C505   C     0.96976   0.26418   0.41833   0.00000  Uiso   1.00
C506   C     0.73582   0.03024   0.58167   0.00000  Uiso   1.00
C507   C     0.73586   0.46975   0.41833   0.00000  Uiso   1.00
C508   C     0.75000   0.00000   0.02119   0.00000  Uiso   1.00
C509   C     0.75000  -0.00000   0.97881   0.00000  Uiso   1.00
C510   C     0.50000   0.25000   0.02119   0.00000  Uiso   1.00
C511   C     0.50000   0.25000   0.97881   0.00000  Uiso   1.00
C512   C     0.50000   0.25000   0.52119   0.00000  Uiso   1.00
C513   C     0.50000   0.25000   0.47881   0.00000  Uiso   1.00
C514   C     0.75000  -0.00000   0.52119   0.00000  Uiso   1.00
C515   C     0.51310   0.28033   0.95859   0.00000  Uiso   1.00
C516   C     0.75000  -0.00000   0.47882   0.00000  Uiso   1.00
C517   C     0.75000  -0.00000   0.35524   0.00000  Uiso   1.00
C518   C     0.75000   0.00000   0.64477   0.00000  Uiso   1.00
C519   C     0.50000   0.25000   0.35523   0.00000  Uiso   1.00
C520   C     0.50000   0.25000   0.64477   0.00000  Uiso   1.00
C521   C     0.50000   0.25000   0.85524   0.00000  Uiso   1.00
C522   C     0.50000   0.25000   0.14477   0.00000  Uiso   1.00
C523   C     0.75000   0.00000   0.85524   0.00000  Uiso   1.00
C524   C     0.75000   0.00000   0.14476   0.00000  Uiso   1.00
C525   C     0.67993   0.07007   0.25000   0.00000  Uiso   1.00
C526   C     0.78033   0.01310   0.04141   0.00000  Uiso   1.00
C527   C     0.82007   0.42993   0.75000   0.00000  Uiso   1.00
C528   C     0.92993   0.17992   0.25000   0.00000  Uiso   1.00
C529   C     0.57007   0.32007   0.75000   0.00000  Uiso   1.00
C530   C     0.82008   0.42992   0.25000   0.00000  Uiso   1.00
C531   C     0.67993   0.07007   0.75000   0.00000  Uiso   1.00
C532   C     0.57008   0.32008   0.25000   0.00000  Uiso   1.00
C533   C     0.92993   0.17993   0.75000   0.00000  Uiso   1.00
C534   C     0.67993   0.42993   0.75000   0.00000  Uiso   1.00
C535   C     0.82007   0.07007   0.25000   0.00000  Uiso   1.00
C536   C     0.92993   0.32007   0.75000   0.00000  Uiso   1.00
C537   C     0.71967   0.01309   0.95859   0.00000  Uiso   1.00
C538   C     0.57007   0.17993   0.25000   0.00000  Uiso   1.00
C539   C     0.82008   0.07007   0.75000   0.00000  Uiso   1.00
C540   C     0.67993   0.42993   0.25000   0.00000  Uiso   1.00
C541   C     0.57008   0.17993   0.75000   0.00000  Uiso   1.00
C542   C     0.92993   0.32007   0.25000   0.00000  Uiso   1.00
C543   C     0.62380   0.40296   0.22249   0.00000  Uiso   1.00
C544   C     0.87624   0.09705   0.77749   0.00000  Uiso   1.00
C545   C     0.59703   0.12379   0.22251   0.00000  Uiso   1.00
C546   C     0.90297   0.37625   0.77747   0.00000  Uiso   1.00
C547   C     0.87620   0.09704   0.22249   0.00000  Uiso   1.00
C548   C     0.98691   0.28033   0.04141   0.00000  Uiso   1.00
C549   C     0.62376   0.40295   0.77749   0.00000  Uiso   1.00
C550   C     0.90297   0.37621   0.22250   0.00000  Uiso   1.00
C551   C     0.59704   0.12375   0.77747   0.00000  Uiso   1.00
C552   C     0.62379   0.09703   0.77750   0.00000  Uiso   1.00
C553   C     0.87625   0.40296   0.22253   0.00000  Uiso   1.00
C554   C     0.59704   0.37620   0.77751   0.00000  Uiso   1.00
C555   C     0.90295   0.12376   0.22252   0.00000  Uiso   1.00
C556   C     0.87621   0.40297   0.77750   0.00000  Uiso   1.00
C557   C     0.62375   0.09703   0.22253   0.00000  Uiso   1.00
C558   C     0.90296   0.12380   0.77751   0.00000  Uiso   1.00
C559   C     0.98690   0.21967   0.95859   0.00000  Uiso   1.00
C560   C     0.59705   0.37624   0.22252   0.00000  Uiso   1.00
C561   C     0.87380   0.15296   0.72249   0.00000  Uiso   1.00
C562   C     0.62624   0.34705   0.27749   0.00000  Uiso   1.00
C563   C     0.84703   0.37379   0.72251   0.00000  Uiso   1.00
C564   C     0.65297   0.12625   0.27747   0.00000  Uiso   1.00
C565   C     0.62620   0.34704   0.72249   0.00000  Uiso   1.00
C566   C     0.87376   0.15295   0.27749   0.00000  Uiso   1.00
C567   C     0.65297   0.12621   0.72251   0.00000  Uiso   1.00
C568   C     0.84703   0.37375   0.27747   0.00000  Uiso   1.00
C569   C     0.87379   0.34703   0.27750   0.00000  Uiso   1.00
C570   C     0.96966   0.23692   0.54141   0.00000  Uiso   1.00
C571   C     0.62625   0.15297   0.72253   0.00000  Uiso   1.00
C572   C     0.84704   0.12620   0.27751   0.00000  Uiso   1.00
C573   C     0.65295   0.37376   0.72252   0.00000  Uiso   1.00
C574   C     0.62621   0.15297   0.27749   0.00000  Uiso   1.00
C575   C     0.87375   0.34703   0.72253   0.00000  Uiso   1.00
C576   C     0.65296   0.37380   0.27751   0.00000  Uiso   1.00
C577   C     0.84705   0.12624   0.72252   0.00000  Uiso   1.00
C578   C     0.59814   0.34814   0.25000   0.00000  Uiso   1.00
C579   C     0.90187   0.15187   0.75000   0.00000  Uiso   1.00
C580   C     0.65186   0.09814   0.25000   0.00000  Uiso   1.00
H581   H     0.69615   0.47657   0.02590   0.00000  Uiso   1.00
H582   H     0.55384   0.22654   0.47410   0.00000  Uiso   1.00
H583   H     0.91703   0.14958   0.92321   0.00000  Uiso   1.00
H584   H     0.91221   0.19362   0.94594   0.00000  Uiso   1.00
H585   H     0.86207   0.20954   0.89963   0.00000  Uiso   1.00
H586   H     0.85196   0.16867   0.92670   0.00000  Uiso   1.00
H587   H     0.86671   0.16516   0.87704   0.00000  Uiso   1.00
H588   H     0.93097   0.18158   0.63982   0.00000  Uiso   1.00
H589   H     0.97440   0.17884   0.61674   0.00000  Uiso   1.00
H590   H     0.89952   0.16709   0.57680   0.00000  Uiso   1.00
H591   H     0.94354   0.16224   0.55406   0.00000  Uiso   1.00
H592   H     0.95945   0.11209   0.60035   0.00000  Uiso   1.00
H593   H     0.77346   0.44616   0.52590   0.00000  Uiso   1.00
H594   H     0.91856   0.10201   0.57330   0.00000  Uiso   1.00
H595   H     0.91508   0.11676   0.62296   0.00000  Uiso   1.00
H596   H     0.56898   0.18151   0.36018   0.00000  Uiso   1.00
H597   H     0.52552   0.17883   0.38321   0.00000  Uiso   1.00
H598   H     0.60033   0.16697   0.42325   0.00000  Uiso   1.00
H599   H     0.55628   0.16218   0.44593   0.00000  Uiso   1.00
H600   H     0.54035   0.11206   0.39960   0.00000  Uiso   1.00
H601   H     0.58119   0.10191   0.42671   0.00000  Uiso   1.00
H602   H     0.58476   0.11666   0.37706   0.00000  Uiso   1.00
H603   H     0.81849   0.43102   0.63982   0.00000  Uiso   1.00
H604   H     0.77341   0.05386   0.47410   0.00000  Uiso   1.00
H605   H     0.82117   0.47448   0.61679   0.00000  Uiso   1.00
H606   H     0.83303   0.39967   0.57675   0.00000  Uiso   1.00
H607   H     0.83782   0.44372   0.55407   0.00000  Uiso   1.00
H608   H     0.88794   0.45965   0.60040   0.00000  Uiso   1.00
H609   H     0.89809   0.41881   0.57329   0.00000  Uiso   1.00
H610   H     0.88334   0.41524   0.62294   0.00000  Uiso   1.00
H611   H     0.81842   0.06903   0.36018   0.00000  Uiso   1.00
H612   H     0.82116   0.02560   0.38327   0.00000  Uiso   1.00
H613   H     0.83291   0.10048   0.42320   0.00000  Uiso   1.00
H614   H     0.83776   0.05646   0.44594   0.00000  Uiso   1.00
H615   H     0.55386   0.27340   0.52590   0.00000  Uiso   1.00
H616   H     0.88791   0.04055   0.39965   0.00000  Uiso   1.00
H617   H     0.89799   0.08144   0.42670   0.00000  Uiso   1.00
H618   H     0.88324   0.08492   0.37704   0.00000  Uiso   1.00
H619   H     0.56903   0.31842   0.63982   0.00000  Uiso   1.00
H620   H     0.52560   0.32116   0.61674   0.00000  Uiso   1.00
H621   H     0.60048   0.33291   0.57680   0.00000  Uiso   1.00
H622   H     0.55646   0.33776   0.55406   0.00000  Uiso   1.00
H623   H     0.54055   0.38791   0.60035   0.00000  Uiso   1.00
H624   H     0.58143   0.39799   0.57330   0.00000  Uiso   1.00
H625   H     0.58492   0.38324   0.62296   0.00000  Uiso   1.00
H626   H     0.94616   0.27346   0.47410   0.00000  Uiso   1.00
H627   H     0.93100   0.31849   0.36019   0.00000  Uiso   1.00
H628   H     0.97448   0.32116   0.38319   0.00000  Uiso   1.00
H629   H     0.89970   0.33304   0.42328   0.00000  Uiso   1.00
H630   H     0.94377   0.33782   0.44593   0.00000  Uiso   1.00
H631   H     0.95967   0.38794   0.39958   0.00000  Uiso   1.00
H632   H     0.91886   0.39809   0.42673   0.00000  Uiso   1.00
H633   H     0.91525   0.38334   0.37707   0.00000  Uiso   1.00
H634   H     0.68151   0.06900   0.63981   0.00000  Uiso   1.00
H635   H     0.67884   0.02552   0.61681   0.00000  Uiso   1.00
H636   H     0.66696   0.10030   0.57672   0.00000  Uiso   1.00
H637   H     0.72654   0.05384   0.52590   0.00000  Uiso   1.00
H638   H     0.66218   0.05623   0.55407   0.00000  Uiso   1.00
H639   H     0.61206   0.04033   0.60042   0.00000  Uiso   1.00
H640   H     0.60191   0.08114   0.57327   0.00000  Uiso   1.00
H641   H     0.61666   0.08475   0.62293   0.00000  Uiso   1.00
H642   H     0.68158   0.43097   0.36018   0.00000  Uiso   1.00
H643   H     0.67884   0.47440   0.38326   0.00000  Uiso   1.00
H644   H     0.66709   0.39952   0.42320   0.00000  Uiso   1.00
H645   H     0.66224   0.44354   0.44594   0.00000  Uiso   1.00
H646   H     0.61209   0.45945   0.39965   0.00000  Uiso   1.00
H647   H     0.60201   0.41857   0.42670   0.00000  Uiso   1.00
H648   H     0.72660   0.44614   0.47410   0.00000  Uiso   1.00
H649   H     0.61676   0.41508   0.37704   0.00000  Uiso   1.00
H650   H     0.62256   0.42433   0.20089   0.00000  Uiso   1.00
H651   H     0.87752   0.07564   0.79905   0.00000  Uiso   1.00
H652   H     0.57565   0.12253   0.20091   0.00000  Uiso   1.00
H653   H     0.80385   0.47658   0.97410   0.00000  Uiso   1.00
H654   H     0.92438   0.37754   0.79902   0.00000  Uiso   1.00
H655   H     0.87744   0.07567   0.20089   0.00000  Uiso   1.00
H656   H     0.62248   0.42436   0.79905   0.00000  Uiso   1.00
H657   H     0.92435   0.37746   0.20091   0.00000  Uiso   1.00
H658   H     0.57562   0.12246   0.79903   0.00000  Uiso   1.00
H659   H     0.62254   0.07565   0.79909   0.00000  Uiso   1.00
H660   H     0.87754   0.42438   0.20097   0.00000  Uiso   1.00
H661   H     0.57567   0.37744   0.79911   0.00000  Uiso   1.00
H662   H     0.92436   0.12248   0.20095   0.00000  Uiso   1.00
H663   H     0.87747   0.42435   0.79909   0.00000  Uiso   1.00
H664   H     0.52342   0.19615   0.02590   0.00000  Uiso   1.00
H665   H     0.62246   0.07562   0.20098   0.00000  Uiso   1.00
H666   H     0.92433   0.12256   0.79911   0.00000  Uiso   1.00
H667   H     0.57564   0.37752   0.20095   0.00000  Uiso   1.00
H668   H     0.87256   0.17433   0.70089   0.00000  Uiso   1.00
H669   H     0.62752   0.32564   0.29905   0.00000  Uiso   1.00
H670   H     0.82565   0.37253   0.70091   0.00000  Uiso   1.00
H671   H     0.67438   0.12754   0.29902   0.00000  Uiso   1.00
H672   H     0.62744   0.32567   0.70089   0.00000  Uiso   1.00
H673   H     0.87248   0.17436   0.29905   0.00000  Uiso   1.00
H674   H     0.67435   0.12746   0.70091   0.00000  Uiso   1.00
H675   H     0.52343   0.30385   0.97410   0.00000  Uiso   1.00
H676   H     0.82562   0.37246   0.29902   0.00000  Uiso   1.00
H677   H     0.87254   0.32565   0.29909   0.00000  Uiso   1.00
H678   H     0.62754   0.17438   0.70098   0.00000  Uiso   1.00
H679   H     0.82567   0.12744   0.29911   0.00000  Uiso   1.00
H680   H     0.67436   0.37248   0.70095   0.00000  Uiso   1.00
H681   H     0.62747   0.17435   0.29909   0.00000  Uiso   1.00
H682   H     0.87246   0.32562   0.70098   0.00000  Uiso   1.00
H683   H     0.67433   0.37256   0.29911   0.00000  Uiso   1.00
H684   H     0.82564   0.12752   0.70095   0.00000  Uiso   1.00
H685   H     0.68100   0.43155   0.13982   0.00000  Uiso   1.00
H686   H     0.80385   0.02343   0.02590   0.00000  Uiso   1.00
H687   H     0.72444   0.42883   0.11675   0.00000  Uiso   1.00
H688   H     0.64958   0.41703   0.07679   0.00000  Uiso   1.00
H689   H     0.69362   0.41221   0.05406   0.00000  Uiso   1.00
H690   H     0.70954   0.36207   0.10037   0.00000  Uiso   1.00
H691   H     0.66867   0.35196   0.07330   0.00000  Uiso   1.00
H692   H     0.66516   0.36671   0.12296   0.00000  Uiso   1.00
H693   H     0.81901   0.43156   0.86017   0.00000  Uiso   1.00
H694   H     0.77558   0.42883   0.88326   0.00000  Uiso   1.00
H695   H     0.85045   0.41706   0.92320   0.00000  Uiso   1.00
H696   H     0.80643   0.41223   0.94594   0.00000  Uiso   1.00
H697   H     0.69615   0.02342   0.97410   0.00000  Uiso   1.00
H698   H     0.79050   0.36208   0.89964   0.00000  Uiso   1.00
H699   H     0.83138   0.35198   0.92670   0.00000  Uiso   1.00
H700   H     0.83487   0.36673   0.87703   0.00000  Uiso   1.00
H701   H     0.56844   0.18099   0.13983   0.00000  Uiso   1.00
H702   H     0.57117   0.22442   0.11674   0.00000  Uiso   1.00
H703   H     0.58294   0.14955   0.07680   0.00000  Uiso   1.00
H704   H     0.58777   0.19357   0.05406   0.00000  Uiso   1.00
H705   H     0.63792   0.20950   0.10036   0.00000  Uiso   1.00
H706   H     0.64802   0.16862   0.07330   0.00000  Uiso   1.00
H707   H     0.63327   0.16513   0.12297   0.00000  Uiso   1.00
H708   H     0.97658   0.30385   0.02590   0.00000  Uiso   1.00
H709   H     0.56845   0.31900   0.86018   0.00000  Uiso   1.00
H710   H     0.57117   0.27556   0.88325   0.00000  Uiso   1.00
H711   H     0.58297   0.35042   0.92321   0.00000  Uiso   1.00
H712   H     0.58779   0.30638   0.94594   0.00000  Uiso   1.00
H713   H     0.63793   0.29046   0.89963   0.00000  Uiso   1.00
H714   H     0.64804   0.33133   0.92670   0.00000  Uiso   1.00
H715   H     0.63329   0.33484   0.87704   0.00000  Uiso   1.00
H716   H     0.81900   0.06845   0.13982   0.00000  Uiso   1.00
H717   H     0.77556   0.07117   0.11675   0.00000  Uiso   1.00
H718   H     0.85042   0.08297   0.07679   0.00000  Uiso   1.00
H719   H     0.97657   0.19615   0.97410   0.00000  Uiso   1.00
H720   H     0.80638   0.08779   0.05406   0.00000  Uiso   1.00
H721   H     0.79046   0.13793   0.10037   0.00000  Uiso   1.00
H722   H     0.83133   0.14804   0.07330   0.00000  Uiso   1.00
H723   H     0.83484   0.13329   0.12296   0.00000  Uiso   1.00
H724   H     0.68099   0.06844   0.86018   0.00000  Uiso   1.00
H725   H     0.72442   0.07117   0.88326   0.00000  Uiso   1.00
H726   H     0.64955   0.08294   0.92320   0.00000  Uiso   1.00
H727   H     0.69357   0.08777   0.94594   0.00000  Uiso   1.00
H728   H     0.70950   0.13792   0.89964   0.00000  Uiso   1.00
H729   H     0.66862   0.14802   0.92670   0.00000  Uiso   1.00
H730   H     0.94614   0.22659   0.52590   0.00000  Uiso   1.00
H731   H     0.66513   0.13327   0.87703   0.00000  Uiso   1.00
H732   H     0.93156   0.31901   0.13982   0.00000  Uiso   1.00
H733   H     0.92883   0.27558   0.11674   0.00000  Uiso   1.00
H734   H     0.91706   0.35045   0.07680   0.00000  Uiso   1.00
H735   H     0.91223   0.30643   0.05406   0.00000  Uiso   1.00
H736   H     0.86208   0.29050   0.10036   0.00000  Uiso   1.00
H737   H     0.85198   0.33138   0.07330   0.00000  Uiso   1.00
H738   H     0.86673   0.33487   0.12297   0.00000  Uiso   1.00
H739   H     0.93155   0.18100   0.86018   0.00000  Uiso   1.00
H740   H     0.92883   0.22444   0.88325   0.00000  Uiso   1.00
O741   O     0.75000  -0.00000   0.25000   0.00000  Uiso   1.00
O742   O     0.75000   0.46964   0.66317   0.00000  Uiso   1.00
O743   O     0.96964   0.25000   0.33683   0.00000  Uiso   1.00
O744   O     0.53036   0.25000   0.66317   0.00000  Uiso   1.00
O745   O     0.50000   0.21964   0.83683   0.00000  Uiso   1.00
O746   O     0.50000   0.28036   0.16317   0.00000  Uiso   1.00
O747   O     0.78036  -0.00000   0.83683   0.00000  Uiso   1.00
O748   O     0.71964   0.00000   0.16317   0.00000  Uiso   1.00
O749   O     0.50000   0.28036   0.83683   0.00000  Uiso   1.00
O750   O     0.50000   0.21964   0.16317   0.00000  Uiso   1.00
O751   O     0.71964  -0.00000   0.83683   0.00000  Uiso   1.00
O752   O     0.75000  -0.00000   0.75000   0.00000  Uiso   1.00
O753   O     0.78036   0.00000   0.16317   0.00000  Uiso   1.00
O754   O     0.70726   0.07307   0.27282   0.00000  Uiso   1.00
O755   O     0.79275   0.42693   0.72718   0.00000  Uiso   1.00
O756   O     0.92693   0.20725   0.27282   0.00000  Uiso   1.00
O757   O     0.57307   0.29275   0.72718   0.00000  Uiso   1.00
O758   O     0.79275   0.42693   0.27282   0.00000  Uiso   1.00
O759   O     0.70726   0.07307   0.72718   0.00000  Uiso   1.00
O760   O     0.57307   0.29275   0.27282   0.00000  Uiso   1.00
O761   O     0.92693   0.20725   0.72718   0.00000  Uiso   1.00
O762   O     0.70726   0.42693   0.72718   0.00000  Uiso   1.00
O763   O     0.50000   0.25000   0.25000   0.00000  Uiso   1.00
O764   O     0.79275   0.07307   0.27282   0.00000  Uiso   1.00
O765   O     0.92693   0.29274   0.72718   0.00000  Uiso   1.00
O766   O     0.57307   0.20726   0.27282   0.00000  Uiso   1.00
O767   O     0.79275   0.07307   0.72718   0.00000  Uiso   1.00
O768   O     0.70726   0.42693   0.27282   0.00000  Uiso   1.00
O769   O     0.57307   0.20726   0.72718   0.00000  Uiso   1.00
O770   O     0.92693   0.29274   0.27282   0.00000  Uiso   1.00
O771   O     0.95726   0.32307   0.77282   0.00000  Uiso   1.00
O772   O     0.54275   0.17693   0.22718   0.00000  Uiso   1.00
O773   O     0.67693   0.45726   0.77282   0.00000  Uiso   1.00
O774   O     0.50000   0.25000   0.75000   0.00000  Uiso   1.00
O775   O     0.82307   0.04274   0.22718   0.00000  Uiso   1.00
O776   O     0.54275   0.17693   0.77282   0.00000  Uiso   1.00
O777   O     0.95726   0.32307   0.22718   0.00000  Uiso   1.00
O778   O     0.82307   0.04274   0.77282   0.00000  Uiso   1.00
O779   O     0.67693   0.45726   0.22718   0.00000  Uiso   1.00
O780   O     0.95726   0.17693   0.22718   0.00000  Uiso   1.00
O781   O     0.54275   0.32307   0.77282   0.00000  Uiso   1.00
O782   O     0.67693   0.04274   0.22718   0.00000  Uiso   1.00
O783   O     0.82307   0.45725   0.77282   0.00000  Uiso   1.00
O784   O     0.54275   0.32307   0.22718   0.00000  Uiso   1.00
O785   O     0.75000   0.46964   0.33683   0.00000  Uiso   1.00
O786   O     0.95726   0.17693   0.77282   0.00000  Uiso   1.00
O787   O     0.82307   0.45725   0.22718   0.00000  Uiso   1.00
O788   O     0.67693   0.04274   0.77282   0.00000  Uiso   1.00
O789   O     0.68922   0.47244   0.10048   0.00000  Uiso   1.00
O790   O     0.81079   0.47245   0.89952   0.00000  Uiso   1.00
O791   O     0.52755   0.18921   0.10048   0.00000  Uiso   1.00
O792   O     0.52756   0.31078   0.89952   0.00000  Uiso   1.00
O793   O     0.81078   0.02756   0.10048   0.00000  Uiso   1.00
O794   O     0.68921   0.02755   0.89952   0.00000  Uiso   1.00
O795   O     0.97245   0.31079   0.10048   0.00000  Uiso   1.00
O796   O     0.75000   0.03036   0.66317   0.00000  Uiso   1.00
O797   O     0.97244   0.18922   0.89952   0.00000  Uiso   1.00
O798   O     0.93921   0.22247   0.60048   0.00000  Uiso   1.00
O799   O     0.56077   0.22241   0.39952   0.00000  Uiso   1.00
O800   O     0.77759   0.43923   0.60048   0.00000  Uiso   1.00
O801   O     0.77753   0.06079   0.39953   0.00000  Uiso   1.00
O802   O     0.56079   0.27753   0.60048   0.00000  Uiso   1.00
O803   O     0.93924   0.27759   0.39952   0.00000  Uiso   1.00
O804   O     0.72241   0.06076   0.60048   0.00000  Uiso   1.00
O805   O     0.72247   0.43921   0.39953   0.00000  Uiso   1.00
O806   O     0.53036   0.25000   0.33683   0.00000  Uiso   1.00
O807   O     0.96964   0.25000   0.66317   0.00000  Uiso   1.00
O808   O     0.75000   0.03036   0.33683   0.00000  Uiso   1.00
Zn809  Zn    0.70660  -0.00000   0.21760   0.00000  Uiso   1.00
Zn810  Zn    0.54340   0.25000   0.28240   0.00000  Uiso   1.00
Zn811  Zn    0.75000   0.45660   0.71760   0.00000  Uiso   1.00
Zn812  Zn    0.75000   0.04340   0.28240   0.00000  Uiso   1.00
Zn813  Zn    0.54340   0.25000   0.71760   0.00000  Uiso   1.00
Zn814  Zn    0.95660   0.25000   0.28240   0.00000  Uiso   1.00
Zn815  Zn    0.75000   0.04340   0.71760   0.00000  Uiso   1.00
Zn816  Zn    0.75000   0.45660   0.28240   0.00000  Uiso   1.00
Zn817  Zn    0.79340  -0.00000   0.78240   0.00000  Uiso   1.00
Zn818  Zn    0.50000   0.20660   0.21760   0.00000  Uiso   1.00
Zn819  Zn    0.50000   0.29340   0.78240   0.00000  Uiso   1.00
Zn820  Zn    0.79340  -0.00000   0.21760   0.00000  Uiso   1.00
Zn821  Zn    0.70660  -0.00000   0.78240   0.00000  Uiso   1.00
Zn822  Zn    0.50000   0.29340   0.21760   0.00000  Uiso   1.00
Zn823  Zn    0.50000   0.20660   0.78240   0.00000  Uiso   1.00
Zn824  Zn    0.95660   0.25000   0.71760   0.00000  Uiso   1.00
C825   C     0.21967   0.98690   0.04141   0.00000  Uiso   1.00
C826   C     0.03032   0.73689   0.45859   0.00000  Uiso   1.00
C827   C     0.34813   0.90187   0.75000   0.00000  Uiso   1.00
C828   C     0.40186   0.65186   0.25000   0.00000  Uiso   1.00
C829   C     0.09813   0.84813   0.75000   0.00000  Uiso   1.00
C830   C     0.34814   0.90186   0.25000   0.00000  Uiso   1.00
C831   C     0.15187   0.59813   0.75000   0.00000  Uiso   1.00
C832   C     0.09814   0.65186   0.75000   0.00000  Uiso   1.00
C833   C     0.40187   0.84813   0.25000   0.00000  Uiso   1.00
C834   C     0.15186   0.90186   0.75000   0.00000  Uiso   1.00
C835   C     0.34813   0.59813   0.25000   0.00000  Uiso   1.00
C836   C     0.40186   0.84814   0.75000   0.00000  Uiso   1.00
C837   C     0.26311   0.96968   0.54141   0.00000  Uiso   1.00
C838   C     0.09813   0.65187   0.25000   0.00000  Uiso   1.00
C839   C     0.34814   0.59814   0.75000   0.00000  Uiso   1.00
C840   C     0.15187   0.90187   0.25000   0.00000  Uiso   1.00
C841   C     0.25000   0.50000   0.10227   0.00000  Uiso   1.00
C842   C     0.25000   0.50000   0.89773   0.00000  Uiso   1.00
C843   C     0.00000   0.75000   0.10227   0.00000  Uiso   1.00
C844   C     0.00000   0.75000   0.89773   0.00000  Uiso   1.00
C845   C     0.00000   0.75000   0.60227   0.00000  Uiso   1.00
C846   C     0.00000   0.75000   0.39773   0.00000  Uiso   1.00
C847   C     0.25000   0.50000   0.60227   0.00000  Uiso   1.00
C848   C     0.26308   0.53034   0.45859   0.00000  Uiso   1.00
C849   C     0.25000   0.50000   0.39773   0.00000  Uiso   1.00
C850   C     0.19513   0.93574   0.11172   0.00000  Uiso   1.00
C851   C     0.17862   0.90968   0.08186   0.00000  Uiso   1.00
C852   C     0.18068   0.87017   0.09559   0.00000  Uiso   1.00
C853   C     0.30489   0.93575   0.88828   0.00000  Uiso   1.00
C854   C     0.32142   0.90970   0.91814   0.00000  Uiso   1.00
C855   C     0.31936   0.87018   0.90441   0.00000  Uiso   1.00
C856   C     0.06425   0.69511   0.11172   0.00000  Uiso   1.00
C857   C     0.09030   0.67858   0.08186   0.00000  Uiso   1.00
C858   C     0.12982   0.68064   0.09559   0.00000  Uiso   1.00
C859   C     0.03034   0.76308   0.54141   0.00000  Uiso   1.00
C860   C     0.06426   0.80487   0.88828   0.00000  Uiso   1.00
C861   C     0.09032   0.82138   0.91814   0.00000  Uiso   1.00
C862   C     0.12983   0.81932   0.90441   0.00000  Uiso   1.00
C863   C     0.30487   0.56426   0.11172   0.00000  Uiso   1.00
C864   C     0.32138   0.59032   0.08186   0.00000  Uiso   1.00
C865   C     0.31932   0.62983   0.09559   0.00000  Uiso   1.00
C866   C     0.19511   0.56425   0.88828   0.00000  Uiso   1.00
C867   C     0.17858   0.59030   0.91814   0.00000  Uiso   1.00
C868   C     0.18064   0.62982   0.90441   0.00000  Uiso   1.00
C869   C     0.43575   0.80489   0.11172   0.00000  Uiso   1.00
C870   C     0.46968   0.76311   0.45859   0.00000  Uiso   1.00
C871   C     0.40970   0.82142   0.08186   0.00000  Uiso   1.00
C872   C     0.37018   0.81936   0.09559   0.00000  Uiso   1.00
C873   C     0.43574   0.69513   0.88828   0.00000  Uiso   1.00
C874   C     0.40968   0.67862   0.91814   0.00000  Uiso   1.00
C875   C     0.37017   0.68068   0.90441   0.00000  Uiso   1.00
C876   C     0.44509   0.68577   0.61172   0.00000  Uiso   1.00
C877   C     0.42855   0.65972   0.58186   0.00000  Uiso   1.00
C878   C     0.43060   0.62020   0.59559   0.00000  Uiso   1.00
C879   C     0.05484   0.68571   0.38827   0.00000  Uiso   1.00
C880   C     0.07130   0.65964   0.41815   0.00000  Uiso   1.00
C881   C     0.23689   0.53032   0.54141   0.00000  Uiso   1.00
C882   C     0.06921   0.62013   0.40441   0.00000  Uiso   1.00
C883   C     0.31429   0.94516   0.61173   0.00000  Uiso   1.00
C884   C     0.34036   0.92870   0.58185   0.00000  Uiso   1.00
C885   C     0.37987   0.93079   0.59559   0.00000  Uiso   1.00
C886   C     0.31423   0.55491   0.38828   0.00000  Uiso   1.00
C887   C     0.34028   0.57145   0.41814   0.00000  Uiso   1.00
C888   C     0.37980   0.56940   0.40441   0.00000  Uiso   1.00
C889   C     0.05491   0.81423   0.61172   0.00000  Uiso   1.00
C890   C     0.07145   0.84028   0.58186   0.00000  Uiso   1.00
C891   C     0.06940   0.87980   0.59559   0.00000  Uiso   1.00
C892   C     0.23692   0.96966   0.45859   0.00000  Uiso   1.00
C893   C     0.44517   0.81429   0.38827   0.00000  Uiso   1.00
C894   C     0.42873   0.84036   0.41816   0.00000  Uiso   1.00
C895   C     0.43081   0.87987   0.40441   0.00000  Uiso   1.00
C896   C     0.18571   0.55483   0.61173   0.00000  Uiso   1.00
C897   C     0.15964   0.57127   0.58184   0.00000  Uiso   1.00
C898   C     0.12013   0.56919   0.59559   0.00000  Uiso   1.00
C899   C     0.18577   0.94509   0.38828   0.00000  Uiso   1.00
C900   C     0.15972   0.92855   0.41814   0.00000  Uiso   1.00
C901   C     0.12021   0.93060   0.40441   0.00000  Uiso   1.00
C902   C     0.21976   0.98584   0.08167   0.00000  Uiso   1.00
C903   C     0.28025   0.98585   0.91833   0.00000  Uiso   1.00
C904   C     0.01415   0.71975   0.08167   0.00000  Uiso   1.00
C905   C     0.28033   0.98691   0.95859   0.00000  Uiso   1.00
C906   C     0.01416   0.78024   0.91833   0.00000  Uiso   1.00
C907   C     0.28024   0.51416   0.08167   0.00000  Uiso   1.00
C908   C     0.21975   0.51415   0.91833   0.00000  Uiso   1.00
C909   C     0.48585   0.78025   0.08167   0.00000  Uiso   1.00
C910   C     0.48584   0.71976   0.91833   0.00000  Uiso   1.00
C911   C     0.46975   0.73586   0.58167   0.00000  Uiso   1.00
C912   C     0.03024   0.73583   0.41833   0.00000  Uiso   1.00
C913   C     0.26417   0.96976   0.58167   0.00000  Uiso   1.00
C914   C     0.26414   0.53025   0.41833   0.00000  Uiso   1.00
C915   C     0.03025   0.76414   0.58167   0.00000  Uiso   1.00
C916   C     0.01309   0.71967   0.04141   0.00000  Uiso   1.00
C917   C     0.46976   0.76418   0.41833   0.00000  Uiso   1.00
C918   C     0.23582   0.53024   0.58167   0.00000  Uiso   1.00
C919   C     0.23586   0.96975   0.41833   0.00000  Uiso   1.00
C920   C     0.25000   0.50000   0.02119   0.00000  Uiso   1.00
C921   C     0.25000   0.50000   0.97881   0.00000  Uiso   1.00
C922   C     0.00000   0.75000   0.02119   0.00000  Uiso   1.00
C923   C     0.00000   0.75000   0.97881   0.00000  Uiso   1.00
C924   C     0.00000   0.75000   0.52119   0.00000  Uiso   1.00
C925   C     0.00000   0.75000   0.47881   0.00000  Uiso   1.00
C926   C     0.25000   0.50000   0.52119   0.00000  Uiso   1.00
C927   C     0.01310   0.78033   0.95859   0.00000  Uiso   1.00
C928   C     0.25000   0.50000   0.47882   0.00000  Uiso   1.00
C929   C     0.25000   0.50000   0.35524   0.00000  Uiso   1.00
C930   C     0.25000   0.50000   0.64477   0.00000  Uiso   1.00
C931   C     0.00000   0.75000   0.35523   0.00000  Uiso   1.00
C932   C     0.00000   0.75000   0.64477   0.00000  Uiso   1.00
C933   C     0.00000   0.75000   0.85524   0.00000  Uiso   1.00
C934   C     0.00000   0.75000   0.14477   0.00000  Uiso   1.00
C935   C     0.25000   0.50000   0.85524   0.00000  Uiso   1.00
C936   C     0.25000   0.50000   0.14476   0.00000  Uiso   1.00
C937   C     0.17993   0.57007   0.25000   0.00000  Uiso   1.00
C938   C     0.28033   0.51310   0.04141   0.00000  Uiso   1.00
C939   C     0.32007   0.92993   0.75000   0.00000  Uiso   1.00
C940   C     0.42993   0.67992   0.25000   0.00000  Uiso   1.00
C941   C     0.07007   0.82007   0.75000   0.00000  Uiso   1.00
C942   C     0.32008   0.92992   0.25000   0.00000  Uiso   1.00
C943   C     0.17993   0.57007   0.75000   0.00000  Uiso   1.00
C944   C     0.07008   0.82008   0.25000   0.00000  Uiso   1.00
C945   C     0.42993   0.67993   0.75000   0.00000  Uiso   1.00
C946   C     0.17993   0.92993   0.75000   0.00000  Uiso   1.00
C947   C     0.32007   0.57007   0.25000   0.00000  Uiso   1.00
C948   C     0.42993   0.82007   0.75000   0.00000  Uiso   1.00
C949   C     0.21967   0.51309   0.95859   0.00000  Uiso   1.00
C950   C     0.07007   0.67993   0.25000   0.00000  Uiso   1.00
C951   C     0.32008   0.57007   0.75000   0.00000  Uiso   1.00
C952   C     0.17993   0.92993   0.25000   0.00000  Uiso   1.00
C953   C     0.07008   0.67993   0.75000   0.00000  Uiso   1.00
C954   C     0.42993   0.82007   0.25000   0.00000  Uiso   1.00
C955   C     0.12380   0.90296   0.22249   0.00000  Uiso   1.00
C956   C     0.37624   0.59705   0.77749   0.00000  Uiso   1.00
C957   C     0.09703   0.62379   0.22251   0.00000  Uiso   1.00
C958   C     0.40297   0.87625   0.77747   0.00000  Uiso   1.00
C959   C     0.37620   0.59704   0.22249   0.00000  Uiso   1.00
C960   C     0.48691   0.78033   0.04141   0.00000  Uiso   1.00
C961   C     0.12376   0.90295   0.77749   0.00000  Uiso   1.00
C962   C     0.40297   0.87621   0.22250   0.00000  Uiso   1.00
C963   C     0.09704   0.62375   0.77747   0.00000  Uiso   1.00
C964   C     0.12379   0.59703   0.77750   0.00000  Uiso   1.00
C965   C     0.37625   0.90296   0.22253   0.00000  Uiso   1.00
C966   C     0.09704   0.87620   0.77751   0.00000  Uiso   1.00
C967   C     0.40295   0.62376   0.22252   0.00000  Uiso   1.00
C968   C     0.37621   0.90297   0.77750   0.00000  Uiso   1.00
C969   C     0.12375   0.59703   0.22253   0.00000  Uiso   1.00
C970   C     0.40296   0.62380   0.77751   0.00000  Uiso   1.00
C971   C     0.48690   0.71967   0.95859   0.00000  Uiso   1.00
C972   C     0.09705   0.87624   0.22252   0.00000  Uiso   1.00
C973   C     0.37380   0.65296   0.72249   0.00000  Uiso   1.00
C974   C     0.12624   0.84705   0.27749   0.00000  Uiso   1.00
C975   C     0.34703   0.87379   0.72251   0.00000  Uiso   1.00
C976   C     0.15297   0.62625   0.27747   0.00000  Uiso   1.00
C977   C     0.12620   0.84704   0.72249   0.00000  Uiso   1.00
C978   C     0.37376   0.65295   0.27749   0.00000  Uiso   1.00
C979   C     0.15297   0.62621   0.72251   0.00000  Uiso   1.00
C980   C     0.34703   0.87375   0.27747   0.00000  Uiso   1.00
C981   C     0.37379   0.84703   0.27750   0.00000  Uiso   1.00
C982   C     0.46966   0.73692   0.54141   0.00000  Uiso   1.00
C983   C     0.12625   0.65297   0.72253   0.00000  Uiso   1.00
C984   C     0.34704   0.62620   0.27751   0.00000  Uiso   1.00
C985   C     0.15295   0.87376   0.72252   0.00000  Uiso   1.00
C986   C     0.12621   0.65297   0.27749   0.00000  Uiso   1.00
C987   C     0.37375   0.84703   0.72253   0.00000  Uiso   1.00
C988   C     0.15296   0.87380   0.27751   0.00000  Uiso   1.00
C989   C     0.34705   0.62624   0.72252   0.00000  Uiso   1.00
C990   C     0.09814   0.84814   0.25000   0.00000  Uiso   1.00
C991   C     0.40187   0.65187   0.75000   0.00000  Uiso   1.00
C992   C     0.15186   0.59814   0.25000   0.00000  Uiso   1.00
H993   H     0.19615   0.97657   0.02590   0.00000  Uiso   1.00
H994   H     0.05384   0.72654   0.47410   0.00000  Uiso   1.00
H995   H     0.41703   0.64958   0.92321   0.00000  Uiso   1.00
H996   H     0.41221   0.69362   0.94594   0.00000  Uiso   1.00
H997   H     0.36207   0.70954   0.89963   0.00000  Uiso   1.00
H998   H     0.35196   0.66867   0.92670   0.00000  Uiso   1.00
H999   H     0.36671   0.66516   0.87704   0.00000  Uiso   1.00
H1000  H     0.43097   0.68158   0.63982   0.00000  Uiso   1.00
H1001  H     0.47440   0.67884   0.61674   0.00000  Uiso   1.00
H1002  H     0.39952   0.66709   0.57680   0.00000  Uiso   1.00
H1003  H     0.44354   0.66224   0.55406   0.00000  Uiso   1.00
H1004  H     0.45945   0.61209   0.60035   0.00000  Uiso   1.00
H1005  H     0.27346   0.94616   0.52590   0.00000  Uiso   1.00
H1006  H     0.41856   0.60201   0.57330   0.00000  Uiso   1.00
H1007  H     0.41508   0.61676   0.62296   0.00000  Uiso   1.00
H1008  H     0.06898   0.68151   0.36018   0.00000  Uiso   1.00
H1009  H     0.02552   0.67883   0.38321   0.00000  Uiso   1.00
H1010  H     0.10033   0.66697   0.42325   0.00000  Uiso   1.00
H1011  H     0.05628   0.66218   0.44593   0.00000  Uiso   1.00
H1012  H     0.04035   0.61206   0.39960   0.00000  Uiso   1.00
H1013  H     0.08119   0.60191   0.42671   0.00000  Uiso   1.00
H1014  H     0.08476   0.61666   0.37706   0.00000  Uiso   1.00
H1015  H     0.31849   0.93102   0.63982   0.00000  Uiso   1.00
H1016  H     0.27341   0.55386   0.47410   0.00000  Uiso   1.00
H1017  H     0.32117   0.97448   0.61679   0.00000  Uiso   1.00
H1018  H     0.33303   0.89967   0.57675   0.00000  Uiso   1.00
H1019  H     0.33782   0.94372   0.55407   0.00000  Uiso   1.00
H1020  H     0.38794   0.95965   0.60040   0.00000  Uiso   1.00
H1021  H     0.39809   0.91881   0.57329   0.00000  Uiso   1.00
H1022  H     0.38334   0.91524   0.62294   0.00000  Uiso   1.00
H1023  H     0.31842   0.56903   0.36018   0.00000  Uiso   1.00
H1024  H     0.32116   0.52560   0.38327   0.00000  Uiso   1.00
H1025  H     0.33291   0.60048   0.42320   0.00000  Uiso   1.00
H1026  H     0.33776   0.55646   0.44594   0.00000  Uiso   1.00
H1027  H     0.05386   0.77340   0.52590   0.00000  Uiso   1.00
H1028  H     0.38791   0.54055   0.39965   0.00000  Uiso   1.00
H1029  H     0.39799   0.58144   0.42670   0.00000  Uiso   1.00
H1030  H     0.38324   0.58492   0.37704   0.00000  Uiso   1.00
H1031  H     0.06903   0.81842   0.63982   0.00000  Uiso   1.00
H1032  H     0.02560   0.82116   0.61674   0.00000  Uiso   1.00
H1033  H     0.10048   0.83291   0.57680   0.00000  Uiso   1.00
H1034  H     0.05646   0.83776   0.55406   0.00000  Uiso   1.00
H1035  H     0.04055   0.88791   0.60035   0.00000  Uiso   1.00
H1036  H     0.08143   0.89799   0.57330   0.00000  Uiso   1.00
H1037  H     0.08492   0.88324   0.62296   0.00000  Uiso   1.00
H1038  H     0.44616   0.77346   0.47410   0.00000  Uiso   1.00
H1039  H     0.43100   0.81849   0.36019   0.00000  Uiso   1.00
H1040  H     0.47448   0.82116   0.38319   0.00000  Uiso   1.00
H1041  H     0.39970   0.83304   0.42328   0.00000  Uiso   1.00
H1042  H     0.44377   0.83782   0.44593   0.00000  Uiso   1.00
H1043  H     0.45967   0.88794   0.39958   0.00000  Uiso   1.00
H1044  H     0.41886   0.89809   0.42673   0.00000  Uiso   1.00
H1045  H     0.41525   0.88334   0.37707   0.00000  Uiso   1.00
H1046  H     0.18151   0.56900   0.63981   0.00000  Uiso   1.00
H1047  H     0.17884   0.52552   0.61681   0.00000  Uiso   1.00
H1048  H     0.16696   0.60030   0.57672   0.00000  Uiso   1.00
H1049  H     0.22654   0.55384   0.52590   0.00000  Uiso   1.00
H1050  H     0.16218   0.55623   0.55407   0.00000  Uiso   1.00
H1051  H     0.11206   0.54033   0.60042   0.00000  Uiso   1.00
H1052  H     0.10191   0.58114   0.57327   0.00000  Uiso   1.00
H1053  H     0.11666   0.58475   0.62293   0.00000  Uiso   1.00
H1054  H     0.18158   0.93097   0.36018   0.00000  Uiso   1.00
H1055  H     0.17884   0.97440   0.38326   0.00000  Uiso   1.00
H1056  H     0.16709   0.89952   0.42320   0.00000  Uiso   1.00
H1057  H     0.16224   0.94354   0.44594   0.00000  Uiso   1.00
H1058  H     0.11209   0.95945   0.39965   0.00000  Uiso   1.00
H1059  H     0.10201   0.91857   0.42670   0.00000  Uiso   1.00
H1060  H     0.22660   0.94614   0.47410   0.00000  Uiso   1.00
H1061  H     0.11676   0.91508   0.37704   0.00000  Uiso   1.00
H1062  H     0.12256   0.92433   0.20089   0.00000  Uiso   1.00
H1063  H     0.37752   0.57564   0.79905   0.00000  Uiso   1.00
H1064  H     0.07565   0.62253   0.20091   0.00000  Uiso   1.00
H1065  H     0.30385   0.97658   0.97410   0.00000  Uiso   1.00
H1066  H     0.42438   0.87754   0.79902   0.00000  Uiso   1.00
H1067  H     0.37744   0.57567   0.20089   0.00000  Uiso   1.00
H1068  H     0.12248   0.92436   0.79905   0.00000  Uiso   1.00
H1069  H     0.42435   0.87746   0.20091   0.00000  Uiso   1.00
H1070  H     0.07562   0.62246   0.79903   0.00000  Uiso   1.00
H1071  H     0.12254   0.57565   0.79909   0.00000  Uiso   1.00
H1072  H     0.37754   0.92438   0.20097   0.00000  Uiso   1.00
H1073  H     0.07567   0.87744   0.79911   0.00000  Uiso   1.00
H1074  H     0.42436   0.62248   0.20095   0.00000  Uiso   1.00
H1075  H     0.37747   0.92435   0.79909   0.00000  Uiso   1.00
H1076  H     0.02342   0.69615   0.02590   0.00000  Uiso   1.00
H1077  H     0.12246   0.57562   0.20098   0.00000  Uiso   1.00
H1078  H     0.42433   0.62256   0.79911   0.00000  Uiso   1.00
H1079  H     0.07564   0.87752   0.20095   0.00000  Uiso   1.00
H1080  H     0.37256   0.67433   0.70089   0.00000  Uiso   1.00
H1081  H     0.12752   0.82564   0.29905   0.00000  Uiso   1.00
H1082  H     0.32565   0.87253   0.70091   0.00000  Uiso   1.00
H1083  H     0.17438   0.62754   0.29902   0.00000  Uiso   1.00
H1084  H     0.12744   0.82567   0.70089   0.00000  Uiso   1.00
H1085  H     0.37248   0.67436   0.29905   0.00000  Uiso   1.00
H1086  H     0.17435   0.62746   0.70091   0.00000  Uiso   1.00
H1087  H     0.02343   0.80385   0.97410   0.00000  Uiso   1.00
H1088  H     0.32562   0.87246   0.29902   0.00000  Uiso   1.00
H1089  H     0.37254   0.82565   0.29909   0.00000  Uiso   1.00
H1090  H     0.12754   0.67438   0.70098   0.00000  Uiso   1.00
H1091  H     0.32567   0.62744   0.29911   0.00000  Uiso   1.00
H1092  H     0.17436   0.87248   0.70095   0.00000  Uiso   1.00
H1093  H     0.12747   0.67435   0.29909   0.00000  Uiso   1.00
H1094  H     0.37246   0.82562   0.70098   0.00000  Uiso   1.00
H1095  H     0.17433   0.87256   0.29911   0.00000  Uiso   1.00
H1096  H     0.32564   0.62752   0.70095   0.00000  Uiso   1.00
H1097  H     0.18100   0.93155   0.13982   0.00000  Uiso   1.00
H1098  H     0.30385   0.52343   0.02590   0.00000  Uiso   1.00
H1099  H     0.22444   0.92883   0.11675   0.00000  Uiso   1.00
H1100  H     0.14958   0.91703   0.07679   0.00000  Uiso   1.00
H1101  H     0.19362   0.91221   0.05406   0.00000  Uiso   1.00
H1102  H     0.20954   0.86207   0.10037   0.00000  Uiso   1.00
H1103  H     0.16867   0.85196   0.07330   0.00000  Uiso   1.00
H1104  H     0.16516   0.86671   0.12296   0.00000  Uiso   1.00
H1105  H     0.31901   0.93156   0.86017   0.00000  Uiso   1.00
H1106  H     0.27558   0.92883   0.88326   0.00000  Uiso   1.00
H1107  H     0.35045   0.91706   0.92320   0.00000  Uiso   1.00
H1108  H     0.30643   0.91223   0.94594   0.00000  Uiso   1.00
H1109  H     0.19615   0.52342   0.97410   0.00000  Uiso   1.00
H1110  H     0.29050   0.86208   0.89964   0.00000  Uiso   1.00
H1111  H     0.33138   0.85198   0.92670   0.00000  Uiso   1.00
H1112  H     0.33487   0.86673   0.87703   0.00000  Uiso   1.00
H1113  H     0.06844   0.68099   0.13983   0.00000  Uiso   1.00
H1114  H     0.07117   0.72442   0.11674   0.00000  Uiso   1.00
H1115  H     0.08294   0.64955   0.07680   0.00000  Uiso   1.00
H1116  H     0.08777   0.69357   0.05406   0.00000  Uiso   1.00
H1117  H     0.13792   0.70950   0.10036   0.00000  Uiso   1.00
H1118  H     0.14802   0.66862   0.07330   0.00000  Uiso   1.00
H1119  H     0.13327   0.66513   0.12297   0.00000  Uiso   1.00
H1120  H     0.47658   0.80385   0.02590   0.00000  Uiso   1.00
H1121  H     0.06845   0.81900   0.86018   0.00000  Uiso   1.00
H1122  H     0.07117   0.77556   0.88325   0.00000  Uiso   1.00
H1123  H     0.08297   0.85042   0.92321   0.00000  Uiso   1.00
H1124  H     0.08779   0.80638   0.94594   0.00000  Uiso   1.00
H1125  H     0.13793   0.79046   0.89963   0.00000  Uiso   1.00
H1126  H     0.14804   0.83133   0.92670   0.00000  Uiso   1.00
H1127  H     0.13329   0.83484   0.87704   0.00000  Uiso   1.00
H1128  H     0.31900   0.56845   0.13982   0.00000  Uiso   1.00
H1129  H     0.27556   0.57117   0.11675   0.00000  Uiso   1.00
H1130  H     0.35042   0.58297   0.07679   0.00000  Uiso   1.00
H1131  H     0.47657   0.69615   0.97410   0.00000  Uiso   1.00
H1132  H     0.30638   0.58779   0.05406   0.00000  Uiso   1.00
H1133  H     0.29046   0.63793   0.10037   0.00000  Uiso   1.00
H1134  H     0.33133   0.64804   0.07330   0.00000  Uiso   1.00
H1135  H     0.33484   0.63329   0.12296   0.00000  Uiso   1.00
H1136  H     0.18099   0.56844   0.86018   0.00000  Uiso   1.00
H1137  H     0.22442   0.57117   0.88326   0.00000  Uiso   1.00
H1138  H     0.14955   0.58294   0.92320   0.00000  Uiso   1.00
H1139  H     0.19357   0.58777   0.94594   0.00000  Uiso   1.00
H1140  H     0.20950   0.63792   0.89964   0.00000  Uiso   1.00
H1141  H     0.16862   0.64802   0.92670   0.00000  Uiso   1.00
H1142  H     0.44614   0.72659   0.52590   0.00000  Uiso   1.00
H1143  H     0.16513   0.63327   0.87703   0.00000  Uiso   1.00
H1144  H     0.43156   0.81901   0.13982   0.00000  Uiso   1.00
H1145  H     0.42883   0.77558   0.11674   0.00000  Uiso   1.00
H1146  H     0.41706   0.85045   0.07680   0.00000  Uiso   1.00
H1147  H     0.41223   0.80643   0.05406   0.00000  Uiso   1.00
H1148  H     0.36208   0.79050   0.10036   0.00000  Uiso   1.00
H1149  H     0.35198   0.83138   0.07330   0.00000  Uiso   1.00
H1150  H     0.36673   0.83487   0.12297   0.00000  Uiso   1.00
H1151  H     0.43155   0.68100   0.86018   0.00000  Uiso   1.00
H1152  H     0.42883   0.72444   0.88325   0.00000  Uiso   1.00
O1153  O     0.25000   0.50000   0.25000   0.00000  Uiso   1.00
O1154  O     0.25000   0.96964   0.66317   0.00000  Uiso   1.00
O1155  O     0.46964   0.75000   0.33683   0.00000  Uiso   1.00
O1156  O     0.03036   0.75000   0.66317   0.00000  Uiso   1.00
O1157  O     0.00000   0.71964   0.83683   0.00000  Uiso   1.00
O1158  O     0.00000   0.78036   0.16317   0.00000  Uiso   1.00
O1159  O     0.28036   0.50000   0.83683   0.00000  Uiso   1.00
O1160  O     0.21964   0.50000   0.16317   0.00000  Uiso   1.00
O1161  O     0.00000   0.78036   0.83683   0.00000  Uiso   1.00
O1162  O     0.00000   0.71964   0.16317   0.00000  Uiso   1.00
O1163  O     0.21964   0.50000   0.83683   0.00000  Uiso   1.00
O1164  O     0.25000   0.50000   0.75000   0.00000  Uiso   1.00
O1165  O     0.28036   0.50000   0.16317   0.00000  Uiso   1.00
O1166  O     0.20726   0.57307   0.27282   0.00000  Uiso   1.00
O1167  O     0.29275   0.92693   0.72718   0.00000  Uiso   1.00
O1168  O     0.42693   0.70725   0.27282   0.00000  Uiso   1.00
O1169  O     0.07307   0.79275   0.72718   0.00000  Uiso   1.00
O1170  O     0.29275   0.92693   0.27282   0.00000  Uiso   1.00
O1171  O     0.20726   0.57307   0.72718   0.00000  Uiso   1.00
O1172  O     0.07307   0.79275   0.27282   0.00000  Uiso   1.00
O1173  O     0.42693   0.70725   0.72718   0.00000  Uiso   1.00
O1174  O     0.20726   0.92693   0.72718   0.00000  Uiso   1.00
O1175  O     0.00000   0.75000   0.25000   0.00000  Uiso   1.00
O1176  O     0.29275   0.57307   0.27282   0.00000  Uiso   1.00
O1177  O     0.42693   0.79274   0.72718   0.00000  Uiso   1.00
O1178  O     0.07307   0.70726   0.27282   0.00000  Uiso   1.00
O1179  O     0.29275   0.57307   0.72718   0.00000  Uiso   1.00
O1180  O     0.20726   0.92693   0.27282   0.00000  Uiso   1.00
O1181  O     0.07307   0.70726   0.72718   0.00000  Uiso   1.00
O1182  O     0.42693   0.79274   0.27282   0.00000  Uiso   1.00
O1183  O     0.45726   0.82307   0.77282   0.00000  Uiso   1.00
O1184  O     0.04275   0.67693   0.22718   0.00000  Uiso   1.00
O1185  O     0.17693   0.95726   0.77282   0.00000  Uiso   1.00
O1186  O     0.00000   0.75000   0.75000   0.00000  Uiso   1.00
O1187  O     0.32307   0.54274   0.22718   0.00000  Uiso   1.00
O1188  O     0.04275   0.67693   0.77282   0.00000  Uiso   1.00
O1189  O     0.45726   0.82307   0.22718   0.00000  Uiso   1.00
O1190  O     0.32307   0.54274   0.77282   0.00000  Uiso   1.00
O1191  O     0.17693   0.95726   0.22718   0.00000  Uiso   1.00
O1192  O     0.45726   0.67693   0.22718   0.00000  Uiso   1.00
O1193  O     0.04275   0.82307   0.77282   0.00000  Uiso   1.00
O1194  O     0.17693   0.54274   0.22718   0.00000  Uiso   1.00
O1195  O     0.32307   0.95725   0.77282   0.00000  Uiso   1.00
O1196  O     0.04275   0.82307   0.22718   0.00000  Uiso   1.00
O1197  O     0.25000   0.96964   0.33683   0.00000  Uiso   1.00
O1198  O     0.45726   0.67693   0.77282   0.00000  Uiso   1.00
O1199  O     0.32307   0.95725   0.22718   0.00000  Uiso   1.00
O1200  O     0.17693   0.54274   0.77282   0.00000  Uiso   1.00
O1201  O     0.18922   0.97244   0.10048   0.00000  Uiso   1.00
O1202  O     0.31079   0.97245   0.89952   0.00000  Uiso   1.00
O1203  O     0.02755   0.68921   0.10048   0.00000  Uiso   1.00
O1204  O     0.02756   0.81078   0.89952   0.00000  Uiso   1.00
O1205  O     0.31078   0.52756   0.10048   0.00000  Uiso   1.00
O1206  O     0.18921   0.52755   0.89952   0.00000  Uiso   1.00
O1207  O     0.47245   0.81079   0.10048   0.00000  Uiso   1.00
O1208  O     0.25000   0.53036   0.66317   0.00000  Uiso   1.00
O1209  O     0.47244   0.68922   0.89952   0.00000  Uiso   1.00
O1210  O     0.43921   0.72247   0.60048   0.00000  Uiso   1.00
O1211  O     0.06077   0.72241   0.39952   0.00000  Uiso   1.00
O1212  O     0.27759   0.93923   0.60048   0.00000  Uiso   1.00
O1213  O     0.27753   0.56079   0.39953   0.00000  Uiso   1.00
O1214  O     0.06079   0.77753   0.60048   0.00000  Uiso   1.00
O1215  O     0.43924   0.77759   0.39952   0.00000  Uiso   1.00
O1216  O     0.22241   0.56076   0.60048   0.00000  Uiso   1.00
O1217  O     0.22247   0.93921   0.39953   0.00000  Uiso   1.00
O1218  O     0.03036   0.75000   0.33683   0.00000  Uiso   1.00
O1219  O     0.46964   0.75000   0.66317   0.00000  Uiso   1.00
O1220  O     0.25000   0.53036   0.33683   0.00000  Uiso   1.00
Zn1221 Zn    0.20660   0.50000   0.21760   0.00000  Uiso   1.00
Zn1222 Zn    0.04340   0.75000   0.28240   0.00000  Uiso   1.00
Zn1223 Zn    0.25000   0.95660   0.71760   0.00000  Uiso   1.00
Zn1224 Zn    0.25000   0.54340   0.28240   0.00000  Uiso   1.00
Zn1225 Zn    0.04340   0.75000   0.71760   0.00000  Uiso   1.00
Zn1226 Zn    0.45660   0.75000   0.28240   0.00000  Uiso   1.00
Zn1227 Zn    0.25000   0.54340   0.71760   0.00000  Uiso   1.00
Zn1228 Zn    0.25000   0.95660   0.28240   0.00000  Uiso   1.00
Zn1229 Zn    0.29340   0.50000   0.78240   0.00000  Uiso   1.00
Zn1230 Zn    0.00000   0.70660   0.21760   0.00000  Uiso   1.00
Zn1231 Zn    0.00000   0.79340   0.78240   0.00000  Uiso   1.00
Zn1232 Zn    0.29340   0.50000   0.21760   0.00000  Uiso   1.00
Zn1233 Zn    0.20660   0.50000   0.78240   0.00000  Uiso   1.00
Zn1234 Zn    0.00000   0.79340   0.21760   0.00000  Uiso   1.00
Zn1235 Zn    0.00000   0.70660   0.78240   0.00000  Uiso   1.00
Zn1236 Zn    0.45660   0.75000   0.71760   0.00000  Uiso   1.00
C1237  C     0.71967   0.98690   0.04141   0.00000  Uiso   1.00
C1238  C     0.53032   0.73689   0.45859   0.00000  Uiso   1.00
C1239  C     0.84813   0.90187   0.75000   0.00000  Uiso   1.00
C1240  C     0.90186   0.65186   0.25000   0.00000  Uiso   1.00
C1241  C     0.59813   0.84813   0.75000   0.00000  Uiso   1.00
C1242  C     0.84814   0.90186   0.25000   0.00000  Uiso   1.00
C1243  C     0.65187   0.59813   0.75000   0.00000  Uiso   1.00
C1244  C     0.59814   0.65186   0.75000   0.00000  Uiso   1.00
C1245  C     0.90187   0.84813   0.25000   0.00000  Uiso   1.00
C1246  C     0.65186   0.90186   0.75000   0.00000  Uiso   1.00
C1247  C     0.84813   0.59813   0.25000   0.00000  Uiso   1.00
C1248  C     0.90186   0.84814   0.75000   0.00000  Uiso   1.00
C1249  C     0.76311   0.96968   0.54141   0.00000  Uiso   1.00
C1250  C     0.59813   0.65187   0.25000   0.00000  Uiso   1.00
C1251  C     0.84814   0.59814   0.75000   0.00000  Uiso   1.00
C1252  C     0.65187   0.90187   0.25000   0.00000  Uiso   1.00
C1253  C     0.75000   0.50000   0.10227   0.00000  Uiso   1.00
C1254  C     0.75000   0.50000   0.89773   0.00000  Uiso   1.00
C1255  C     0.50000   0.75000   0.10227   0.00000  Uiso   1.00
C1256  C     0.50000   0.75000   0.89773   0.00000  Uiso   1.00
C1257  C     0.50000   0.75000   0.60227   0.00000  Uiso   1.00
C1258  C     0.50000   0.75000   0.39773   0.00000  Uiso   1.00
C1259  C     0.75000   0.50000   0.60227   0.00000  Uiso   1.00
C1260  C     0.76308   0.53034   0.45859   0.00000  Uiso   1.00
C1261  C     0.75000   0.50000   0.39773   0.00000  Uiso   1.00
C1262  C     0.69513   0.93574   0.11172   0.00000  Uiso   1.00
C1263  C     0.67862   0.90968   0.08186   0.00000  Uiso   1.00
C1264  C     0.68068   0.87017   0.09559   0.00000  Uiso   1.00
C1265  C     0.80489   0.93575   0.88828   0.00000  Uiso   1.00
C1266  C     0.82142   0.90970   0.91814   0.00000  Uiso   1.00
C1267  C     0.81936   0.87018   0.90441   0.00000  Uiso   1.00
C1268  C     0.56425   0.69511   0.11172   0.00000  Uiso   1.00
C1269  C     0.59030   0.67858   0.08186   0.00000  Uiso   1.00
C1270  C     0.62982   0.68064   0.09559   0.00000  Uiso   1.00
C1271  C     0.53034   0.76308   0.54141   0.00000  Uiso   1.00
C1272  C     0.56426   0.80487   0.88828   0.00000  Uiso   1.00
C1273  C     0.59032   0.82138   0.91814   0.00000  Uiso   1.00
C1274  C     0.62983   0.81932   0.90441   0.00000  Uiso   1.00
C1275  C     0.80487   0.56426   0.11172   0.00000  Uiso   1.00
C1276  C     0.82138   0.59032   0.08186   0.00000  Uiso   1.00
C1277  C     0.81932   0.62983   0.09559   0.00000  Uiso   1.00
C1278  C     0.69511   0.56425   0.88828   0.00000  Uiso   1.00
C1279  C     0.67858   0.59030   0.91814   0.00000  Uiso   1.00
C1280  C     0.68064   0.62982   0.90441   0.00000  Uiso   1.00
C1281  C     0.93575   0.80489   0.11172   0.00000  Uiso   1.00
C1282  C     0.96968   0.76311   0.45859   0.00000  Uiso   1.00
C1283  C     0.90970   0.82142   0.08186   0.00000  Uiso   1.00
C1284  C     0.87018   0.81936   0.09559   0.00000  Uiso   1.00
C1285  C     0.93574   0.69513   0.88828   0.00000  Uiso   1.00
C1286  C     0.90968   0.67862   0.91814   0.00000  Uiso   1.00
C1287  C     0.87017   0.68068   0.90441   0.00000  Uiso   1.00
C1288  C     0.94509   0.68577   0.61172   0.00000  Uiso   1.00
C1289  C     0.92855   0.65972   0.58186   0.00000  Uiso   1.00
C1290  C     0.93060   0.62020   0.59559   0.00000  Uiso   1.00
C1291  C     0.55484   0.68571   0.38827   0.00000  Uiso   1.00
C1292  C     0.57130   0.65964   0.41815   0.00000  Uiso   1.00
C1293  C     0.73689   0.53032   0.54141   0.00000  Uiso   1.00
C1294  C     0.56921   0.62013   0.40441   0.00000  Uiso   1.00
C1295  C     0.81429   0.94516   0.61173   0.00000  Uiso   1.00
C1296  C     0.84036   0.92870   0.58185   0.00000  Uiso   1.00
C1297  C     0.87987   0.93079   0.59559   0.00000  Uiso   1.00
C1298  C     0.81423   0.55491   0.38828   0.00000  Uiso   1.00
C1299  C     0.84028   0.57145   0.41814   0.00000  Uiso   1.00
C1300  C     0.87980   0.56940   0.40441   0.00000  Uiso   1.00
C1301  C     0.55491   0.81423   0.61172   0.00000  Uiso   1.00
C1302  C     0.57145   0.84028   0.58186   0.00000  Uiso   1.00
C1303  C     0.56940   0.87980   0.59559   0.00000  Uiso   1.00
C1304  C     0.73692   0.96966   0.45859   0.00000  Uiso   1.00
C1305  C     0.94517   0.81429   0.38827   0.00000  Uiso   1.00
C1306  C     0.92873   0.84036   0.41816   0.00000  Uiso   1.00
C1307  C     0.93081   0.87987   0.40441   0.00000  Uiso   1.00
C1308  C     0.68571   0.55483   0.61173   0.00000  Uiso   1.00
C1309  C     0.65964   0.57127   0.58184   0.00000  Uiso   1.00
C1310  C     0.62013   0.56919   0.59559   0.00000  Uiso   1.00
C1311  C     0.68577   0.94509   0.38828   0.00000  Uiso   1.00
C1312  C     0.65972   0.92855   0.41814   0.00000  Uiso   1.00
C1313  C     0.62021   0.93060   0.40441   0.00000  Uiso   1.00
C1314  C     0.71976   0.98584   0.08167   0.00000  Uiso   1.00
C1315  C     0.78025   0.98585   0.91833   0.00000  Uiso   1.00
C1316  C     0.51415   0.71975   0.08167   0.00000  Uiso   1.00
C1317  C     0.78033   0.98691   0.95859   0.00000  Uiso   1.00
C1318  C     0.51416   0.78024   0.91833   0.00000  Uiso   1.00
C1319  C     0.78024   0.51416   0.08167   0.00000  Uiso   1.00
C1320  C     0.71975   0.51415   0.91833   0.00000  Uiso   1.00
C1321  C     0.98585   0.78025   0.08167   0.00000  Uiso   1.00
C1322  C     0.98584   0.71976   0.91833   0.00000  Uiso   1.00
C1323  C     0.96975   0.73586   0.58167   0.00000  Uiso   1.00
C1324  C     0.53024   0.73583   0.41833   0.00000  Uiso   1.00
C1325  C     0.76417   0.96976   0.58167   0.00000  Uiso   1.00
C1326  C     0.76414   0.53025   0.41833   0.00000  Uiso   1.00
C1327  C     0.53025   0.76414   0.58167   0.00000  Uiso   1.00
C1328  C     0.51309   0.71967   0.04141   0.00000  Uiso   1.00
C1329  C     0.96976   0.76418   0.41833   0.00000  Uiso   1.00
C1330  C     0.73582   0.53024   0.58167   0.00000  Uiso   1.00
C1331  C     0.73586   0.96975   0.41833   0.00000  Uiso   1.00
C1332  C     0.75000   0.50000   0.02119   0.00000  Uiso   1.00
C1333  C     0.75000   0.50000   0.97881   0.00000  Uiso   1.00
C1334  C     0.50000   0.75000   0.02119   0.00000  Uiso   1.00
C1335  C     0.50000   0.75000   0.97881   0.00000  Uiso   1.00
C1336  C     0.50000   0.75000   0.52119   0.00000  Uiso   1.00
C1337  C     0.50000   0.75000   0.47881   0.00000  Uiso   1.00
C1338  C     0.75000   0.50000   0.52119   0.00000  Uiso   1.00
C1339  C     0.51310   0.78033   0.95859   0.00000  Uiso   1.00
C1340  C     0.75000   0.50000   0.47882   0.00000  Uiso   1.00
C1341  C     0.75000   0.50000   0.35524   0.00000  Uiso   1.00
C1342  C     0.75000   0.50000   0.64477   0.00000  Uiso   1.00
C1343  C     0.50000   0.75000   0.35523   0.00000  Uiso   1.00
C1344  C     0.50000   0.75000   0.64477   0.00000  Uiso   1.00
C1345  C     0.50000   0.75000   0.85524   0.00000  Uiso   1.00
C1346  C     0.50000   0.75000   0.14477   0.00000  Uiso   1.00
C1347  C     0.75000   0.50000   0.85524   0.00000  Uiso   1.00
C1348  C     0.75000   0.50000   0.14476   0.00000  Uiso   1.00
C1349  C     0.67993   0.57007   0.25000   0.00000  Uiso   1.00
C1350  C     0.78033   0.51310   0.04141   0.00000  Uiso   1.00
C1351  C     0.82007   0.92993   0.75000   0.00000  Uiso   1.00
C1352  C     0.92993   0.67992   0.25000   0.00000  Uiso   1.00
C1353  C     0.57007   0.82007   0.75000   0.00000  Uiso   1.00
C1354  C     0.82008   0.92992   0.25000   0.00000  Uiso   1.00
C1355  C     0.67993   0.57007   0.75000   0.00000  Uiso   1.00
C1356  C     0.57008   0.82008   0.25000   0.00000  Uiso   1.00
C1357  C     0.92993   0.67993   0.75000   0.00000  Uiso   1.00
C1358  C     0.67993   0.92993   0.75000   0.00000  Uiso   1.00
C1359  C     0.82007   0.57007   0.25000   0.00000  Uiso   1.00
C1360  C     0.92993   0.82007   0.75000   0.00000  Uiso   1.00
C1361  C     0.71967   0.51309   0.95859   0.00000  Uiso   1.00
C1362  C     0.57007   0.67993   0.25000   0.00000  Uiso   1.00
C1363  C     0.82008   0.57007   0.75000   0.00000  Uiso   1.00
C1364  C     0.67993   0.92993   0.25000   0.00000  Uiso   1.00
C1365  C     0.57008   0.67993   0.75000   0.00000  Uiso   1.00
C1366  C     0.92993   0.82007   0.25000   0.00000  Uiso   1.00
C1367  C     0.62380   0.90296   0.22249   0.00000  Uiso   1.00
C1368  C     0.87624   0.59705   0.77749   0.00000  Uiso   1.00
C1369  C     0.59703   0.62379   0.22251   0.00000  Uiso   1.00
C1370  C     0.90297   0.87625   0.77747   0.00000  Uiso   1.00
C1371  C     0.87620   0.59704   0.22249   0.00000  Uiso   1.00
C1372  C     0.98691   0.78033   0.04141   0.00000  Uiso   1.00
C1373  C     0.62376   0.90295   0.77749   0.00000  Uiso   1.00
C1374  C     0.90297   0.87621   0.22250   0.00000  Uiso   1.00
C1375  C     0.59704   0.62375   0.77747   0.00000  Uiso   1.00
C1376  C     0.62379   0.59703   0.77750   0.00000  Uiso   1.00
C1377  C     0.87625   0.90296   0.22253   0.00000  Uiso   1.00
C1378  C     0.59704   0.87620   0.77751   0.00000  Uiso   1.00
C1379  C     0.90295   0.62376   0.22252   0.00000  Uiso   1.00
C1380  C     0.87621   0.90297   0.77750   0.00000  Uiso   1.00
C1381  C     0.62375   0.59703   0.22253   0.00000  Uiso   1.00
C1382  C     0.90296   0.62380   0.77751   0.00000  Uiso   1.00
C1383  C     0.98690   0.71967   0.95859   0.00000  Uiso   1.00
C1384  C     0.59705   0.87624   0.22252   0.00000  Uiso   1.00
C1385  C     0.87380   0.65296   0.72249   0.00000  Uiso   1.00
C1386  C     0.62624   0.84705   0.27749   0.00000  Uiso   1.00
C1387  C     0.84703   0.87379   0.72251   0.00000  Uiso   1.00
C1388  C     0.65297   0.62625   0.27747   0.00000  Uiso   1.00
C1389  C     0.62620   0.84704   0.72249   0.00000  Uiso   1.00
C1390  C     0.87376   0.65295   0.27749   0.00000  Uiso   1.00
C1391  C     0.65297   0.62621   0.72251   0.00000  Uiso   1.00
C1392  C     0.84703   0.87375   0.27747   0.00000  Uiso   1.00
C1393  C     0.87379   0.84703   0.27750   0.00000  Uiso   1.00
C1394  C     0.96966   0.73692   0.54141   0.00000  Uiso   1.00
C1395  C     0.62625   0.65297   0.72253   0.00000  Uiso   1.00
C1396  C     0.84704   0.62620   0.27751   0.00000  Uiso   1.00
C1397  C     0.65295   0.87376   0.72252   0.00000  Uiso   1.00
C1398  C     0.62621   0.65297   0.27749   0.00000  Uiso   1.00
C1399  C     0.87375   0.84703   0.72253   0.00000  Uiso   1.00
C1400  C     0.65296   0.87380   0.27751   0.00000  Uiso   1.00
C1401  C     0.84705   0.62624   0.72252   0.00000  Uiso   1.00
C1402  C     0.59814   0.84814   0.25000   0.00000  Uiso   1.00
C1403  C     0.90187   0.65187   0.75000   0.00000  Uiso   1.00
C1404  C     0.65186   0.59814   0.25000   0.00000  Uiso   1.00
H1405  H     0.69615   0.97657   0.02590   0.00000  Uiso   1.00
H1406  H     0.55384   0.72654   0.47410   0.00000  Uiso   1.00
H1407  H     0.91703   0.64958   0.92321   0.00000  Uiso   1.00
H1408  H     0.91221   0.69362   0.94594   0.00000  Uiso   1.00
H1409  H     0.86207   0.70954   0.89963   0.00000  Uiso   1.00
H1410  H     0.85196   0.66867   0.92670   0.00000  Uiso   1.00
H1411  H     0.86671   0.66516   0.87704   0.00000  Uiso   1.00
H1412  H     0.93097   0.68158   0.63982   0.00000  Uiso   1.00
H1413  H     0.97440   0.67884   0.61674   0.00000  Uiso   1.00
H1414  H     0.89952   0.66709   0.57680   0.00000  Uiso   1.00
H1415  H     0.94354   0.66224   0.55406   0.00000  Uiso   1.00
H1416  H     0.95945   0.61209   0.60035   0.00000  Uiso   1.00
H1417  H     0.77346   0.94616   0.52590   0.00000  Uiso   1.00
H1418  H     0.91856   0.60201   0.57330   0.00000  Uiso   1.00
H1419  H     0.91508   0.61676   0.62296   0.00000  Uiso   1.00
H1420  H     0.56898   0.68151   0.36018   0.00000  Uiso   1.00
H1421  H     0.52552   0.67883   0.38321   0.00000  Uiso   1.00
H1422  H     0.60033   0.66697   0.42325   0.00000  Uiso   1.00
H1423  H     0.55628   0.66218   0.44593   0.00000  Uiso   1.00
H1424  H     0.54035   0.61206   0.39960   0.00000  Uiso   1.00
H1425  H     0.58119   0.60191   0.42671   0.00000  Uiso   1.00
H1426  H     0.58476   0.61666   0.37706   0.00000  Uiso   1.00
H1427  H     0.81849   0.93102   0.63982   0.00000  Uiso   1.00
H1428  H     0.77341   0.55386   0.47410   0.00000  Uiso   1.00
H1429  H     0.82117   0.97448   0.61679   0.00000  Uiso   1.00
H1430  H     0.83303   0.89967   0.57675   0.00000  Uiso   1.00
H1431  H     0.83782   0.94372   0.55407   0.00000  Uiso   1.00
H1432  H     0.88794   0.95965   0.60040   0.00000  Uiso   1.00
H1433  H     0.89809   0.91881   0.57329   0.00000  Uiso   1.00
H1434  H     0.88334   0.91524   0.62294   0.00000  Uiso   1.00
H1435  H     0.81842   0.56903   0.36018   0.00000  Uiso   1.00
H1436  H     0.82116   0.52560   0.38327   0.00000  Uiso   1.00
H1437  H     0.83291   0.60048   0.42320   0.00000  Uiso   1.00
H1438  H     0.83776   0.55646   0.44594   0.00000  Uiso   1.00
H1439  H     0.55386   0.77340   0.52590   0.00000  Uiso   1.00
H1440  H     0.88791   0.54055   0.39965   0.00000  Uiso   1.00
H1441  H     0.89799   0.58144   0.42670   0.00000  Uiso   1.00
H1442  H     0.88324   0.58492   0.37704   0.00000  Uiso   1.00
H1443  H     0.56903   0.81842   0.63982   0.00000  Uiso   1.00
H1444  H     0.52560   0.82116   0.61674   0.00000  Uiso   1.00
H1445  H     0.60048   0.83291   0.57680   0.00000  Uiso   1.00
H1446  H     0.55646   0.83776   0.55406   0.00000  Uiso   1.00
H1447  H     0.54055   0.88791   0.60035   0.00000  Uiso   1.00
H1448  H     0.58143   0.89799   0.57330   0.00000  Uiso   1.00
H1449  H     0.58492   0.88324   0.62296   0.00000  Uiso   1.00
H1450  H     0.94616   0.77346   0.47410   0.00000  Uiso   1.00
H1451  H     0.93100   0.81849   0.36019   0.00000  Uiso   1.00
H1452  H     0.97448   0.82116   0.38319   0.00000  Uiso   1.00
H1453  H     0.89970   0.83304   0.42328   0.00000  Uiso   1.00
H1454  H     0.94377   0.83782   0.44593   0.00000  Uiso   1.00
H1455  H     0.95967   0.88794   0.39958   0.00000  Uiso   1.00
H1456  H     0.91886   0.89809   0.42673   0.00000  Uiso   1.00
H1457  H     0.91525   0.88334   0.37707   0.00000  Uiso   1.00
H1458  H     0.68151   0.56900   0.63981   0.00000  Uiso   1.00
H1459  H     0.67884   0.52552   0.61681   0.00000  Uiso   1.00
H1460  H     0.66696   0.60030   0.57672   0.00000  Uiso   1.00
H1461  H     0.72654   0.55384   0.52590   0.00000  Uiso   1.00
H1462  H     0.66218   0.55623   0.55407   0.00000  Uiso   1.00
H1463  H     0.61206   0.54033   0.60042   0.00000  Uiso   1.00
H1464  H     0.60191   0.58114   0.57327   0.00000  Uiso   1.00
H1465  H     0.61666   0.58475   0.62293   0.00000  Uiso   1.00
H1466  H     0.68158   0.93097   0.36018   0.00000  Uiso   1.00
H1467  H     0.67884   0.97440   0.38326   0.00000  Uiso   1.00
H1468  H     0.66709   0.89952   0.42320   0.00000  Uiso   1.00
H1469  H     0.66224   0.94354   0.44594   0.00000  Uiso   1.00
H1470  H     0.61209   0.95945   0.39965   0.00000  Uiso   1.00
H1471  H     0.60201   0.91857   0.42670   0.00000  Uiso   1.00
H1472  H     0.72660   0.94614   0.47410   0.00000  Uiso   1.00
H1473  H     0.61676   0.91508   0.37704   0.00000  Uiso   1.00
H1474  H     0.62256   0.92433   0.20089   0.00000  Uiso   1.00
H1475  H     0.87752   0.57564   0.79905   0.00000  Uiso   1.00
H1476  H     0.57565   0.62253   0.20091   0.00000  Uiso   1.00
H1477  H     0.80385   0.97658   0.97410   0.00000  Uiso   1.00
H1478  H     0.92438   0.87754   0.79902   0.00000  Uiso   1.00
H1479  H     0.87744   0.57567   0.20089   0.00000  Uiso   1.00
H1480  H     0.62248   0.92436   0.79905   0.00000  Uiso   1.00
H1481  H     0.92435   0.87746   0.20091   0.00000  Uiso   1.00
H1482  H     0.57562   0.62246   0.79903   0.00000  Uiso   1.00
H1483  H     0.62254   0.57565   0.79909   0.00000  Uiso   1.00
H1484  H     0.87754   0.92438   0.20097   0.00000  Uiso   1.00
H1485  H     0.57567   0.87744   0.79911   0.00000  Uiso   1.00
H1486  H     0.92436   0.62248   0.20095   0.00000  Uiso   1.00
H1487  H     0.87747   0.92435   0.79909   0.00000  Uiso   1.00
H1488  H     0.52342   0.69615   0.02590   0.00000  Uiso   1.00
H1489  H     0.62246   0.57562   0.20098   0.00000  Uiso   1.00
H1490  H     0.92433   0.62256   0.79911   0.00000  Uiso   1.00
H1491  H     0.57564   0.87752   0.20095   0.00000  Uiso   1.00
H1492  H     0.87256   0.67433   0.70089   0.00000  Uiso   1.00
H1493  H     0.62752   0.82564   0.29905   0.00000  Uiso   1.00
H1494  H     0.82565   0.87253   0.70091   0.00000  Uiso   1.00
H1495  H     0.67438   0.62754   0.29902   0.00000  Uiso   1.00
H1496  H     0.62744   0.82567   0.70089   0.00000  Uiso   1.00
H1497  H     0.87248   0.67436   0.29905   0.00000  Uiso   1.00
H1498  H     0.67435   0.62746   0.70091   0.00000  Uiso   1.00
H1499  H     0.52343   0.80385   0.97410   0.00000  Uiso   1.00
H1500  H     0.82562   0.87246   0.29902   0.00000  Uiso   1.00
H1501  H     0.87254   0.82565   0.29909   0.00000  Uiso   1.00
H1502  H     0.62754   0.67438   0.70098   0.00000  Uiso   1.00
H1503  H     0.82567   0.62744   0.29911   0.00000  Uiso   1.00
H1504  H     0.67436   0.87248   0.70095   0.00000  Uiso   1.00
H1505  H     0.62747   0.67435   0.29909   0.00000  Uiso   1.00
H1506  H     0.87246   0.82562   0.70098   0.00000  Uiso   1.00
H1507  H     0.67433   0.87256   0.29911   0.00000  Uiso   1.00
H1508  H     0.82564   0.62752   0.70095   0.00000  Uiso   1.00
H1509  H     0.68100   0.93155   0.13982   0.00000  Uiso   1.00
H1510  H     0.80385   0.52343   0.02590   0.00000  Uiso   1.00
H1511  H     0.72444   0.92883   0.11675   0.00000  Uiso   1.00
H1512  H     0.64958   0.91703   0.07679   0.00000  Uiso   1.00
H1513  H     0.69362   0.91221   0.05406   0.00000  Uiso   1.00
H1514  H     0.70954   0.86207   0.10037   0.00000  Uiso   1.00
H1515  H     0.66867   0.85196   0.07330   0.00000  Uiso   1.00
H1516  H     0.66516   0.86671   0.12296   0.00000  Uiso   1.00
H1517  H     0.81901   0.93156   0.86017   0.00000  Uiso   1.00
H1518  H     0.77558   0.92883   0.88326   0.00000  Uiso   1.00
H1519  H     0.85045   0.91706   0.92320   0.00000  Uiso   1.00
H1520  H     0.80643   0.91223   0.94594   0.00000  Uiso   1.00
H1521  H     0.69615   0.52342   0.97410   0.00000  Uiso   1.00
H1522  H     0.79050   0.86208   0.89964   0.00000  Uiso   1.00
H1523  H     0.83138   0.85198   0.92670   0.00000  Uiso   1.00
H1524  H     0.83487   0.86673   0.87703   0.00000  Uiso   1.00
H1525  H     0.56844   0.68099   0.13983   0.00000  Uiso   1.00
H1526  H     0.57117   0.72442   0.11674   0.00000  Uiso   1.00
H1527  H     0.58294   0.64955   0.07680   0.00000  Uiso   1.00
H1528  H     0.58777   0.69357   0.05406   0.00000  Uiso   1.00
H1529  H     0.63792   0.70950   0.10036   0.00000  Uiso   1.00
H1530  H     0.64802   0.66862   0.07330   0.00000  Uiso   1.00
H1531  H     0.63327   0.66513   0.12297   0.00000  Uiso   1.00
H1532  H     0.97658   0.80385   0.02590   0.00000  Uiso   1.00
H1533  H     0.56845   0.81900   0.86018   0.00000  Uiso   1.00
H1534  H     0.57117   0.77556   0.88325   0.00000  Uiso   1.00
H1535  H     0.58297   0.85042   0.92321   0.00000  Uiso   1.00
H1536  H     0.58779   0.80638   0.94594   0.00000  Uiso   1.00
H1537  H     0.63793   0.79046   0.89963   0.00000  Uiso   1.00
H1538  H     0.64804   0.83133   0.92670   0.00000  Uiso   1.00
H1539  H     0.63329   0.83484   0.87704   0.00000  Uiso   1.00
H1540  H     0.81900   0.56845   0.13982   0.00000  Uiso   1.00
H1541  H     0.77556   0.57117   0.11675   0.00000  Uiso   1.00
H1542  H     0.85042   0.58297   0.07679   0.00000  Uiso   1.00
H1543  H     0.97657   0.69615   0.97410   0.00000  Uiso   1.00
H1544  H     0.80638   0.58779   0.05406   0.00000  Uiso   1.00
H1545  H     0.79046   0.63793   0.10037   0.00000  Uiso   1.00
H1546  H     0.83133   0.64804   0.07330   0.00000  Uiso   1.00
H1547  H     0.83484   0.63329   0.12296   0.00000  Uiso   1.00
H1548  H     0.68099   0.56844   0.86018   0.00000  Uiso   1.00
H1549  H     0.72442   0.57117   0.88326   0.00000  Uiso   1.00
H1550  H     0.64955   0.58294   0.92320   0.00000  Uiso   1.00
H1551  H     0.69357   0.58777   0.94594   0.00000  Uiso   1.00
H1552  H     0.70950   0.63792   0.89964   0.00000  Uiso   1.00
H1553  H     0.66862   0.64802   0.92670   0.00000  Uiso   1.00
H1554  H     0.94614   0.72659   0.52590   0.00000  Uiso   1.00
H1555  H     0.66513   0.63327   0.87703   0.00000  Uiso   1.00
H1556  H     0.93156   0.81901   0.13982   0.00000  Uiso   1.00
H1557  H     0.92883   0.77558   0.11674   0.00000  Uiso   1.00
H1558  H     0.91706   0.85045   0.07680   0.00000  Uiso   1.00
H1559  H     0.91223   0.80643   0.05406   0.00000  Uiso   1.00
H1560  H     0.86208   0.79050   0.10036   0.00000  Uiso   1.00
H1561  H     0.85198   0.83138   0.07330   0.00000  Uiso   1.00
H1562  H     0.86673   0.83487   0.12297   0.00000  Uiso   1.00
H1563  H     0.93155   0.68100   0.86018   0.00000  Uiso   1.00
H1564  H     0.92883   0.72444   0.88325   0.00000  Uiso   1.00
O1565  O     0.75000   0.50000   0.25000   0.00000  Uiso   1.00
O1566  O     0.75000   0.96964   0.66317   0.00000  Uiso   1.00
O1567  O     0.96964   0.75000   0.33683   0.00000  Uiso   1.00
O1568  O     0.53036   0.75000   0.66317   0.00000  Uiso   1.00
O1569  O     0.50000   0.71964   0.83683   0.00000  Uiso   1.00
O1570  O     0.50000   0.78036   0.16317   0.00000  Uiso   1.00
O1571  O     0.78036   0.50000   0.83683   0.00000  Uiso   1.00
O1572  O     0.71964   0.50000   0.16317   0.00000  Uiso   1.00
O1573  O     0.50000   0.78036   0.83683   0.00000  Uiso   1.00
O1574  O     0.50000   0.71964   0.16317   0.00000  Uiso   1.00
O1575  O     0.71964   0.50000   0.83683   0.00000  Uiso   1.00
O1576  O     0.75000   0.50000   0.75000   0.00000  Uiso   1.00
O1577  O     0.78036   0.50000   0.16317   0.00000  Uiso   1.00
O1578  O     0.70726   0.57307   0.27282   0.00000  Uiso   1.00
O1579  O     0.79275   0.92693   0.72718   0.00000  Uiso   1.00
O1580  O     0.92693   0.70725   0.27282   0.00000  Uiso   1.00
O1581  O     0.57307   0.79275   0.72718   0.00000  Uiso   1.00
O1582  O     0.79275   0.92693   0.27282   0.00000  Uiso   1.00
O1583  O     0.70726   0.57307   0.72718   0.00000  Uiso   1.00
O1584  O     0.57307   0.79275   0.27282   0.00000  Uiso   1.00
O1585  O     0.92693   0.70725   0.72718   0.00000  Uiso   1.00
O1586  O     0.70726   0.92693   0.72718   0.00000  Uiso   1.00
O1587  O     0.50000   0.75000   0.25000   0.00000  Uiso   1.00
O1588  O     0.79275   0.57307   0.27282   0.00000  Uiso   1.00
O1589  O     0.92693   0.79274   0.72718   0.00000  Uiso   1.00
O1590  O     0.57307   0.70726   0.27282   0.00000  Uiso   1.00
O1591  O     0.79275   0.57307   0.72718   0.00000  Uiso   1.00
O1592  O     0.70726   0.92693   0.27282   0.00000  Uiso   1.00
O1593  O     0.57307   0.70726   0.72718   0.00000  Uiso   1.00
O1594  O     0.92693   0.79274   0.27282   0.00000  Uiso   1.00
O1595  O     0.95726   0.82307   0.77282   0.00000  Uiso   1.00
O1596  O     0.54275   0.67693   0.22718   0.00000  Uiso   1.00
O1597  O     0.67693   0.95726   0.77282   0.00000  Uiso   1.00
O1598  O     0.50000   0.75000   0.75000   0.00000  Uiso   1.00
O1599  O     0.82307   0.54274   0.22718   0.00000  Uiso   1.00
O1600  O     0.54275   0.67693   0.77282   0.00000  Uiso   1.00
O1601  O     0.95726   0.82307   0.22718   0.00000  Uiso   1.00
O1602  O     0.82307   0.54274   0.77282   0.00000  Uiso   1.00
O1603  O     0.67693   0.95726   0.22718   0.00000  Uiso   1.00
O1604  O     0.95726   0.67693   0.22718   0.00000  Uiso   1.00
O1605  O     0.54275   0.82307   0.77282   0.00000  Uiso   1.00
O1606  O     0.67693   0.54274   0.22718   0.00000  Uiso   1.00
O1607  O     0.82307   0.95725   0.77282   0.00000  Uiso   1.00
O1608  O     0.54275   0.82307   0.22718   0.00000  Uiso   1.00
O1609  O     0.75000   0.96964   0.33683   0.00000  Uiso   1.00
O1610  O     0.95726   0.67693   0.77282   0.00000  Uiso   1.00
O1611  O     0.82307   0.95725   0.22718   0.00000  Uiso   1.00
O1612  O     0.67693   0.54274   0.77282   0.00000  Uiso   1.00
O1613  O     0.68922   0.97244   0.10048   0.00000  Uiso   1.00
O1614  O     0.81079   0.97245   0.89952   0.00000  Uiso   1.00
O1615  O     0.52755   0.68921   0.10048   0.00000  Uiso   1.00
O1616  O     0.52756   0.81078   0.89952   0.00000  Uiso   1.00
O1617  O     0.81078   0.52756   0.10048   0.00000  Uiso   1.00
O1618  O     0.68921   0.52755   0.89952   0.00000  Uiso   1.00
O1619  O     0.97245   0.81079   0.10048   0.00000  Uiso   1.00
O1620  O     0.75000   0.53036   0.66317   0.00000  Uiso   1.00
O1621  O     0.97244   0.68922   0.89952   0.00000  Uiso   1.00
O1622  O     0.93921   0.72247   0.60048   0.00000  Uiso   1.00
O1623  O     0.56077   0.72241   0.39952   0.00000  Uiso   1.00
O1624  O     0.77759   0.93923   0.60048   0.00000  Uiso   1.00
O1625  O     0.77753   0.56079   0.39953   0.00000  Uiso   1.00
O1626  O     0.56079   0.77753   0.60048   0.00000  Uiso   1.00
O1627  O     0.93924   0.77759   0.39952   0.00000  Uiso   1.00
O1628  O     0.72241   0.56076   0.60048   0.00000  Uiso   1.00
O1629  O     0.72247   0.93921   0.39953   0.00000  Uiso   1.00
O1630  O     0.53036   0.75000   0.33683   0.00000  Uiso   1.00
O1631  O     0.96964   0.75000   0.66317   0.00000  Uiso   1.00
O1632  O     0.75000   0.53036   0.33683   0.00000  Uiso   1.00
Zn1633 Zn    0.70660   0.50000   0.21760   0.00000  Uiso   1.00
Zn1634 Zn    0.54340   0.75000   0.28240   0.00000  Uiso   1.00
Zn1635 Zn    0.75000   0.95660   0.71760   0.00000  Uiso   1.00
Zn1636 Zn    0.75000   0.54340   0.28240   0.00000  Uiso   1.00
Zn1637 Zn    0.54340   0.75000   0.71760   0.00000  Uiso   1.00
Zn1638 Zn    0.95660   0.75000   0.28240   0.00000  Uiso   1.00
Zn1639 Zn    0.75000   0.54340   0.71760   0.00000  Uiso   1.00
Zn1640 Zn    0.75000   0.95660   0.28240   0.00000  Uiso   1.00
Zn1641 Zn    0.79340   0.50000   0.78240   0.00000  Uiso   1.00
Zn1642 Zn    0.50000   0.70660   0.21760   0.00000  Uiso   1.00
Zn1643 Zn    0.50000   0.79340   0.78240   0.00000  Uiso   1.00
Zn1644 Zn    0.79340   0.50000   0.21760   0.00000  Uiso   1.00
Zn1645 Zn    0.70660   0.50000   0.78240   0.00000  Uiso   1.00
Zn1646 Zn    0.50000   0.79340   0.21760   0.00000  Uiso   1.00
Zn1647 Zn    0.50000   0.70660   0.78240   0.00000  Uiso   1.00
Zn1648 Zn    0.95660   0.75000   0.71760   0.00000  Uiso   1.00
loop_
_geom_bond_atom_site_label_1
_geom_bond_atom_site_label_2
_geom_bond_distance
_geom_bond_site_symmetry_2
_ccdc_geom_bond_type
C1     C78     1.392   .     A
C1     C920    1.398   .     A
C1     H169    1.084   .     S
C2     H170    1.084   .     S
C2     C101    1.398   .     A
C2     C88     1.392   .     A
C3     C144    1.402   .     A
C3     C115    1.454   .     S
C3     C151    1.402   .     A
C4     C154    1.402   .     A
C4     C116    1.455   .     S
C4     C143    1.402   .     A
C5     C142    1.402   .     A
C5     C117    1.454   .     S
C5     C153    1.402   .     A
C6     C141    1.402   .     A
C6     C156    1.402   .     A
C6     C118    1.455   .     S
C7     C119    1.454   .     S
C7     C140    1.402   .     A
C7     C155    1.402   .     A
C8     C129    1.455   .     S
C8     C159    1.402   .     A
C8     C139    1.402   .     A
C9     C130    1.454   .     S
C9     C157    1.402   .     A
C9     C138    1.402   .     A
C10    C122    1.455   .     S
C10    C161    1.402   .     A
C10    C137    1.402   .     A
C11    C160    1.402   .     A
C11    C135    1.402   .     A
C11    C123    1.454   .     S
C12    C163    1.402   .     A
C12    C134    1.402   .     A
C12    C124    1.455   .     S
C13    H181    1.084   .     S
C13    C926    1.398   .     A
C13    C89     1.392   .     A
C14    C126    1.454   .     S
C14    C133    1.402   .     A
C14    C162    1.402   .     A
C15    C132    1.402   .     A
C15    C127    1.455   .     S
C15    C165    1.402   .     A
C16    C131    1.402   .     A
C16    C164    1.402   .     A
C16    C128    1.454   .     S
C17    C83     1.416   .     A
C17    C902    1.416   1_545 S
C17    C112    1.469   .     S
C18    C84     1.416   .     A
C18    C903    1.416   1_545 S
C18    C111    1.469   .     S
C19    C497    1.416   1_455 A
C19    C80     1.416   .     S
C19    C110    1.469   .     S
C20    C498    1.416   1_455 A
C20    C109    1.469   .     S
C20    C82     1.416   .     S
C21    C108    1.469   .     S
C21    C499    1.416   1_455 A
C21    C91     1.416   .     S
C22    C88     1.416   .     A
C22    C505    1.416   1_455 S
C22    C107    1.469   .     S
C23    C913    1.416   1_545 A
C23    C106    1.469   .     S
C23    C94     1.416   .     S
C24    C90     1.392   .     A
C24    H192    1.084   .     S
C24    C104    1.398   .     S
C25    C919    1.416   1_545 A
C25    C90     1.416   .     S
C25    C105    1.469   .     S
C26    C27     1.531   .     S
C26    H275    1.117   .     S
C26    H273    1.111   .     S
C26    O377    1.417   .     S
C27    H277    1.111   .     S
C27    H276    1.112   .     S
C27    C28     1.526   .     S
C28    H280    1.111   .     S
C28    H279    1.110   .     S
C28    H278    1.111   .     S
C29    H282    1.117   .     S
C29    C30     1.531   .     S
C29    H281    1.111   .     S
C29    O378    1.417   .     S
C30    H283    1.112   .     S
C30    C31     1.526   .     S
C30    H284    1.111   .     S
C31    H288    1.111   .     S
C31    H286    1.111   .     S
C31    H287    1.110   .     S
C32    H289    1.111   .     S
C32    C33     1.531   .     S
C32    H290    1.117   .     S
C32    O379    1.417   .     S
C33    H292    1.111   .     S
C33    H291    1.112   .     S
C33    C34     1.526   .     S
C34    H294    1.110   .     S
C34    H295    1.111   .     S
C34    H293    1.111   .     S
C35    C100    1.398   .     A
C35    H203    1.084   .     S
C35    C91     1.392   .     A
C36    C37     1.531   .     S
C36    H298    1.117   .     S
C36    O380    1.417   .     S
C36    H297    1.111   .     S
C37    C38     1.526   .     S
C37    H299    1.112   .     S
C37    H300    1.111   .     S
C38    H302    1.110   .     S
C38    H303    1.111   .     S
C38    H301    1.111   .     S
C39    H305    1.117   .     S
C39    C40     1.531   .     S
C39    H304    1.111   .     S
C39    O381    1.417   .     S
C40    H306    1.112   .     S
C40    H308    1.111   .     S
C40    C41     1.526   .     S
C41    H309    1.111   .     S
C41    H311    1.111   .     S
C41    H310    1.110   .     S
C42    H312    1.111   .     S
C42    O382    1.417   .     S
C42    C43     1.531   .     S
C42    H313    1.117   .     S
C43    H314    1.112   .     S
C43    H315    1.111   .     S
C43    C44     1.526   .     S
C44    H316    1.111   .     S
C44    H317    1.110   .     S
C44    H319    1.111   .     S
C45    C47     1.531   .     S
C45    O383    1.417   .     S
C45    H321    1.117   .     S
C45    H320    1.111   .     S
C46    H214    1.084   .     S
C46    C93     1.392   .     A
C46    C513    1.398   .     S
C47    H322    1.112   .     S
C47    H323    1.111   .     S
C47    C48     1.526   .     S
C48    H324    1.111   .     S
C48    H325    1.110   .     S
C48    H326    1.111   .     S
C49    H328    1.117   .     S
C49    C50     1.531   .     S
C49    O385    1.417   .     S
C49    H327    1.111   .     S
C50    H171    1.112   .     S
C50    H172    1.111   .     S
C50    C51     1.526   .     S
C51    H174    1.110   .     S
C51    H175    1.111   .     S
C51    H173    1.111   .     S
C52    H177    1.117   .     S
C52    O386    1.417   .     S
C52    C53     1.531   .     S
C52    H176    1.111   .     S
C53    C54     1.526   .     S
C53    H179    1.111   .     S
C53    H178    1.112   .     S
C54    H183    1.111   .     S
C54    H182    1.110   .     S
C54    H180    1.111   .     S
C55    C56     1.531   .     S
C55    O387    1.417   .     S
C55    H184    1.111   .     S
C55    H185    1.117   .     S
C56    H187    1.111   .     S
C56    C58     1.526   .     S
C56    H186    1.112   .     S
C57    C94     1.392   .     A
C57    H225    1.084   .     S
C57    C102    1.398   .     S
C58    H190    1.111   .     S
C58    H188    1.111   .     S
C58    H189    1.110   .     S
C59    H191    1.111   .     S
C59    C60     1.531   .     S
C59    H193    1.117   .     S
C59    O388    1.417   .     S
C60    H195    1.111   .     S
C60    C61     1.526   .     S
C60    H194    1.112   .     S
C61    H197    1.110   .     S
C61    H196    1.111   .     S
C61    H198    1.111   .     S
C62    O389    1.417   .     S
C62    H199    1.111   .     S
C62    C63     1.531   .     S
C62    H200    1.117   .     S
C63    H202    1.111   .     S
C63    H201    1.112   .     S
C63    C64     1.526   .     S
C64    H204    1.111   .     S
C64    H205    1.110   .     S
C64    H206    1.111   .     S
C65    H208    1.117   .     S
C65    O390    1.417   .     S
C65    H207    1.111   .     S
C65    C66     1.531   .     S
C66    H210    1.111   .     S
C66    C67     1.526   .     S
C66    H209    1.112   .     S
C67    H211    1.111   .     S
C67    H212    1.110   .     S
C67    H213    1.111   .     S
C68    C95     1.392   .     A
C68    C928    1.398   .     A
C68    H236    1.084   .     S
C69    C70     1.531   .     S
C69    H216    1.117   .     S
C69    H215    1.111   .     S
C69    O391    1.417   .     S
C70    H218    1.111   .     S
C70    C71     1.526   .     S
C70    H217    1.112   .     S
C71    H221    1.111   .     S
C71    H220    1.110   .     S
C71    H219    1.111   .     S
C72    C73     1.531   .     S
C72    O392    1.417   .     S
C72    H223    1.117   .     S
C72    H222    1.111   .     S
C73    C74     1.526   .     S
C73    H226    1.111   .     S
C73    H224    1.112   .     S
C74    H228    1.110   .     S
C74    H229    1.111   .     S
C74    H227    1.111   .     S
C75    C76     1.531   .     S
C75    H230    1.111   .     S
C75    H231    1.117   .     S
C75    O393    1.417   .     S
C76    H232    1.112   .     S
C76    H233    1.111   .     S
C76    C77     1.526   .     S
C77    H235    1.110   .     S
C77    H234    1.111   .     S
C77    H237    1.111   .     S
C78    O377    1.384   .     S
C78    C841    1.416   .     S
C79    O378    1.384   .     S
C79    C81     1.392   .     A
C79    C842    1.416   .     S
C80    C92     1.392   .     A
C80    O379    1.384   .     S
C81    H241    1.084   .     S
C81    C921    1.398   .     S
C82    O380    1.384   .     S
C82    C103    1.392   .     A
C83    C114    1.392   .     A
C83    O381    1.384   .     S
C84    O382    1.384   .     S
C84    C125    1.392   .     A
C85    C431    1.416   .     A
C85    O383    1.384   .     S
C85    C136    1.392   .     A
C86    C147    1.392   .     A
C86    O385    1.384   .     S
C86    C432    1.416   .     A
C87    O386    1.384   .     S
C87    C433    1.416   .     A
C87    C158    1.392   .     A
C88    O387    1.384   .     S
C89    C847    1.416   .     A
C89    O388    1.384   .     S
C90    O389    1.384   .     S
C91    O390    1.384   .     S
C92    H252    1.084   .     S
C92    C98     1.398   .     S
C93    O391    1.384   .     S
C93    C434    1.416   .     S
C94    O392    1.384   .     S
C95    C849    1.416   .     A
C95    O393    1.384   .     S
C96    C825    1.398   1_545 A
C96    C97     1.465   1_554 S
C96    C114    1.398   .     S
C97    C125    1.398   .     A
C97    C96     1.465   1_556 S
C97    C905    1.398   1_545 S
C98    C548    1.398   1_455 A
C98    C99     1.465   1_554 S
C99    C559    1.398   1_455 A
C99    C98     1.465   1_556 S
C99    C103    1.398   .     S
C100   C101    1.465   .     S
C100   C570    1.398   1_455 S
C101   C458    1.398   1_455 S
C102   C104    1.465   .     S
C102   C837    1.398   1_545 A
C103   H263    1.084   .     S
C104   C892    1.398   1_545 A
C105   O396    1.282   .     A
C105   O1197   1.282   1_545 S
C106   O1154   1.282   1_545 A
C106   O384    1.282   .     S
C107   O743    1.282   1_455 A
C107   O394    1.282   .     S
C108   O807    1.282   1_455 A
C108   O332    1.282   .     S
C109   O333    1.282   .     A
C109   O337    1.282   .     S
C110   O334    1.282   .     S
C110   O338    1.282   .     S
C111   O335    1.282   .     S
C111   O339    1.282   .     S
C112   O336    1.282   .     A
C112   O341    1.282   .     A
C113   O342    1.280   .     A
C113   C168    1.455   .     S
C113   O370    1.280   .     A
C114   H274    1.084   .     S
C115   O371    1.280   .     A
C115   O343    1.280   .     A
C116   O368    1.280   .     A
C116   O344    1.280   .     A
C117   O369    1.280   .     A
C117   O345    1.280   .     A
C118   O375    1.280   .     A
C118   O346    1.280   .     A
C119   O347    1.280   .     A
C119   O376    1.280   .     A
C120   C166    1.455   .     S
C120   O348    1.280   .     A
C120   O372    1.280   .     A
C121   O349    1.280   .     A
C121   C167    1.454   .     S
C121   O374    1.280   .     A
C122   O350    1.280   .     A
C122   O361    1.280   .     A
C123   O363    1.280   .     A
C123   O352    1.280   .     A
C124   O353    1.280   .     A
C124   O359    1.280   .     A
C125   H285    1.084   .     S
C126   O360    1.280   .     A
C126   O354    1.280   .     A
C127   O366    1.280   .     A
C127   O355    1.280   .     A
C128   O367    1.280   .     A
C128   O356    1.280   .     A
C129   O364    1.280   .     A
C129   O357    1.280   .     A
C130   O365    1.280   .     A
C130   O358    1.280   .     A
C131   H238    1.083   .     S
C131   C148    1.386   .     A
C132   H239    1.083   .     S
C132   C146    1.386   .     A
C133   H240    1.083   .     S
C133   C145    1.386   .     A
C134   C144    1.386   .     A
C134   H242    1.083   .     S
C135   H243    1.083   .     S
C135   C143    1.386   .     A
C136   H296    1.084   .     S
C136   C510    1.398   .     A
C137   C142    1.386   .     A
C137   H244    1.083   .     S
C138   C141    1.386   .     A
C138   H245    1.083   .     S
C139   C140    1.386   .     A
C139   H246    1.083   .     S
C140   H247    1.083   .     S
C141   H248    1.083   .     S
C142   H249    1.083   .     S
C143   H250    1.083   .     S
C144   H251    1.083   .     S
C145   C168    1.402   .     A
C145   H253    1.083   .     S
C146   H254    1.083   .     S
C146   C167    1.402   .     A
C147   C511    1.398   .     A
C147   H307    1.084   .     S
C148   C166    1.402   .     A
C148   H255    1.083   .     S
C149   H256    1.083   .     S
C149   C165    1.386   .     A
C149   C167    1.402   .     A
C150   C166    1.402   .     A
C150   C164    1.386   .     A
C150   H257    1.083   .     S
C151   C163    1.386   .     A
C151   H258    1.083   .     S
C152   H259    1.083   .     S
C152   C168    1.402   .     A
C152   C162    1.386   .     A
C153   C161    1.386   .     A
C153   H260    1.083   .     S
C154   H261    1.083   .     S
C154   C160    1.386   .     A
C155   C159    1.386   .     A
C155   H262    1.083   .     S
C156   C157    1.386   .     A
C156   H264    1.083   .     S
C157   H265    1.083   .     S
C158   H318    1.084   .     S
C158   C512    1.398   .     S
C159   H266    1.083   .     S
C160   H267    1.083   .     S
C161   H268    1.083   .     S
C162   H269    1.083   .     S
C163   H270    1.083   .     S
C164   H271    1.083   .     S
C165   H272    1.083   .     S
O329   Zn400   1.945   .     S
O329   Zn408   1.945   .     S
O329   Zn397   1.945   .     S
O329   Zn1228  1.945   1_545 S
O330   Zn399   1.941   .     S
O330   C930    1.282   .     A
O331   C519    1.282   .     A
O331   Zn402   1.941   .     S
O332   Zn401   1.941   .     S
O333   Zn411   1.941   .     S
O334   Zn410   1.941   .     S
O335   Zn405   1.941   .     S
O336   Zn397   1.941   .     S
O337   Zn407   1.941   .     S
O338   Zn406   1.941   .     S
O339   Zn409   1.941   .     S
O340   Zn409   1.945   .     S
O340   Zn403   1.945   .     S
O340   Zn405   1.945   .     S
O340   Zn1223  1.945   1_545 S
O341   Zn408   1.941   .     S
O342   Zn400   1.936   .     S
O343   Zn399   1.936   .     S
O344   Zn402   1.936   .     S
O345   Zn401   1.936   .     S
O346   Zn404   1.936   .     S
O347   Zn403   1.936   .     S
O348   Zn398   1.936   .     S
O349   Zn412   1.936   .     S
O350   Zn399   1.936   .     S
O351   Zn814   1.945   1_455 S
O351   Zn406   1.945   .     S
O351   Zn398   1.945   .     S
O351   Zn410   1.945   .     S
O352   Zn400   1.936   .     S
O353   Zn412   1.936   .     S
O354   Zn398   1.936   .     S
O355   Zn403   1.936   .     S
O356   Zn404   1.936   .     S
O357   Zn401   1.936   .     S
O358   Zn402   1.936   .     S
O359   Zn819   1.936   .     S
O360   Zn406   1.936   .     S
O361   Zn1233  1.936   .     S
O362   Zn411   1.945   .     S
O362   Zn824   1.945   1_455 S
O362   Zn407   1.945   .     S
O362   Zn401   1.945   .     S
O363   Zn408   1.936   .     S
O364   Zn411   1.936   .     S
O365   Zn822   1.936   .     S
O366   Zn405   1.936   .     S
O367   Zn1221  1.936   .     S
O368   Zn818   1.936   .     S
O369   Zn407   1.936   .     S
O370   Zn397   1.936   .     S
O371   Zn1229  1.936   .     S
O372   Zn410   1.936   .     S
O373   Zn404   1.941   .     S
O373   C929    1.282   .     S
O374   Zn823   1.936   .     S
O375   Zn1232  1.936   .     S
O376   Zn409   1.936   .     S
O384   Zn403   1.941   .     S
O394   Zn398   1.941   .     S
O395   C520    1.282   .     A
O395   Zn412   1.941   .     S
O396   Zn400   1.941   .     S
Zn397  O1191   1.936   1_545 S
Zn399  O1164   1.945   .     S
Zn402  O763    1.945   .     S
Zn404  O1153   1.945   .     S
Zn405  O1195   1.936   1_545 S
Zn406  O780    1.936   1_455 S
Zn407  O771    1.936   1_455 S
Zn408  O1199   1.936   1_545 S
Zn409  O1185   1.936   1_545 S
Zn410  O777    1.936   1_455 S
Zn411  O786    1.936   1_455 S
Zn412  O774    1.945   .     S
C413   C490    1.392   .     A
C413   C1332   1.398   .     A
C413   H581    1.084   .     S
C414   H582    1.084   .     S
C414   C513    1.398   .     A
C414   C500    1.392   .     A
C415   C556    1.402   .     A
C415   C527    1.454   .     S
C415   C563    1.402   .     A
C416   C566    1.402   .     A
C416   C528    1.455   .     S
C416   C555    1.402   .     A
C417   C554    1.402   .     A
C417   C529    1.454   .     S
C417   C565    1.402   .     A
C418   C553    1.402   .     A
C418   C568    1.402   .     A
C418   C530    1.455   .     S
C419   C531    1.454   .     S
C419   C552    1.402   .     A
C419   C567    1.402   .     A
C420   C541    1.455   .     S
C420   C571    1.402   .     A
C420   C551    1.402   .     A
C421   C542    1.454   .     S
C421   C569    1.402   .     A
C421   C550    1.402   .     A
C422   C534    1.455   .     S
C422   C573    1.402   .     A
C422   C549    1.402   .     A
C423   C572    1.402   .     A
C423   C547    1.402   .     A
C423   C535    1.454   .     S
C424   C575    1.402   .     A
C424   C546    1.402   .     A
C424   C536    1.455   .     S
C425   H593    1.084   .     S
C425   C1338   1.398   .     A
C425   C501    1.392   .     A
C426   C538    1.454   .     S
C426   C545    1.402   .     A
C426   C574    1.402   .     A
C427   C544    1.402   .     A
C427   C539    1.455   .     S
C427   C577    1.402   .     A
C428   C543    1.402   .     A
C428   C576    1.402   .     A
C428   C540    1.454   .     S
C429   C495    1.416   .     A
C429   C1314   1.416   1_545 S
C429   C524    1.469   .     S
C430   C496    1.416   .     A
C430   C1315   1.416   1_545 S
C430   C523    1.469   .     S
C431   C492    1.416   .     S
C431   C522    1.469   .     S
C432   C521    1.469   .     S
C432   C494    1.416   .     S
C433   C520    1.469   .     S
C433   C503    1.416   .     S
C434   C500    1.416   .     A
C434   C519    1.469   .     S
C435   C1325   1.416   1_545 A
C435   C518    1.469   .     S
C435   C506    1.416   .     S
C436   C502    1.392   .     A
C436   H604    1.084   .     S
C436   C516    1.398   .     S
C437   C1331   1.416   1_545 A
C437   C502    1.416   .     S
C437   C517    1.469   .     S
C438   C439    1.531   .     S
C438   H687    1.117   .     S
C438   H685    1.111   .     S
C438   O789    1.417   .     S
C439   H689    1.111   .     S
C439   H688    1.112   .     S
C439   C440    1.526   .     S
C440   H692    1.111   .     S
C440   H691    1.110   .     S
C440   H690    1.111   .     S
C441   H694    1.117   .     S
C441   C442    1.531   .     S
C441   H693    1.111   .     S
C441   O790    1.417   .     S
C442   H695    1.112   .     S
C442   C443    1.526   .     S
C442   H696    1.111   .     S
C443   H700    1.111   .     S
C443   H698    1.111   .     S
C443   H699    1.110   .     S
C444   H701    1.111   .     S
C444   C445    1.531   .     S
C444   H702    1.117   .     S
C444   O791    1.417   .     S
C445   H704    1.111   .     S
C445   H703    1.112   .     S
C445   C446    1.526   .     S
C446   H706    1.110   .     S
C446   H707    1.111   .     S
C446   H705    1.111   .     S
C447   C512    1.398   .     A
C447   H615    1.084   .     S
C447   C503    1.392   .     A
C448   C449    1.531   .     S
C448   H710    1.117   .     S
C448   O792    1.417   .     S
C448   H709    1.111   .     S
C449   C450    1.526   .     S
C449   H711    1.112   .     S
C449   H712    1.111   .     S
C450   H714    1.110   .     S
C450   H715    1.111   .     S
C450   H713    1.111   .     S
C451   H717    1.117   .     S
C451   C452    1.531   .     S
C451   H716    1.111   .     S
C451   O793    1.417   .     S
C452   H718    1.112   .     S
C452   H720    1.111   .     S
C452   C453    1.526   .     S
C453   H721    1.111   .     S
C453   H723    1.111   .     S
C453   H722    1.110   .     S
C454   H724    1.111   .     S
C454   O794    1.417   .     S
C454   C455    1.531   .     S
C454   H725    1.117   .     S
C455   H726    1.112   .     S
C455   H727    1.111   .     S
C455   C456    1.526   .     S
C456   H728    1.111   .     S
C456   H729    1.110   .     S
C456   H731    1.111   .     S
C457   C459    1.531   .     S
C457   O795    1.417   .     S
C457   H733    1.117   .     S
C457   H732    1.111   .     S
C458   H626    1.084   .     S
C458   C505    1.392   .     A
C458   C101    1.398   1_655 S
C459   H734    1.112   .     S
C459   H735    1.111   .     S
C459   C460    1.526   .     S
C460   H736    1.111   .     S
C460   H737    1.110   .     S
C460   H738    1.111   .     S
C461   H740    1.117   .     S
C461   C462    1.531   .     S
C461   O797    1.417   .     S
C461   H739    1.111   .     S
C462   H583    1.112   .     S
C462   H584    1.111   .     S
C462   C463    1.526   .     S
C463   H586    1.110   .     S
C463   H587    1.111   .     S
C463   H585    1.111   .     S
C464   H589    1.117   .     S
C464   O798    1.417   .     S
C464   C465    1.531   .     S
C464   H588    1.111   .     S
C465   C466    1.526   .     S
C465   H591    1.111   .     S
C465   H590    1.112   .     S
C466   H595    1.111   .     S
C466   H594    1.110   .     S
C466   H592    1.111   .     S
C467   C468    1.531   .     S
C467   O799    1.417   .     S
C467   H596    1.111   .     S
C467   H597    1.117   .     S
C468   H599    1.111   .     S
C468   C470    1.526   .     S
C468   H598    1.112   .     S
C469   C506    1.392   .     A
C469   H637    1.084   .     S
C469   C514    1.398   .     S
C470   H602    1.111   .     S
C470   H600    1.111   .     S
C470   H601    1.110   .     S
C471   H603    1.111   .     S
C471   C472    1.531   .     S
C471   H605    1.117   .     S
C471   O800    1.417   .     S
C472   H607    1.111   .     S
C472   C473    1.526   .     S
C472   H606    1.112   .     S
C473   H609    1.110   .     S
C473   H608    1.111   .     S
C473   H610    1.111   .     S
C474   O801    1.417   .     S
C474   H611    1.111   .     S
C474   C475    1.531   .     S
C474   H612    1.117   .     S
C475   H614    1.111   .     S
C475   H613    1.112   .     S
C475   C476    1.526   .     S
C476   H616    1.111   .     S
C476   H617    1.110   .     S
C476   H618    1.111   .     S
C477   H620    1.117   .     S
C477   O802    1.417   .     S
C477   H619    1.111   .     S
C477   C478    1.531   .     S
C478   H622    1.111   .     S
C478   C479    1.526   .     S
C478   H621    1.112   .     S
C479   H623    1.111   .     S
C479   H624    1.110   .     S
C479   H625    1.111   .     S
C480   C507    1.392   .     A
C480   C1340   1.398   .     A
C480   H648    1.084   .     S
C481   C482    1.531   .     S
C481   H628    1.117   .     S
C481   H627    1.111   .     S
C481   O803    1.417   .     S
C482   H630    1.111   .     S
C482   C483    1.526   .     S
C482   H629    1.112   .     S
C483   H633    1.111   .     S
C483   H632    1.110   .     S
C483   H631    1.111   .     S
C484   C485    1.531   .     S
C484   O804    1.417   .     S
C484   H635    1.117   .     S
C484   H634    1.111   .     S
C485   C486    1.526   .     S
C485   H638    1.111   .     S
C485   H636    1.112   .     S
C486   H640    1.110   .     S
C486   H641    1.111   .     S
C486   H639    1.111   .     S
C487   C488    1.531   .     S
C487   H642    1.111   .     S
C487   H643    1.117   .     S
C487   O805    1.417   .     S
C488   H644    1.112   .     S
C488   H645    1.111   .     S
C488   C489    1.526   .     S
C489   H647    1.110   .     S
C489   H646    1.111   .     S
C489   H649    1.111   .     S
C490   O789    1.384   .     S
C490   C1253   1.416   .     S
C491   O790    1.384   .     S
C491   C493    1.392   .     A
C491   C1254   1.416   .     S
C492   C504    1.392   .     A
C492   O791    1.384   .     S
C493   H653    1.084   .     S
C493   C1333   1.398   .     S
C494   O792    1.384   .     S
C494   C515    1.392   .     A
C495   C526    1.392   .     A
C495   O793    1.384   .     S
C496   O794    1.384   .     S
C496   C537    1.392   .     A
C497   C19     1.416   1_655 A
C497   O795    1.384   .     S
C497   C548    1.392   .     A
C498   C559    1.392   .     A
C498   O797    1.384   .     S
C498   C20     1.416   1_655 A
C499   O798    1.384   .     S
C499   C21     1.416   1_655 A
C499   C570    1.392   .     A
C500   O799    1.384   .     S
C501   C1259   1.416   .     A
C501   O800    1.384   .     S
C502   O801    1.384   .     S
C503   O802    1.384   .     S
C504   H664    1.084   .     S
C504   C510    1.398   .     S
C505   O803    1.384   .     S
C505   C22     1.416   1_655 S
C506   O804    1.384   .     S
C507   C1261   1.416   .     A
C507   O805    1.384   .     S
C508   C1237   1.398   1_545 A
C508   C509    1.465   1_554 S
C508   C526    1.398   .     S
C509   C537    1.398   .     A
C509   C508    1.465   1_556 S
C509   C1317   1.398   1_545 S
C510   C511    1.465   1_554 S
C511   C510    1.465   1_556 S
C511   C515    1.398   .     S
C512   C513    1.465   .     S
C514   C516    1.465   .     S
C514   C1249   1.398   1_545 A
C515   H675    1.084   .     S
C516   C1304   1.398   1_545 A
C517   O808    1.282   .     A
C517   O1609   1.282   1_545 S
C518   O1566   1.282   1_545 A
C518   O796    1.282   .     S
C519   O806    1.282   .     S
C520   O744    1.282   .     S
C521   O745    1.282   .     A
C521   O749    1.282   .     S
C522   O746    1.282   .     S
C522   O750    1.282   .     S
C523   O747    1.282   .     S
C523   O751    1.282   .     S
C524   O748    1.282   .     A
C524   O753    1.282   .     A
C525   O754    1.280   .     A
C525   C580    1.455   .     S
C525   O782    1.280   .     A
C526   H686    1.084   .     S
C527   O783    1.280   .     A
C527   O755    1.280   .     A
C528   O780    1.280   .     A
C528   O756    1.280   .     A
C529   O781    1.280   .     A
C529   O757    1.280   .     A
C530   O787    1.280   .     A
C530   O758    1.280   .     A
C531   O759    1.280   .     A
C531   O788    1.280   .     A
C532   C578    1.455   .     S
C532   O760    1.280   .     A
C532   O784    1.280   .     A
C533   O761    1.280   .     A
C533   C579    1.454   .     S
C533   O786    1.280   .     A
C534   O762    1.280   .     A
C534   O773    1.280   .     A
C535   O775    1.280   .     A
C535   O764    1.280   .     A
C536   O765    1.280   .     A
C536   O771    1.280   .     A
C537   H697    1.084   .     S
C538   O772    1.280   .     A
C538   O766    1.280   .     A
C539   O778    1.280   .     A
C539   O767    1.280   .     A
C540   O779    1.280   .     A
C540   O768    1.280   .     A
C541   O776    1.280   .     A
C541   O769    1.280   .     A
C542   O777    1.280   .     A
C542   O770    1.280   .     A
C543   H650    1.083   .     S
C543   C560    1.386   .     A
C544   H651    1.083   .     S
C544   C558    1.386   .     A
C545   H652    1.083   .     S
C545   C557    1.386   .     A
C546   C556    1.386   .     A
C546   H654    1.083   .     S
C547   H655    1.083   .     S
C547   C555    1.386   .     A
C548   H708    1.084   .     S
C548   C98     1.398   1_655 A
C549   C554    1.386   .     A
C549   H656    1.083   .     S
C550   C553    1.386   .     A
C550   H657    1.083   .     S
C551   C552    1.386   .     A
C551   H658    1.083   .     S
C552   H659    1.083   .     S
C553   H660    1.083   .     S
C554   H661    1.083   .     S
C555   H662    1.083   .     S
C556   H663    1.083   .     S
C557   C580    1.402   .     A
C557   H665    1.083   .     S
C558   H666    1.083   .     S
C558   C579    1.402   .     A
C559   C99     1.398   1_655 A
C559   H719    1.084   .     S
C560   C578    1.402   .     A
C560   H667    1.083   .     S
C561   H668    1.083   .     S
C561   C577    1.386   .     A
C561   C579    1.402   .     A
C562   C578    1.402   .     A
C562   C576    1.386   .     A
C562   H669    1.083   .     S
C563   C575    1.386   .     A
C563   H670    1.083   .     S
C564   H671    1.083   .     S
C564   C580    1.402   .     A
C564   C574    1.386   .     A
C565   C573    1.386   .     A
C565   H672    1.083   .     S
C566   H673    1.083   .     S
C566   C572    1.386   .     A
C567   C571    1.386   .     A
C567   H674    1.083   .     S
C568   C569    1.386   .     A
C568   H676    1.083   .     S
C569   H677    1.083   .     S
C570   H730    1.084   .     S
C570   C100    1.398   1_655 S
C571   H678    1.083   .     S
C572   H679    1.083   .     S
C573   H680    1.083   .     S
C574   H681    1.083   .     S
C575   H682    1.083   .     S
C576   H683    1.083   .     S
C577   H684    1.083   .     S
O741   Zn812   1.945   .     S
O741   Zn820   1.945   .     S
O741   Zn809   1.945   .     S
O741   Zn1640  1.945   1_545 S
O742   Zn811   1.941   .     S
O742   C1342   1.282   .     A
O743   C107    1.282   1_655 A
O743   Zn814   1.941   .     S
O744   Zn813   1.941   .     S
O745   Zn823   1.941   .     S
O746   Zn822   1.941   .     S
O747   Zn817   1.941   .     S
O748   Zn809   1.941   .     S
O749   Zn819   1.941   .     S
O750   Zn818   1.941   .     S
O751   Zn821   1.941   .     S
O752   Zn821   1.945   .     S
O752   Zn815   1.945   .     S
O752   Zn817   1.945   .     S
O752   Zn1635  1.945   1_545 S
O753   Zn820   1.941   .     S
O754   Zn812   1.936   .     S
O755   Zn811   1.936   .     S
O756   Zn814   1.936   .     S
O757   Zn813   1.936   .     S
O758   Zn816   1.936   .     S
O759   Zn815   1.936   .     S
O760   Zn810   1.936   .     S
O761   Zn824   1.936   .     S
O762   Zn811   1.936   .     S
O763   Zn818   1.945   .     S
O763   Zn810   1.945   .     S
O763   Zn822   1.945   .     S
O764   Zn812   1.936   .     S
O765   Zn824   1.936   .     S
O766   Zn810   1.936   .     S
O767   Zn815   1.936   .     S
O768   Zn816   1.936   .     S
O769   Zn813   1.936   .     S
O770   Zn814   1.936   .     S
O771   Zn407   1.936   1_655 S
O772   Zn818   1.936   .     S
O773   Zn1645  1.936   .     S
O774   Zn823   1.945   .     S
O774   Zn819   1.945   .     S
O774   Zn813   1.945   .     S
O775   Zn820   1.936   .     S
O776   Zn823   1.936   .     S
O777   Zn410   1.936   1_655 S
O778   Zn817   1.936   .     S
O779   Zn1633  1.936   .     S
O780   Zn406   1.936   1_655 S
O781   Zn819   1.936   .     S
O782   Zn809   1.936   .     S
O783   Zn1641  1.936   .     S
O784   Zn822   1.936   .     S
O785   Zn816   1.941   .     S
O785   C1341   1.282   .     S
O786   Zn411   1.936   1_655 S
O787   Zn1644  1.936   .     S
O788   Zn821   1.936   .     S
O796   Zn815   1.941   .     S
O806   Zn810   1.941   .     S
O807   C108    1.282   1_655 A
O807   Zn824   1.941   .     S
O808   Zn812   1.941   .     S
Zn809  O1603   1.936   1_545 S
Zn811  O1576   1.945   .     S
Zn814  O351    1.945   1_655 S
Zn816  O1565   1.945   .     S
Zn817  O1607   1.936   1_545 S
Zn820  O1611   1.936   1_545 S
Zn821  O1597   1.936   1_545 S
Zn824  O362    1.945   1_655 S
C825   C902    1.392   .     A
C825   C96     1.398   1_565 A
C825   H993    1.084   .     S
C826   H994    1.084   .     S
C826   C925    1.398   .     A
C826   C912    1.392   .     A
C827   C968    1.402   .     A
C827   C939    1.454   .     S
C827   C975    1.402   .     A
C828   C978    1.402   .     A
C828   C940    1.455   .     S
C828   C967    1.402   .     A
C829   C966    1.402   .     A
C829   C941    1.454   .     S
C829   C977    1.402   .     A
C830   C965    1.402   .     A
C830   C980    1.402   .     A
C830   C942    1.455   .     S
C831   C943    1.454   .     S
C831   C964    1.402   .     A
C831   C979    1.402   .     A
C832   C953    1.455   .     S
C832   C983    1.402   .     A
C832   C963    1.402   .     A
C833   C954    1.454   .     S
C833   C981    1.402   .     A
C833   C962    1.402   .     A
C834   C946    1.455   .     S
C834   C985    1.402   .     A
C834   C961    1.402   .     A
C835   C984    1.402   .     A
C835   C959    1.402   .     A
C835   C947    1.454   .     S
C836   C987    1.402   .     A
C836   C958    1.402   .     A
C836   C948    1.455   .     S
C837   H1005   1.084   .     S
C837   C102    1.398   1_565 A
C837   C913    1.392   .     A
C838   C950    1.454   .     S
C838   C957    1.402   .     A
C838   C986    1.402   .     A
C839   C956    1.402   .     A
C839   C951    1.455   .     S
C839   C989    1.402   .     A
C840   C955    1.402   .     A
C840   C988    1.402   .     A
C840   C952    1.454   .     S
C841   C907    1.416   .     A
C841   C936    1.469   .     S
C842   C908    1.416   .     A
C842   C935    1.469   .     S
C843   C1321   1.416   1_455 A
C843   C904    1.416   .     S
C843   C934    1.469   .     S
C844   C1322   1.416   1_455 A
C844   C933    1.469   .     S
C844   C906    1.416   .     S
C845   C932    1.469   .     S
C845   C1323   1.416   1_455 A
C845   C915    1.416   .     S
C846   C912    1.416   .     A
C846   C1329   1.416   1_455 S
C846   C931    1.469   .     S
C847   C930    1.469   .     S
C847   C918    1.416   .     S
C848   C914    1.392   .     A
C848   H1016   1.084   .     S
C848   C928    1.398   .     S
C849   C914    1.416   .     S
C849   C929    1.469   .     S
C850   C851    1.531   .     S
C850   H1099   1.117   .     S
C850   H1097   1.111   .     S
C850   O1201   1.417   .     S
C851   H1101   1.111   .     S
C851   H1100   1.112   .     S
C851   C852    1.526   .     S
C852   H1104   1.111   .     S
C852   H1103   1.110   .     S
C852   H1102   1.111   .     S
C853   H1106   1.117   .     S
C853   C854    1.531   .     S
C853   H1105   1.111   .     S
C853   O1202   1.417   .     S
C854   H1107   1.112   .     S
C854   C855    1.526   .     S
C854   H1108   1.111   .     S
C855   H1112   1.111   .     S
C855   H1110   1.111   .     S
C855   H1111   1.110   .     S
C856   H1113   1.111   .     S
C856   C857    1.531   .     S
C856   H1114   1.117   .     S
C856   O1203   1.417   .     S
C857   H1116   1.111   .     S
C857   H1115   1.112   .     S
C857   C858    1.526   .     S
C858   H1118   1.110   .     S
C858   H1119   1.111   .     S
C858   H1117   1.111   .     S
C859   C924    1.398   .     A
C859   H1027   1.084   .     S
C859   C915    1.392   .     A
C860   C861    1.531   .     S
C860   H1122   1.117   .     S
C860   O1204   1.417   .     S
C860   H1121   1.111   .     S
C861   C862    1.526   .     S
C861   H1123   1.112   .     S
C861   H1124   1.111   .     S
C862   H1126   1.110   .     S
C862   H1127   1.111   .     S
C862   H1125   1.111   .     S
C863   H1129   1.117   .     S
C863   C864    1.531   .     S
C863   H1128   1.111   .     S
C863   O1205   1.417   .     S
C864   H1130   1.112   .     S
C864   H1132   1.111   .     S
C864   C865    1.526   .     S
C865   H1133   1.111   .     S
C865   H1135   1.111   .     S
C865   H1134   1.110   .     S
C866   H1136   1.111   .     S
C866   O1206   1.417   .     S
C866   C867    1.531   .     S
C866   H1137   1.117   .     S
C867   H1138   1.112   .     S
C867   H1139   1.111   .     S
C867   C868    1.526   .     S
C868   H1140   1.111   .     S
C868   H1141   1.110   .     S
C868   H1143   1.111   .     S
C869   C871    1.531   .     S
C869   O1207   1.417   .     S
C869   H1145   1.117   .     S
C869   H1144   1.111   .     S
C870   H1038   1.084   .     S
C870   C917    1.392   .     A
C870   C1337   1.398   .     S
C871   H1146   1.112   .     S
C871   H1147   1.111   .     S
C871   C872    1.526   .     S
C872   H1148   1.111   .     S
C872   H1149   1.110   .     S
C872   H1150   1.111   .     S
C873   H1152   1.117   .     S
C873   C874    1.531   .     S
C873   O1209   1.417   .     S
C873   H1151   1.111   .     S
C874   H995    1.112   .     S
C874   H996    1.111   .     S
C874   C875    1.526   .     S
C875   H998    1.110   .     S
C875   H999    1.111   .     S
C875   H997    1.111   .     S
C876   H1001   1.117   .     S
C876   O1210   1.417   .     S
C876   C877    1.531   .     S
C876   H1000   1.111   .     S
C877   C878    1.526   .     S
C877   H1003   1.111   .     S
C877   H1002   1.112   .     S
C878   H1007   1.111   .     S
C878   H1006   1.110   .     S
C878   H1004   1.111   .     S
C879   C880    1.531   .     S
C879   O1211   1.417   .     S
C879   H1008   1.111   .     S
C879   H1009   1.117   .     S
C880   H1011   1.111   .     S
C880   C882    1.526   .     S
C880   H1010   1.112   .     S
C881   C918    1.392   .     A
C881   H1049   1.084   .     S
C881   C926    1.398   .     S
C882   H1014   1.111   .     S
C882   H1012   1.111   .     S
C882   H1013   1.110   .     S
C883   H1015   1.111   .     S
C883   C884    1.531   .     S
C883   H1017   1.117   .     S
C883   O1212   1.417   .     S
C884   H1019   1.111   .     S
C884   C885    1.526   .     S
C884   H1018   1.112   .     S
C885   H1021   1.110   .     S
C885   H1020   1.111   .     S
C885   H1022   1.111   .     S
C886   O1213   1.417   .     S
C886   H1023   1.111   .     S
C886   C887    1.531   .     S
C886   H1024   1.117   .     S
C887   H1026   1.111   .     S
C887   H1025   1.112   .     S
C887   C888    1.526   .     S
C888   H1028   1.111   .     S
C888   H1029   1.110   .     S
C888   H1030   1.111   .     S
C889   H1032   1.117   .     S
C889   O1214   1.417   .     S
C889   H1031   1.111   .     S
C889   C890    1.531   .     S
C890   H1034   1.111   .     S
C890   C891    1.526   .     S
C890   H1033   1.112   .     S
C891   H1035   1.111   .     S
C891   H1036   1.110   .     S
C891   H1037   1.111   .     S
C892   C919    1.392   .     A
C892   C104    1.398   1_565 A
C892   H1060   1.084   .     S
C893   C894    1.531   .     S
C893   H1040   1.117   .     S
C893   H1039   1.111   .     S
C893   O1215   1.417   .     S
C894   H1042   1.111   .     S
C894   C895    1.526   .     S
C894   H1041   1.112   .     S
C895   H1045   1.111   .     S
C895   H1044   1.110   .     S
C895   H1043   1.111   .     S
C896   C897    1.531   .     S
C896   O1216   1.417   .     S
C896   H1047   1.117   .     S
C896   H1046   1.111   .     S
C897   C898    1.526   .     S
C897   H1050   1.111   .     S
C897   H1048   1.112   .     S
C898   H1052   1.110   .     S
C898   H1053   1.111   .     S
C898   H1051   1.111   .     S
C899   C900    1.531   .     S
C899   H1054   1.111   .     S
C899   H1055   1.117   .     S
C899   O1217   1.417   .     S
C900   H1056   1.112   .     S
C900   H1057   1.111   .     S
C900   C901    1.526   .     S
C901   H1059   1.110   .     S
C901   H1058   1.111   .     S
C901   H1061   1.111   .     S
C902   O1201   1.384   .     S
C902   C17     1.416   1_565 S
C903   O1202   1.384   .     S
C903   C905    1.392   .     A
C903   C18     1.416   1_565 S
C904   C916    1.392   .     A
C904   O1203   1.384   .     S
C905   H1065   1.084   .     S
C905   C97     1.398   1_565 S
C906   O1204   1.384   .     S
C906   C927    1.392   .     A
C907   C938    1.392   .     A
C907   O1205   1.384   .     S
C908   O1206   1.384   .     S
C908   C949    1.392   .     A
C909   C1255   1.416   .     A
C909   O1207   1.384   .     S
C909   C960    1.392   .     A
C910   C971    1.392   .     A
C910   O1209   1.384   .     S
C910   C1256   1.416   .     A
C911   O1210   1.384   .     S
C911   C1257   1.416   .     A
C911   C982    1.392   .     A
C912   O1211   1.384   .     S
C913   C23     1.416   1_565 A
C913   O1212   1.384   .     S
C914   O1213   1.384   .     S
C915   O1214   1.384   .     S
C916   H1076   1.084   .     S
C916   C922    1.398   .     S
C917   O1215   1.384   .     S
C917   C1258   1.416   .     S
C918   O1216   1.384   .     S
C919   C25     1.416   1_565 A
C919   O1217   1.384   .     S
C920   C921    1.465   1_554 S
C920   C938    1.398   .     S
C921   C949    1.398   .     A
C921   C920    1.465   1_556 S
C922   C1372   1.398   1_455 A
C922   C923    1.465   1_554 S
C923   C1383   1.398   1_455 A
C923   C922    1.465   1_556 S
C923   C927    1.398   .     S
C924   C925    1.465   .     S
C924   C1394   1.398   1_455 S
C925   C1282   1.398   1_455 S
C926   C928    1.465   .     S
C927   H1087   1.084   .     S
C929   O1220   1.282   .     A
C930   O1208   1.282   .     S
C931   O1567   1.282   1_455 A
C931   O1218   1.282   .     S
C932   O1631   1.282   1_455 A
C932   O1156   1.282   .     S
C933   O1157   1.282   .     A
C933   O1161   1.282   .     S
C934   O1158   1.282   .     S
C934   O1162   1.282   .     S
C935   O1159   1.282   .     S
C935   O1163   1.282   .     S
C936   O1160   1.282   .     A
C936   O1165   1.282   .     A
C937   O1166   1.280   .     A
C937   C992    1.455   .     S
C937   O1194   1.280   .     A
C938   H1098   1.084   .     S
C939   O1195   1.280   .     A
C939   O1167   1.280   .     A
C940   O1192   1.280   .     A
C940   O1168   1.280   .     A
C941   O1193   1.280   .     A
C941   O1169   1.280   .     A
C942   O1199   1.280   .     A
C942   O1170   1.280   .     A
C943   O1171   1.280   .     A
C943   O1200   1.280   .     A
C944   C990    1.455   .     S
C944   O1172   1.280   .     A
C944   O1196   1.280   .     A
C945   O1173   1.280   .     A
C945   C991    1.454   .     S
C945   O1198   1.280   .     A
C946   O1174   1.280   .     A
C946   O1185   1.280   .     A
C947   O1187   1.280   .     A
C947   O1176   1.280   .     A
C948   O1177   1.280   .     A
C948   O1183   1.280   .     A
C949   H1109   1.084   .     S
C950   O1184   1.280   .     A
C950   O1178   1.280   .     A
C951   O1190   1.280   .     A
C951   O1179   1.280   .     A
C952   O1191   1.280   .     A
C952   O1180   1.280   .     A
C953   O1188   1.280   .     A
C953   O1181   1.280   .     A
C954   O1189   1.280   .     A
C954   O1182   1.280   .     A
C955   H1062   1.083   .     S
C955   C972    1.386   .     A
C956   H1063   1.083   .     S
C956   C970    1.386   .     A
C957   H1064   1.083   .     S
C957   C969    1.386   .     A
C958   C968    1.386   .     A
C958   H1066   1.083   .     S
C959   H1067   1.083   .     S
C959   C967    1.386   .     A
C960   H1120   1.084   .     S
C960   C1334   1.398   .     A
C961   C966    1.386   .     A
C961   H1068   1.083   .     S
C962   C965    1.386   .     A
C962   H1069   1.083   .     S
C963   C964    1.386   .     A
C963   H1070   1.083   .     S
C964   H1071   1.083   .     S
C965   H1072   1.083   .     S
C966   H1073   1.083   .     S
C967   H1074   1.083   .     S
C968   H1075   1.083   .     S
C969   C992    1.402   .     A
C969   H1077   1.083   .     S
C970   H1078   1.083   .     S
C970   C991    1.402   .     A
C971   C1335   1.398   .     A
C971   H1131   1.084   .     S
C972   C990    1.402   .     A
C972   H1079   1.083   .     S
C973   H1080   1.083   .     S
C973   C989    1.386   .     A
C973   C991    1.402   .     A
C974   C990    1.402   .     A
C974   C988    1.386   .     A
C974   H1081   1.083   .     S
C975   C987    1.386   .     A
C975   H1082   1.083   .     S
C976   H1083   1.083   .     S
C976   C992    1.402   .     A
C976   C986    1.386   .     A
C977   C985    1.386   .     A
C977   H1084   1.083   .     S
C978   H1085   1.083   .     S
C978   C984    1.386   .     A
C979   C983    1.386   .     A
C979   H1086   1.083   .     S
C980   C981    1.386   .     A
C980   H1088   1.083   .     S
C981   H1089   1.083   .     S
C982   H1142   1.084   .     S
C982   C1336   1.398   .     S
C983   H1090   1.083   .     S
C984   H1091   1.083   .     S
C985   H1092   1.083   .     S
C986   H1093   1.083   .     S
C987   H1094   1.083   .     S
C988   H1095   1.083   .     S
C989   H1096   1.083   .     S
O1153  Zn1224  1.945   .     S
O1153  Zn1232  1.945   .     S
O1153  Zn1221  1.945   .     S
O1154  Zn1223  1.941   .     S
O1154  C106    1.282   1_565 A
O1155  C1343   1.282   .     A
O1155  Zn1226  1.941   .     S
O1156  Zn1225  1.941   .     S
O1157  Zn1235  1.941   .     S
O1158  Zn1234  1.941   .     S
O1159  Zn1229  1.941   .     S
O1160  Zn1221  1.941   .     S
O1161  Zn1231  1.941   .     S
O1162  Zn1230  1.941   .     S
O1163  Zn1233  1.941   .     S
O1164  Zn1233  1.945   .     S
O1164  Zn1227  1.945   .     S
O1164  Zn1229  1.945   .     S
O1165  Zn1232  1.941   .     S
O1166  Zn1224  1.936   .     S
O1167  Zn1223  1.936   .     S
O1168  Zn1226  1.936   .     S
O1169  Zn1225  1.936   .     S
O1170  Zn1228  1.936   .     S
O1171  Zn1227  1.936   .     S
O1172  Zn1222  1.936   .     S
O1173  Zn1236  1.936   .     S
O1174  Zn1223  1.936   .     S
O1175  Zn1638  1.945   1_455 S
O1175  Zn1230  1.945   .     S
O1175  Zn1222  1.945   .     S
O1175  Zn1234  1.945   .     S
O1176  Zn1224  1.936   .     S
O1177  Zn1236  1.936   .     S
O1178  Zn1222  1.936   .     S
O1179  Zn1227  1.936   .     S
O1180  Zn1228  1.936   .     S
O1181  Zn1225  1.936   .     S
O1182  Zn1226  1.936   .     S
O1183  Zn1643  1.936   .     S
O1184  Zn1230  1.936   .     S
O1185  Zn409   1.936   1_565 S
O1186  Zn1235  1.945   .     S
O1186  Zn1648  1.945   1_455 S
O1186  Zn1231  1.945   .     S
O1186  Zn1225  1.945   .     S
O1187  Zn1232  1.936   .     S
O1188  Zn1235  1.936   .     S
O1189  Zn1646  1.936   .     S
O1190  Zn1229  1.936   .     S
O1191  Zn397   1.936   1_565 S
O1192  Zn1642  1.936   .     S
O1193  Zn1231  1.936   .     S
O1194  Zn1221  1.936   .     S
O1195  Zn405   1.936   1_565 S
O1196  Zn1234  1.936   .     S
O1197  Zn1228  1.941   .     S
O1197  C105    1.282   1_565 S
O1198  Zn1647  1.936   .     S
O1199  Zn408   1.936   1_565 S
O1200  Zn1233  1.936   .     S
O1208  Zn1227  1.941   .     S
O1218  Zn1222  1.941   .     S
O1219  C1344   1.282   .     A
O1219  Zn1236  1.941   .     S
O1220  Zn1224  1.941   .     S
Zn1223 O340    1.945   1_565 S
Zn1226 O1587   1.945   .     S
Zn1228 O329    1.945   1_565 S
Zn1230 O1604   1.936   1_455 S
Zn1231 O1595   1.936   1_455 S
Zn1234 O1601   1.936   1_455 S
Zn1235 O1610   1.936   1_455 S
Zn1236 O1598   1.945   .     S
C1237  C1314   1.392   .     A
C1237  C508    1.398   1_565 A
C1237  H1405   1.084   .     S
C1238  H1406   1.084   .     S
C1238  C1337   1.398   .     A
C1238  C1324   1.392   .     A
C1239  C1380   1.402   .     A
C1239  C1351   1.454   .     S
C1239  C1387   1.402   .     A
C1240  C1390   1.402   .     A
C1240  C1352   1.455   .     S
C1240  C1379   1.402   .     A
C1241  C1378   1.402   .     A
C1241  C1353   1.454   .     S
C1241  C1389   1.402   .     A
C1242  C1377   1.402   .     A
C1242  C1392   1.402   .     A
C1242  C1354   1.455   .     S
C1243  C1355   1.454   .     S
C1243  C1376   1.402   .     A
C1243  C1391   1.402   .     A
C1244  C1365   1.455   .     S
C1244  C1395   1.402   .     A
C1244  C1375   1.402   .     A
C1245  C1366   1.454   .     S
C1245  C1393   1.402   .     A
C1245  C1374   1.402   .     A
C1246  C1358   1.455   .     S
C1246  C1397   1.402   .     A
C1246  C1373   1.402   .     A
C1247  C1396   1.402   .     A
C1247  C1371   1.402   .     A
C1247  C1359   1.454   .     S
C1248  C1399   1.402   .     A
C1248  C1370   1.402   .     A
C1248  C1360   1.455   .     S
C1249  H1417   1.084   .     S
C1249  C514    1.398   1_565 A
C1249  C1325   1.392   .     A
C1250  C1362   1.454   .     S
C1250  C1369   1.402   .     A
C1250  C1398   1.402   .     A
C1251  C1368   1.402   .     A
C1251  C1363   1.455   .     S
C1251  C1401   1.402   .     A
C1252  C1367   1.402   .     A
C1252  C1400   1.402   .     A
C1252  C1364   1.454   .     S
C1253  C1319   1.416   .     A
C1253  C1348   1.469   .     S
C1254  C1320   1.416   .     A
C1254  C1347   1.469   .     S
C1255  C1316   1.416   .     S
C1255  C1346   1.469   .     S
C1256  C1345   1.469   .     S
C1256  C1318   1.416   .     S
C1257  C1344   1.469   .     S
C1257  C1327   1.416   .     S
C1258  C1324   1.416   .     A
C1258  C1343   1.469   .     S
C1259  C1342   1.469   .     S
C1259  C1330   1.416   .     S
C1260  C1326   1.392   .     A
C1260  H1428   1.084   .     S
C1260  C1340   1.398   .     S
C1261  C1326   1.416   .     S
C1261  C1341   1.469   .     S
C1262  C1263   1.531   .     S
C1262  H1511   1.117   .     S
C1262  H1509   1.111   .     S
C1262  O1613   1.417   .     S
C1263  H1513   1.111   .     S
C1263  H1512   1.112   .     S
C1263  C1264   1.526   .     S
C1264  H1516   1.111   .     S
C1264  H1515   1.110   .     S
C1264  H1514   1.111   .     S
C1265  H1518   1.117   .     S
C1265  C1266   1.531   .     S
C1265  H1517   1.111   .     S
C1265  O1614   1.417   .     S
C1266  H1519   1.112   .     S
C1266  C1267   1.526   .     S
C1266  H1520   1.111   .     S
C1267  H1524   1.111   .     S
C1267  H1522   1.111   .     S
C1267  H1523   1.110   .     S
C1268  H1525   1.111   .     S
C1268  C1269   1.531   .     S
C1268  H1526   1.117   .     S
C1268  O1615   1.417   .     S
C1269  H1528   1.111   .     S
C1269  H1527   1.112   .     S
C1269  C1270   1.526   .     S
C1270  H1530   1.110   .     S
C1270  H1531   1.111   .     S
C1270  H1529   1.111   .     S
C1271  C1336   1.398   .     A
C1271  H1439   1.084   .     S
C1271  C1327   1.392   .     A
C1272  C1273   1.531   .     S
C1272  H1534   1.117   .     S
C1272  O1616   1.417   .     S
C1272  H1533   1.111   .     S
C1273  C1274   1.526   .     S
C1273  H1535   1.112   .     S
C1273  H1536   1.111   .     S
C1274  H1538   1.110   .     S
C1274  H1539   1.111   .     S
C1274  H1537   1.111   .     S
C1275  H1541   1.117   .     S
C1275  C1276   1.531   .     S
C1275  H1540   1.111   .     S
C1275  O1617   1.417   .     S
C1276  H1542   1.112   .     S
C1276  H1544   1.111   .     S
C1276  C1277   1.526   .     S
C1277  H1545   1.111   .     S
C1277  H1547   1.111   .     S
C1277  H1546   1.110   .     S
C1278  H1548   1.111   .     S
C1278  O1618   1.417   .     S
C1278  C1279   1.531   .     S
C1278  H1549   1.117   .     S
C1279  H1550   1.112   .     S
C1279  H1551   1.111   .     S
C1279  C1280   1.526   .     S
C1280  H1552   1.111   .     S
C1280  H1553   1.110   .     S
C1280  H1555   1.111   .     S
C1281  C1283   1.531   .     S
C1281  O1619   1.417   .     S
C1281  H1557   1.117   .     S
C1281  H1556   1.111   .     S
C1282  H1450   1.084   .     S
C1282  C1329   1.392   .     A
C1282  C925    1.398   1_655 S
C1283  H1558   1.112   .     S
C1283  H1559   1.111   .     S
C1283  C1284   1.526   .     S
C1284  H1560   1.111   .     S
C1284  H1561   1.110   .     S
C1284  H1562   1.111   .     S
C1285  H1564   1.117   .     S
C1285  C1286   1.531   .     S
C1285  O1621   1.417   .     S
C1285  H1563   1.111   .     S
C1286  H1407   1.112   .     S
C1286  H1408   1.111   .     S
C1286  C1287   1.526   .     S
C1287  H1410   1.110   .     S
C1287  H1411   1.111   .     S
C1287  H1409   1.111   .     S
C1288  H1413   1.117   .     S
C1288  O1622   1.417   .     S
C1288  C1289   1.531   .     S
C1288  H1412   1.111   .     S
C1289  C1290   1.526   .     S
C1289  H1415   1.111   .     S
C1289  H1414   1.112   .     S
C1290  H1419   1.111   .     S
C1290  H1418   1.110   .     S
C1290  H1416   1.111   .     S
C1291  C1292   1.531   .     S
C1291  O1623   1.417   .     S
C1291  H1420   1.111   .     S
C1291  H1421   1.117   .     S
C1292  H1423   1.111   .     S
C1292  C1294   1.526   .     S
C1292  H1422   1.112   .     S
C1293  C1330   1.392   .     A
C1293  H1461   1.084   .     S
C1293  C1338   1.398   .     S
C1294  H1426   1.111   .     S
C1294  H1424   1.111   .     S
C1294  H1425   1.110   .     S
C1295  H1427   1.111   .     S
C1295  C1296   1.531   .     S
C1295  H1429   1.117   .     S
C1295  O1624   1.417   .     S
C1296  H1431   1.111   .     S
C1296  C1297   1.526   .     S
C1296  H1430   1.112   .     S
C1297  H1433   1.110   .     S
C1297  H1432   1.111   .     S
C1297  H1434   1.111   .     S
C1298  O1625   1.417   .     S
C1298  H1435   1.111   .     S
C1298  C1299   1.531   .     S
C1298  H1436   1.117   .     S
C1299  H1438   1.111   .     S
C1299  H1437   1.112   .     S
C1299  C1300   1.526   .     S
C1300  H1440   1.111   .     S
C1300  H1441   1.110   .     S
C1300  H1442   1.111   .     S
C1301  H1444   1.117   .     S
C1301  O1626   1.417   .     S
C1301  H1443   1.111   .     S
C1301  C1302   1.531   .     S
C1302  H1446   1.111   .     S
C1302  C1303   1.526   .     S
C1302  H1445   1.112   .     S
C1303  H1447   1.111   .     S
C1303  H1448   1.110   .     S
C1303  H1449   1.111   .     S
C1304  C1331   1.392   .     A
C1304  C516    1.398   1_565 A
C1304  H1472   1.084   .     S
C1305  C1306   1.531   .     S
C1305  H1452   1.117   .     S
C1305  H1451   1.111   .     S
C1305  O1627   1.417   .     S
C1306  H1454   1.111   .     S
C1306  C1307   1.526   .     S
C1306  H1453   1.112   .     S
C1307  H1457   1.111   .     S
C1307  H1456   1.110   .     S
C1307  H1455   1.111   .     S
C1308  C1309   1.531   .     S
C1308  O1628   1.417   .     S
C1308  H1459   1.117   .     S
C1308  H1458   1.111   .     S
C1309  C1310   1.526   .     S
C1309  H1462   1.111   .     S
C1309  H1460   1.112   .     S
C1310  H1464   1.110   .     S
C1310  H1465   1.111   .     S
C1310  H1463   1.111   .     S
C1311  C1312   1.531   .     S
C1311  H1466   1.111   .     S
C1311  H1467   1.117   .     S
C1311  O1629   1.417   .     S
C1312  H1468   1.112   .     S
C1312  H1469   1.111   .     S
C1312  C1313   1.526   .     S
C1313  H1471   1.110   .     S
C1313  H1470   1.111   .     S
C1313  H1473   1.111   .     S
C1314  O1613   1.384   .     S
C1314  C429    1.416   1_565 S
C1315  O1614   1.384   .     S
C1315  C1317   1.392   .     A
C1315  C430    1.416   1_565 S
C1316  C1328   1.392   .     A
C1316  O1615   1.384   .     S
C1317  H1477   1.084   .     S
C1317  C509    1.398   1_565 S
C1318  O1616   1.384   .     S
C1318  C1339   1.392   .     A
C1319  C1350   1.392   .     A
C1319  O1617   1.384   .     S
C1320  O1618   1.384   .     S
C1320  C1361   1.392   .     A
C1321  C843    1.416   1_655 A
C1321  O1619   1.384   .     S
C1321  C1372   1.392   .     A
C1322  C1383   1.392   .     A
C1322  O1621   1.384   .     S
C1322  C844    1.416   1_655 A
C1323  O1622   1.384   .     S
C1323  C845    1.416   1_655 A
C1323  C1394   1.392   .     A
C1324  O1623   1.384   .     S
C1325  C435    1.416   1_565 A
C1325  O1624   1.384   .     S
C1326  O1625   1.384   .     S
C1327  O1626   1.384   .     S
C1328  H1488   1.084   .     S
C1328  C1334   1.398   .     S
C1329  O1627   1.384   .     S
C1329  C846    1.416   1_655 S
C1330  O1628   1.384   .     S
C1331  C437    1.416   1_565 A
C1331  O1629   1.384   .     S
C1332  C1333   1.465   1_554 S
C1332  C1350   1.398   .     S
C1333  C1361   1.398   .     A
C1333  C1332   1.465   1_556 S
C1334  C1335   1.465   1_554 S
C1335  C1334   1.465   1_556 S
C1335  C1339   1.398   .     S
C1336  C1337   1.465   .     S
C1338  C1340   1.465   .     S
C1339  H1499   1.084   .     S
C1341  O1632   1.282   .     A
C1342  O1620   1.282   .     S
C1343  O1630   1.282   .     S
C1344  O1568   1.282   .     S
C1345  O1569   1.282   .     A
C1345  O1573   1.282   .     S
C1346  O1570   1.282   .     S
C1346  O1574   1.282   .     S
C1347  O1571   1.282   .     S
C1347  O1575   1.282   .     S
C1348  O1572   1.282   .     A
C1348  O1577   1.282   .     A
C1349  O1578   1.280   .     A
C1349  C1404   1.455   .     S
C1349  O1606   1.280   .     A
C1350  H1510   1.084   .     S
C1351  O1607   1.280   .     A
C1351  O1579   1.280   .     A
C1352  O1604   1.280   .     A
C1352  O1580   1.280   .     A
C1353  O1605   1.280   .     A
C1353  O1581   1.280   .     A
C1354  O1611   1.280   .     A
C1354  O1582   1.280   .     A
C1355  O1583   1.280   .     A
C1355  O1612   1.280   .     A
C1356  C1402   1.455   .     S
C1356  O1584   1.280   .     A
C1356  O1608   1.280   .     A
C1357  O1585   1.280   .     A
C1357  C1403   1.454   .     S
C1357  O1610   1.280   .     A
C1358  O1586   1.280   .     A
C1358  O1597   1.280   .     A
C1359  O1599   1.280   .     A
C1359  O1588   1.280   .     A
C1360  O1589   1.280   .     A
C1360  O1595   1.280   .     A
C1361  H1521   1.084   .     S
C1362  O1596   1.280   .     A
C1362  O1590   1.280   .     A
C1363  O1602   1.280   .     A
C1363  O1591   1.280   .     A
C1364  O1603   1.280   .     A
C1364  O1592   1.280   .     A
C1365  O1600   1.280   .     A
C1365  O1593   1.280   .     A
C1366  O1601   1.280   .     A
C1366  O1594   1.280   .     A
C1367  H1474   1.083   .     S
C1367  C1384   1.386   .     A
C1368  H1475   1.083   .     S
C1368  C1382   1.386   .     A
C1369  H1476   1.083   .     S
C1369  C1381   1.386   .     A
C1370  C1380   1.386   .     A
C1370  H1478   1.083   .     S
C1371  H1479   1.083   .     S
C1371  C1379   1.386   .     A
C1372  H1532   1.084   .     S
C1372  C922    1.398   1_655 A
C1373  C1378   1.386   .     A
C1373  H1480   1.083   .     S
C1374  C1377   1.386   .     A
C1374  H1481   1.083   .     S
C1375  C1376   1.386   .     A
C1375  H1482   1.083   .     S
C1376  H1483   1.083   .     S
C1377  H1484   1.083   .     S
C1378  H1485   1.083   .     S
C1379  H1486   1.083   .     S
C1380  H1487   1.083   .     S
C1381  C1404   1.402   .     A
C1381  H1489   1.083   .     S
C1382  H1490   1.083   .     S
C1382  C1403   1.402   .     A
C1383  C923    1.398   1_655 A
C1383  H1543   1.084   .     S
C1384  C1402   1.402   .     A
C1384  H1491   1.083   .     S
C1385  H1492   1.083   .     S
C1385  C1401   1.386   .     A
C1385  C1403   1.402   .     A
C1386  C1402   1.402   .     A
C1386  C1400   1.386   .     A
C1386  H1493   1.083   .     S
C1387  C1399   1.386   .     A
C1387  H1494   1.083   .     S
C1388  H1495   1.083   .     S
C1388  C1404   1.402   .     A
C1388  C1398   1.386   .     A
C1389  C1397   1.386   .     A
C1389  H1496   1.083   .     S
C1390  H1497   1.083   .     S
C1390  C1396   1.386   .     A
C1391  C1395   1.386   .     A
C1391  H1498   1.083   .     S
C1392  C1393   1.386   .     A
C1392  H1500   1.083   .     S
C1393  H1501   1.083   .     S
C1394  H1554   1.084   .     S
C1394  C924    1.398   1_655 S
C1395  H1502   1.083   .     S
C1396  H1503   1.083   .     S
C1397  H1504   1.083   .     S
C1398  H1505   1.083   .     S
C1399  H1506   1.083   .     S
C1400  H1507   1.083   .     S
C1401  H1508   1.083   .     S
O1565  Zn1636  1.945   .     S
O1565  Zn1644  1.945   .     S
O1565  Zn1633  1.945   .     S
O1566  Zn1635  1.941   .     S
O1566  C518    1.282   1_565 A
O1567  C931    1.282   1_655 A
O1567  Zn1638  1.941   .     S
O1568  Zn1637  1.941   .     S
O1569  Zn1647  1.941   .     S
O1570  Zn1646  1.941   .     S
O1571  Zn1641  1.941   .     S
O1572  Zn1633  1.941   .     S
O1573  Zn1643  1.941   .     S
O1574  Zn1642  1.941   .     S
O1575  Zn1645  1.941   .     S
O1576  Zn1645  1.945   .     S
O1576  Zn1639  1.945   .     S
O1576  Zn1641  1.945   .     S
O1577  Zn1644  1.941   .     S
O1578  Zn1636  1.936   .     S
O1579  Zn1635  1.936   .     S
O1580  Zn1638  1.936   .     S
O1581  Zn1637  1.936   .     S
O1582  Zn1640  1.936   .     S
O1583  Zn1639  1.936   .     S
O1584  Zn1634  1.936   .     S
O1585  Zn1648  1.936   .     S
O1586  Zn1635  1.936   .     S
O1587  Zn1642  1.945   .     S
O1587  Zn1634  1.945   .     S
O1587  Zn1646  1.945   .     S
O1588  Zn1636  1.936   .     S
O1589  Zn1648  1.936   .     S
O1590  Zn1634  1.936   .     S
O1591  Zn1639  1.936   .     S
O1592  Zn1640  1.936   .     S
O1593  Zn1637  1.936   .     S
O1594  Zn1638  1.936   .     S
O1595  Zn1231  1.936   1_655 S
O1596  Zn1642  1.936   .     S
O1597  Zn821   1.936   1_565 S
O1598  Zn1647  1.945   .     S
O1598  Zn1643  1.945   .     S
O1598  Zn1637  1.945   .     S
O1599  Zn1644  1.936   .     S
O1600  Zn1647  1.936   .     S
O1601  Zn1234  1.936   1_655 S
O1602  Zn1641  1.936   .     S
O1603  Zn809   1.936   1_565 S
O1604  Zn1230  1.936   1_655 S
O1605  Zn1643  1.936   .     S
O1606  Zn1633  1.936   .     S
O1607  Zn817   1.936   1_565 S
O1608  Zn1646  1.936   .     S
O1609  Zn1640  1.941   .     S
O1609  C517    1.282   1_565 S
O1610  Zn1235  1.936   1_655 S
O1611  Zn820   1.936   1_565 S
O1612  Zn1645  1.936   .     S
O1620  Zn1639  1.941   .     S
O1630  Zn1634  1.941   .     S
O1631  C932    1.282   1_655 A
O1631  Zn1648  1.941   .     S
O1632  Zn1636  1.941   .     S
Zn1635 O752    1.945   1_565 S
Zn1638 O1175   1.945   1_655 S
Zn1640 O741    1.945   1_565 S
Zn1648 O1186   1.945   1_655 S
