data_str_m1_o10_o16_pcu_sym.218
_audit_creation_date              2020-01-03
_audit_creation_method            'Materials Studio'
_symmetry_space_group_name_H-M    'P1'
_symmetry_Int_Tables_number       1
_symmetry_cell_setting            triclinic
loop_
_symmetry_equiv_pos_as_xyz
  x,y,z
_cell_length_a                    32.5472
_cell_length_b                    32.5131
_cell_length_c                    30.9844
_cell_angle_alpha                 96.8080
_cell_angle_beta                  74.9822
_cell_angle_gamma                 98.6632
loop_
_atom_site_label
_atom_site_type_symbol
_atom_site_fract_x
_atom_site_fract_y
_atom_site_fract_z
_atom_site_U_iso_or_equiv
_atom_site_adp_type
_atom_site_occupancy
C1     C     0.05270   0.15955   0.25996   0.00000  Uiso   1.00
C2     C     0.18233   0.16749   0.05430   0.00000  Uiso   1.00
C3     C     0.19144   0.09663   0.06448   0.00000  Uiso   1.00
C4     C     0.28075   0.17379   0.24004   0.00000  Uiso   1.00
C5     C     0.14185   0.19429   0.42023   0.00000  Uiso   1.00
C6     C     0.32657   0.17658   0.23609   0.00000  Uiso   1.00
C7     C     0.00745   0.15690   0.26372   0.00000  Uiso   1.00
C8     C     0.18048   0.32247   0.23668   0.00000  Uiso   1.00
C9     C     0.15165   0.01167   0.26366   0.00000  Uiso   1.00
C10    C     0.15604   0.05582   0.26016   0.00000  Uiso   1.00
C11    C     0.17656   0.27789   0.24021   0.00000  Uiso   1.00
C12    C     0.12453   0.24375   0.48620   0.00000  Uiso   1.00
C13    C     0.18476   0.14821   0.12914   0.00000  Uiso   1.00
C14    C     0.14844   0.18467   0.37109   0.00000  Uiso   1.00
C15    C     0.18318   0.08282   0.02310   0.00000  Uiso   1.00
C16    C     0.19038   0.13861   0.08078   0.00000  Uiso   1.00
C17    C     0.13331   0.23485   0.43913   0.00000  Uiso   1.00
C18    C     0.13144   0.21508   0.01296   0.00000  Uiso   1.00
C19    C     0.14929   0.17799   0.49274   0.00000  Uiso   1.00
C20    C     0.14736   0.16489   0.44795   0.00000  Uiso   1.00
C21    C     0.16659   0.15225   0.01603   0.00000  Uiso   1.00
C22    C     0.17018   0.11006   0.49903   0.00000  Uiso   1.00
C23    C     0.16043   0.09536   0.45829   0.00000  Uiso   1.00
C24    C     0.15013   0.12254   0.43258   0.00000  Uiso   1.00
H25    H     0.16206   0.06296   0.44556   0.00000  Uiso   1.00
H26    H     0.09248   0.29007   0.48799   0.00000  Uiso   1.00
H27    H     0.14292   0.10940   0.40131   0.00000  Uiso   1.00
H28    H     0.01554   0.19472   0.21060   0.00000  Uiso   1.00
H29    H     0.19737   0.07417   0.08467   0.00000  Uiso   1.00
H30    H     0.31918   0.13861   0.28946   0.00000  Uiso   1.00
H31    H     0.20712   0.00376   0.21193   0.00000  Uiso   1.00
H32    H     0.12455   0.33115   0.28840   0.00000  Uiso   1.00
H33    H     0.18495   0.05032   0.01091   0.00000  Uiso   1.00
H34    H     0.21008   0.21575   0.08424   0.00000  Uiso   1.00
H35    H     0.14117   0.29290   0.42581   0.00000  Uiso   1.00
H36    H     0.10770   0.19488   0.07183   0.00000  Uiso   1.00
O37    O     0.16667   0.16667   0.25000   0.00000  Uiso   1.00
O38    O     0.15451   0.12637   0.15459   0.00000  Uiso   1.00
O39    O     0.12940   0.20391   0.34968   0.00000  Uiso   1.00
O40    O     0.20824   0.17759   0.14606   0.00000  Uiso   1.00
O41    O     0.17451   0.15880   0.34968   0.00000  Uiso   1.00
O42    O     0.19023   0.21006   0.06431   0.00000  Uiso   1.00
O43    O     0.13368   0.26503   0.41108   0.00000  Uiso   1.00
O44    O     0.11557   0.22219   0.05870   0.00000  Uiso   1.00
O45    O     0.10765   0.27948   0.00745   0.00000  Uiso   1.00
O46    O     0.17930   0.08019   0.28214   0.00000  Uiso   1.00
O47    O     0.14632   0.26085   0.27014   0.00000  Uiso   1.00
O48    O     0.07412   0.13291   0.23413   0.00000  Uiso   1.00
O49    O     0.26693   0.19272   0.21361   0.00000  Uiso   1.00
O50    O     0.07071   0.18878   0.28213   0.00000  Uiso   1.00
O51    O     0.25491   0.15226   0.27014   0.00000  Uiso   1.00
O52    O     0.13760   0.06944   0.23413   0.00000  Uiso   1.00
O53    O     0.20345   0.25620   0.21361   0.00000  Uiso   1.00
Zn54   Zn    0.19338   0.13994   0.28734   0.00000  Uiso   1.00
Zn55   Zn    0.13379   0.12458   0.21876   0.00000  Uiso   1.00
Zn56   Zn    0.21056   0.19775   0.20657   0.00000  Uiso   1.00
Zn57   Zn    0.12893   0.20439   0.28734   0.00000  Uiso   1.00
C58    C     0.38603   0.15955   0.25996   0.00000  Uiso   1.00
C59    C     0.51566   0.16749   0.05430   0.00000  Uiso   1.00
C60    C     0.52477   0.09663   0.06448   0.00000  Uiso   1.00
C61    C     0.61408   0.17379   0.24004   0.00000  Uiso   1.00
C62    C     0.47518   0.19429   0.42023   0.00000  Uiso   1.00
C63    C     0.65991   0.17658   0.23609   0.00000  Uiso   1.00
C64    C     0.34078   0.15690   0.26372   0.00000  Uiso   1.00
C65    C     0.51381   0.32247   0.23668   0.00000  Uiso   1.00
C66    C     0.48498   0.01167   0.26366   0.00000  Uiso   1.00
C67    C     0.48938   0.05582   0.26016   0.00000  Uiso   1.00
C68    C     0.50989   0.27789   0.24021   0.00000  Uiso   1.00
C69    C     0.45786   0.24375   0.48620   0.00000  Uiso   1.00
C70    C     0.51809   0.14821   0.12914   0.00000  Uiso   1.00
C71    C     0.48178   0.18467   0.37109   0.00000  Uiso   1.00
C72    C     0.51652   0.08282   0.02310   0.00000  Uiso   1.00
C73    C     0.52372   0.13861   0.08078   0.00000  Uiso   1.00
C74    C     0.46664   0.23485   0.43913   0.00000  Uiso   1.00
C75    C     0.46477   0.21508   0.01296   0.00000  Uiso   1.00
C76    C     0.48262   0.17799   0.49274   0.00000  Uiso   1.00
C77    C     0.48070   0.16489   0.44795   0.00000  Uiso   1.00
C78    C     0.49992   0.15225   0.01603   0.00000  Uiso   1.00
C79    C     0.50351   0.11006   0.49903   0.00000  Uiso   1.00
C80    C     0.49376   0.09536   0.45829   0.00000  Uiso   1.00
C81    C     0.48346   0.12254   0.43258   0.00000  Uiso   1.00
H82    H     0.49539   0.06296   0.44556   0.00000  Uiso   1.00
H83    H     0.42581   0.29007   0.48799   0.00000  Uiso   1.00
H84    H     0.47625   0.10940   0.40131   0.00000  Uiso   1.00
H85    H     0.34887   0.19472   0.21060   0.00000  Uiso   1.00
H86    H     0.53071   0.07417   0.08467   0.00000  Uiso   1.00
H87    H     0.65251   0.13861   0.28946   0.00000  Uiso   1.00
H88    H     0.54045   0.00376   0.21193   0.00000  Uiso   1.00
H89    H     0.45788   0.33115   0.28840   0.00000  Uiso   1.00
H90    H     0.51829   0.05032   0.01091   0.00000  Uiso   1.00
H91    H     0.54341   0.21575   0.08424   0.00000  Uiso   1.00
H92    H     0.47450   0.29290   0.42581   0.00000  Uiso   1.00
H93    H     0.44104   0.19488   0.07183   0.00000  Uiso   1.00
O94    O     0.50000   0.16667   0.25000   0.00000  Uiso   1.00
O95    O     0.48784   0.12637   0.15459   0.00000  Uiso   1.00
O96    O     0.46274   0.20391   0.34968   0.00000  Uiso   1.00
O97    O     0.54157   0.17759   0.14606   0.00000  Uiso   1.00
O98    O     0.50785   0.15880   0.34968   0.00000  Uiso   1.00
O99    O     0.52356   0.21006   0.06431   0.00000  Uiso   1.00
O100   O     0.46701   0.26503   0.41108   0.00000  Uiso   1.00
O101   O     0.44890   0.22219   0.05870   0.00000  Uiso   1.00
O102   O     0.44098   0.27948   0.00745   0.00000  Uiso   1.00
O103   O     0.51264   0.08019   0.28214   0.00000  Uiso   1.00
O104   O     0.47965   0.26085   0.27014   0.00000  Uiso   1.00
O105   O     0.40745   0.13291   0.23413   0.00000  Uiso   1.00
O106   O     0.60026   0.19272   0.21361   0.00000  Uiso   1.00
O107   O     0.40405   0.18878   0.28213   0.00000  Uiso   1.00
O108   O     0.58824   0.15226   0.27014   0.00000  Uiso   1.00
O109   O     0.47093   0.06944   0.23413   0.00000  Uiso   1.00
O110   O     0.53678   0.25620   0.21361   0.00000  Uiso   1.00
Zn111  Zn    0.52672   0.13994   0.28734   0.00000  Uiso   1.00
Zn112  Zn    0.46713   0.12458   0.21876   0.00000  Uiso   1.00
Zn113  Zn    0.54389   0.19775   0.20657   0.00000  Uiso   1.00
Zn114  Zn    0.46226   0.20439   0.28734   0.00000  Uiso   1.00
C115   C     0.71936   0.15955   0.25996   0.00000  Uiso   1.00
C116   C     0.84900   0.16749   0.05430   0.00000  Uiso   1.00
C117   C     0.85811   0.09663   0.06448   0.00000  Uiso   1.00
C118   C     0.94741   0.17379   0.24004   0.00000  Uiso   1.00
C119   C     0.80852   0.19429   0.42023   0.00000  Uiso   1.00
C120   C     0.99324   0.17658   0.23609   0.00000  Uiso   1.00
C121   C     0.67411   0.15690   0.26372   0.00000  Uiso   1.00
C122   C     0.84715   0.32247   0.23668   0.00000  Uiso   1.00
C123   C     0.81831   0.01167   0.26366   0.00000  Uiso   1.00
C124   C     0.82271   0.05582   0.26016   0.00000  Uiso   1.00
C125   C     0.84322   0.27789   0.24021   0.00000  Uiso   1.00
C126   C     0.79120   0.24375   0.48620   0.00000  Uiso   1.00
C127   C     0.85143   0.14821   0.12914   0.00000  Uiso   1.00
C128   C     0.81511   0.18467   0.37109   0.00000  Uiso   1.00
C129   C     0.84985   0.08282   0.02310   0.00000  Uiso   1.00
C130   C     0.85705   0.13861   0.08078   0.00000  Uiso   1.00
C131   C     0.79997   0.23485   0.43913   0.00000  Uiso   1.00
C132   C     0.79810   0.21508   0.01296   0.00000  Uiso   1.00
C133   C     0.81595   0.17799   0.49274   0.00000  Uiso   1.00
C134   C     0.81403   0.16489   0.44795   0.00000  Uiso   1.00
C135   C     0.83325   0.15225   0.01603   0.00000  Uiso   1.00
C136   C     0.83685   0.11006   0.49903   0.00000  Uiso   1.00
C137   C     0.82710   0.09536   0.45829   0.00000  Uiso   1.00
C138   C     0.81679   0.12254   0.43258   0.00000  Uiso   1.00
H139   H     0.82872   0.06296   0.44556   0.00000  Uiso   1.00
H140   H     0.75914   0.29007   0.48799   0.00000  Uiso   1.00
H141   H     0.80958   0.10940   0.40131   0.00000  Uiso   1.00
H142   H     0.68220   0.19472   0.21060   0.00000  Uiso   1.00
H143   H     0.86404   0.07417   0.08467   0.00000  Uiso   1.00
H144   H     0.98585   0.13861   0.28946   0.00000  Uiso   1.00
H145   H     0.87378   0.00376   0.21193   0.00000  Uiso   1.00
H146   H     0.79121   0.33115   0.28840   0.00000  Uiso   1.00
H147   H     0.85162   0.05032   0.01091   0.00000  Uiso   1.00
H148   H     0.87674   0.21575   0.08424   0.00000  Uiso   1.00
H149   H     0.80784   0.29290   0.42581   0.00000  Uiso   1.00
H150   H     0.77437   0.19488   0.07183   0.00000  Uiso   1.00
O151   O     0.83333   0.16667   0.25000   0.00000  Uiso   1.00
O152   O     0.82118   0.12637   0.15459   0.00000  Uiso   1.00
O153   O     0.79607   0.20391   0.34968   0.00000  Uiso   1.00
O154   O     0.87491   0.17759   0.14606   0.00000  Uiso   1.00
O155   O     0.84118   0.15880   0.34968   0.00000  Uiso   1.00
O156   O     0.85690   0.21006   0.06431   0.00000  Uiso   1.00
O157   O     0.80034   0.26503   0.41108   0.00000  Uiso   1.00
O158   O     0.78223   0.22219   0.05870   0.00000  Uiso   1.00
O159   O     0.77432   0.27948   0.00745   0.00000  Uiso   1.00
O160   O     0.84597   0.08019   0.28214   0.00000  Uiso   1.00
O161   O     0.81298   0.26085   0.27014   0.00000  Uiso   1.00
O162   O     0.74078   0.13291   0.23413   0.00000  Uiso   1.00
O163   O     0.93360   0.19272   0.21361   0.00000  Uiso   1.00
O164   O     0.73738   0.18878   0.28213   0.00000  Uiso   1.00
O165   O     0.92158   0.15226   0.27014   0.00000  Uiso   1.00
O166   O     0.80426   0.06944   0.23413   0.00000  Uiso   1.00
O167   O     0.87012   0.25620   0.21361   0.00000  Uiso   1.00
Zn168  Zn    0.86005   0.13994   0.28734   0.00000  Uiso   1.00
Zn169  Zn    0.80046   0.12458   0.21876   0.00000  Uiso   1.00
Zn170  Zn    0.87723   0.19775   0.20657   0.00000  Uiso   1.00
Zn171  Zn    0.79560   0.20439   0.28734   0.00000  Uiso   1.00
C172   C     0.05270   0.49288   0.25996   0.00000  Uiso   1.00
C173   C     0.18233   0.50082   0.05430   0.00000  Uiso   1.00
C174   C     0.19144   0.42996   0.06448   0.00000  Uiso   1.00
C175   C     0.28075   0.50713   0.24004   0.00000  Uiso   1.00
C176   C     0.14185   0.52762   0.42023   0.00000  Uiso   1.00
C177   C     0.32657   0.50991   0.23609   0.00000  Uiso   1.00
C178   C     0.00745   0.49023   0.26372   0.00000  Uiso   1.00
C179   C     0.18048   0.65581   0.23668   0.00000  Uiso   1.00
C180   C     0.15165   0.34501   0.26366   0.00000  Uiso   1.00
C181   C     0.15604   0.38915   0.26016   0.00000  Uiso   1.00
C182   C     0.17656   0.61122   0.24021   0.00000  Uiso   1.00
C183   C     0.12453   0.57708   0.48620   0.00000  Uiso   1.00
C184   C     0.18476   0.48154   0.12914   0.00000  Uiso   1.00
C185   C     0.14844   0.51801   0.37109   0.00000  Uiso   1.00
C186   C     0.18318   0.41615   0.02310   0.00000  Uiso   1.00
C187   C     0.19038   0.47195   0.08078   0.00000  Uiso   1.00
C188   C     0.13331   0.56818   0.43913   0.00000  Uiso   1.00
C189   C     0.13144   0.54842   0.01296   0.00000  Uiso   1.00
C190   C     0.14929   0.51132   0.49274   0.00000  Uiso   1.00
C191   C     0.14736   0.49822   0.44795   0.00000  Uiso   1.00
C192   C     0.16659   0.48558   0.01603   0.00000  Uiso   1.00
C193   C     0.17018   0.44339   0.49903   0.00000  Uiso   1.00
C194   C     0.16043   0.42869   0.45829   0.00000  Uiso   1.00
C195   C     0.15013   0.45587   0.43258   0.00000  Uiso   1.00
H196   H     0.16206   0.39629   0.44556   0.00000  Uiso   1.00
H197   H     0.09248   0.62340   0.48799   0.00000  Uiso   1.00
H198   H     0.14292   0.44273   0.40131   0.00000  Uiso   1.00
H199   H     0.01554   0.52805   0.21060   0.00000  Uiso   1.00
H200   H     0.19737   0.40750   0.08467   0.00000  Uiso   1.00
H201   H     0.31918   0.47194   0.28946   0.00000  Uiso   1.00
H202   H     0.20712   0.33710   0.21193   0.00000  Uiso   1.00
H203   H     0.12455   0.66448   0.28840   0.00000  Uiso   1.00
H204   H     0.18495   0.38365   0.01091   0.00000  Uiso   1.00
H205   H     0.21008   0.54909   0.08424   0.00000  Uiso   1.00
H206   H     0.14117   0.62623   0.42581   0.00000  Uiso   1.00
H207   H     0.10770   0.52821   0.07183   0.00000  Uiso   1.00
O208   O     0.16667   0.50000   0.25000   0.00000  Uiso   1.00
O209   O     0.15451   0.45970   0.15459   0.00000  Uiso   1.00
O210   O     0.12940   0.53724   0.34968   0.00000  Uiso   1.00
O211   O     0.20824   0.51092   0.14606   0.00000  Uiso   1.00
O212   O     0.17451   0.49213   0.34968   0.00000  Uiso   1.00
O213   O     0.19023   0.54340   0.06431   0.00000  Uiso   1.00
O214   O     0.13368   0.59836   0.41108   0.00000  Uiso   1.00
O215   O     0.11557   0.55552   0.05870   0.00000  Uiso   1.00
O216   O     0.10765   0.61281   0.00745   0.00000  Uiso   1.00
O217   O     0.17930   0.41352   0.28214   0.00000  Uiso   1.00
O218   O     0.14632   0.59418   0.27014   0.00000  Uiso   1.00
O219   O     0.07412   0.46625   0.23413   0.00000  Uiso   1.00
O220   O     0.26693   0.52605   0.21361   0.00000  Uiso   1.00
O221   O     0.07071   0.52211   0.28213   0.00000  Uiso   1.00
O222   O     0.25491   0.48559   0.27014   0.00000  Uiso   1.00
O223   O     0.13760   0.40277   0.23413   0.00000  Uiso   1.00
O224   O     0.20345   0.58953   0.21361   0.00000  Uiso   1.00
Zn225  Zn    0.19338   0.47327   0.28734   0.00000  Uiso   1.00
Zn226  Zn    0.13379   0.45791   0.21876   0.00000  Uiso   1.00
Zn227  Zn    0.21056   0.53109   0.20657   0.00000  Uiso   1.00
Zn228  Zn    0.12893   0.53773   0.28734   0.00000  Uiso   1.00
C229   C     0.38603   0.49288   0.25996   0.00000  Uiso   1.00
C230   C     0.51566   0.50082   0.05430   0.00000  Uiso   1.00
C231   C     0.52477   0.42996   0.06448   0.00000  Uiso   1.00
C232   C     0.61408   0.50713   0.24004   0.00000  Uiso   1.00
C233   C     0.47518   0.52762   0.42023   0.00000  Uiso   1.00
C234   C     0.65991   0.50991   0.23609   0.00000  Uiso   1.00
C235   C     0.34078   0.49023   0.26372   0.00000  Uiso   1.00
C236   C     0.51381   0.65581   0.23668   0.00000  Uiso   1.00
C237   C     0.48498   0.34501   0.26366   0.00000  Uiso   1.00
C238   C     0.48938   0.38915   0.26016   0.00000  Uiso   1.00
C239   C     0.50989   0.61122   0.24021   0.00000  Uiso   1.00
C240   C     0.45786   0.57708   0.48620   0.00000  Uiso   1.00
C241   C     0.51809   0.48154   0.12914   0.00000  Uiso   1.00
C242   C     0.48178   0.51801   0.37109   0.00000  Uiso   1.00
C243   C     0.51652   0.41615   0.02310   0.00000  Uiso   1.00
C244   C     0.52372   0.47195   0.08078   0.00000  Uiso   1.00
C245   C     0.46664   0.56818   0.43913   0.00000  Uiso   1.00
C246   C     0.46477   0.54842   0.01296   0.00000  Uiso   1.00
C247   C     0.48262   0.51132   0.49274   0.00000  Uiso   1.00
C248   C     0.48070   0.49822   0.44795   0.00000  Uiso   1.00
C249   C     0.49992   0.48558   0.01603   0.00000  Uiso   1.00
C250   C     0.50351   0.44339   0.49903   0.00000  Uiso   1.00
C251   C     0.49376   0.42869   0.45829   0.00000  Uiso   1.00
C252   C     0.48346   0.45587   0.43258   0.00000  Uiso   1.00
H253   H     0.49539   0.39629   0.44556   0.00000  Uiso   1.00
H254   H     0.42581   0.62340   0.48799   0.00000  Uiso   1.00
H255   H     0.47625   0.44273   0.40131   0.00000  Uiso   1.00
H256   H     0.34887   0.52805   0.21060   0.00000  Uiso   1.00
H257   H     0.53071   0.40750   0.08467   0.00000  Uiso   1.00
H258   H     0.65251   0.47194   0.28946   0.00000  Uiso   1.00
H259   H     0.54045   0.33710   0.21193   0.00000  Uiso   1.00
H260   H     0.45788   0.66448   0.28840   0.00000  Uiso   1.00
H261   H     0.51829   0.38365   0.01091   0.00000  Uiso   1.00
H262   H     0.54341   0.54909   0.08424   0.00000  Uiso   1.00
H263   H     0.47450   0.62623   0.42581   0.00000  Uiso   1.00
H264   H     0.44104   0.52821   0.07183   0.00000  Uiso   1.00
O265   O     0.50000   0.50000   0.25000   0.00000  Uiso   1.00
O266   O     0.48784   0.45970   0.15459   0.00000  Uiso   1.00
O267   O     0.46274   0.53724   0.34968   0.00000  Uiso   1.00
O268   O     0.54157   0.51092   0.14606   0.00000  Uiso   1.00
O269   O     0.50785   0.49213   0.34968   0.00000  Uiso   1.00
O270   O     0.52356   0.54340   0.06431   0.00000  Uiso   1.00
O271   O     0.46701   0.59836   0.41108   0.00000  Uiso   1.00
O272   O     0.44890   0.55552   0.05870   0.00000  Uiso   1.00
O273   O     0.44098   0.61281   0.00745   0.00000  Uiso   1.00
O274   O     0.51264   0.41352   0.28214   0.00000  Uiso   1.00
O275   O     0.47965   0.59418   0.27014   0.00000  Uiso   1.00
O276   O     0.40745   0.46625   0.23413   0.00000  Uiso   1.00
O277   O     0.60026   0.52605   0.21361   0.00000  Uiso   1.00
O278   O     0.40405   0.52211   0.28213   0.00000  Uiso   1.00
O279   O     0.58824   0.48559   0.27014   0.00000  Uiso   1.00
O280   O     0.47093   0.40277   0.23413   0.00000  Uiso   1.00
O281   O     0.53678   0.58953   0.21361   0.00000  Uiso   1.00
Zn282  Zn    0.52672   0.47327   0.28734   0.00000  Uiso   1.00
Zn283  Zn    0.46713   0.45791   0.21876   0.00000  Uiso   1.00
Zn284  Zn    0.54389   0.53109   0.20657   0.00000  Uiso   1.00
Zn285  Zn    0.46226   0.53773   0.28734   0.00000  Uiso   1.00
C286   C     0.71936   0.49288   0.25996   0.00000  Uiso   1.00
C287   C     0.84900   0.50082   0.05430   0.00000  Uiso   1.00
C288   C     0.85811   0.42996   0.06448   0.00000  Uiso   1.00
C289   C     0.94741   0.50713   0.24004   0.00000  Uiso   1.00
C290   C     0.80852   0.52762   0.42023   0.00000  Uiso   1.00
C291   C     0.99324   0.50991   0.23609   0.00000  Uiso   1.00
C292   C     0.67411   0.49023   0.26372   0.00000  Uiso   1.00
C293   C     0.84715   0.65581   0.23668   0.00000  Uiso   1.00
C294   C     0.81831   0.34501   0.26366   0.00000  Uiso   1.00
C295   C     0.82271   0.38915   0.26016   0.00000  Uiso   1.00
C296   C     0.84322   0.61122   0.24021   0.00000  Uiso   1.00
C297   C     0.79120   0.57708   0.48620   0.00000  Uiso   1.00
C298   C     0.85143   0.48154   0.12914   0.00000  Uiso   1.00
C299   C     0.81511   0.51801   0.37109   0.00000  Uiso   1.00
C300   C     0.84985   0.41615   0.02310   0.00000  Uiso   1.00
C301   C     0.85705   0.47195   0.08078   0.00000  Uiso   1.00
C302   C     0.79997   0.56818   0.43913   0.00000  Uiso   1.00
C303   C     0.79810   0.54842   0.01296   0.00000  Uiso   1.00
C304   C     0.81595   0.51132   0.49274   0.00000  Uiso   1.00
C305   C     0.81403   0.49822   0.44795   0.00000  Uiso   1.00
C306   C     0.83325   0.48558   0.01603   0.00000  Uiso   1.00
C307   C     0.83685   0.44339   0.49903   0.00000  Uiso   1.00
C308   C     0.82710   0.42869   0.45829   0.00000  Uiso   1.00
C309   C     0.81679   0.45587   0.43258   0.00000  Uiso   1.00
H310   H     0.82872   0.39629   0.44556   0.00000  Uiso   1.00
H311   H     0.75914   0.62340   0.48799   0.00000  Uiso   1.00
H312   H     0.80958   0.44273   0.40131   0.00000  Uiso   1.00
H313   H     0.68220   0.52805   0.21060   0.00000  Uiso   1.00
H314   H     0.86404   0.40750   0.08467   0.00000  Uiso   1.00
H315   H     0.98585   0.47194   0.28946   0.00000  Uiso   1.00
H316   H     0.87378   0.33710   0.21193   0.00000  Uiso   1.00
H317   H     0.79121   0.66448   0.28840   0.00000  Uiso   1.00
H318   H     0.85162   0.38365   0.01091   0.00000  Uiso   1.00
H319   H     0.87674   0.54909   0.08424   0.00000  Uiso   1.00
H320   H     0.80784   0.62623   0.42581   0.00000  Uiso   1.00
H321   H     0.77437   0.52821   0.07183   0.00000  Uiso   1.00
O322   O     0.83333   0.50000   0.25000   0.00000  Uiso   1.00
O323   O     0.82118   0.45970   0.15459   0.00000  Uiso   1.00
O324   O     0.79607   0.53724   0.34968   0.00000  Uiso   1.00
O325   O     0.87491   0.51092   0.14606   0.00000  Uiso   1.00
O326   O     0.84118   0.49213   0.34968   0.00000  Uiso   1.00
O327   O     0.85690   0.54340   0.06431   0.00000  Uiso   1.00
O328   O     0.80034   0.59836   0.41108   0.00000  Uiso   1.00
O329   O     0.78223   0.55552   0.05870   0.00000  Uiso   1.00
O330   O     0.77432   0.61281   0.00745   0.00000  Uiso   1.00
O331   O     0.84597   0.41352   0.28214   0.00000  Uiso   1.00
O332   O     0.81298   0.59418   0.27014   0.00000  Uiso   1.00
O333   O     0.74078   0.46625   0.23413   0.00000  Uiso   1.00
O334   O     0.93360   0.52605   0.21361   0.00000  Uiso   1.00
O335   O     0.73738   0.52211   0.28213   0.00000  Uiso   1.00
O336   O     0.92158   0.48559   0.27014   0.00000  Uiso   1.00
O337   O     0.80426   0.40277   0.23413   0.00000  Uiso   1.00
O338   O     0.87012   0.58953   0.21361   0.00000  Uiso   1.00
Zn339  Zn    0.86005   0.47327   0.28734   0.00000  Uiso   1.00
Zn340  Zn    0.80046   0.45791   0.21876   0.00000  Uiso   1.00
Zn341  Zn    0.87723   0.53109   0.20657   0.00000  Uiso   1.00
Zn342  Zn    0.79560   0.53773   0.28734   0.00000  Uiso   1.00
C343   C     0.05270   0.82622   0.25996   0.00000  Uiso   1.00
C344   C     0.18233   0.83415   0.05430   0.00000  Uiso   1.00
C345   C     0.19144   0.76330   0.06448   0.00000  Uiso   1.00
C346   C     0.28075   0.84046   0.24004   0.00000  Uiso   1.00
C347   C     0.14185   0.86095   0.42023   0.00000  Uiso   1.00
C348   C     0.32657   0.84324   0.23609   0.00000  Uiso   1.00
C349   C     0.00745   0.82356   0.26372   0.00000  Uiso   1.00
C350   C     0.18048   0.98914   0.23668   0.00000  Uiso   1.00
C351   C     0.15165   0.67834   0.26366   0.00000  Uiso   1.00
C352   C     0.15604   0.72248   0.26016   0.00000  Uiso   1.00
C353   C     0.17656   0.94455   0.24021   0.00000  Uiso   1.00
C354   C     0.12453   0.91041   0.48620   0.00000  Uiso   1.00
C355   C     0.18476   0.81487   0.12914   0.00000  Uiso   1.00
C356   C     0.14844   0.85134   0.37109   0.00000  Uiso   1.00
C357   C     0.18318   0.74949   0.02310   0.00000  Uiso   1.00
C358   C     0.19038   0.80528   0.08078   0.00000  Uiso   1.00
C359   C     0.13331   0.90152   0.43913   0.00000  Uiso   1.00
C360   C     0.13144   0.88175   0.01296   0.00000  Uiso   1.00
C361   C     0.14929   0.84466   0.49274   0.00000  Uiso   1.00
C362   C     0.14736   0.83155   0.44795   0.00000  Uiso   1.00
C363   C     0.16659   0.81891   0.01603   0.00000  Uiso   1.00
C364   C     0.17018   0.77673   0.49903   0.00000  Uiso   1.00
C365   C     0.16043   0.76203   0.45829   0.00000  Uiso   1.00
C366   C     0.15013   0.78920   0.43258   0.00000  Uiso   1.00
H367   H     0.16206   0.72962   0.44556   0.00000  Uiso   1.00
H368   H     0.09248   0.95673   0.48799   0.00000  Uiso   1.00
H369   H     0.14292   0.77606   0.40131   0.00000  Uiso   1.00
H370   H     0.01554   0.86138   0.21060   0.00000  Uiso   1.00
H371   H     0.19737   0.74084   0.08467   0.00000  Uiso   1.00
H372   H     0.31918   0.80527   0.28946   0.00000  Uiso   1.00
H373   H     0.20712   0.67043   0.21193   0.00000  Uiso   1.00
H374   H     0.12455   0.99781   0.28840   0.00000  Uiso   1.00
H375   H     0.18495   0.71698   0.01091   0.00000  Uiso   1.00
H376   H     0.21008   0.88242   0.08424   0.00000  Uiso   1.00
H377   H     0.14117   0.95956   0.42581   0.00000  Uiso   1.00
H378   H     0.10770   0.86155   0.07183   0.00000  Uiso   1.00
O379   O     0.16667   0.83333   0.25000   0.00000  Uiso   1.00
O380   O     0.15451   0.79304   0.15459   0.00000  Uiso   1.00
O381   O     0.12940   0.87058   0.34968   0.00000  Uiso   1.00
O382   O     0.20824   0.84425   0.14606   0.00000  Uiso   1.00
O383   O     0.17451   0.82546   0.34968   0.00000  Uiso   1.00
O384   O     0.19023   0.87673   0.06431   0.00000  Uiso   1.00
O385   O     0.13368   0.93170   0.41108   0.00000  Uiso   1.00
O386   O     0.11557   0.88885   0.05870   0.00000  Uiso   1.00
O387   O     0.10765   0.94615   0.00745   0.00000  Uiso   1.00
O388   O     0.17930   0.74686   0.28214   0.00000  Uiso   1.00
O389   O     0.14632   0.92751   0.27014   0.00000  Uiso   1.00
O390   O     0.07412   0.79958   0.23413   0.00000  Uiso   1.00
O391   O     0.26693   0.85939   0.21361   0.00000  Uiso   1.00
O392   O     0.07071   0.85544   0.28213   0.00000  Uiso   1.00
O393   O     0.25491   0.81892   0.27014   0.00000  Uiso   1.00
O394   O     0.13760   0.73610   0.23413   0.00000  Uiso   1.00
O395   O     0.20345   0.92286   0.21361   0.00000  Uiso   1.00
Zn396  Zn    0.19338   0.80661   0.28734   0.00000  Uiso   1.00
Zn397  Zn    0.13379   0.79124   0.21876   0.00000  Uiso   1.00
Zn398  Zn    0.21056   0.86442   0.20657   0.00000  Uiso   1.00
Zn399  Zn    0.12893   0.87106   0.28734   0.00000  Uiso   1.00
C400   C     0.38603   0.82622   0.25996   0.00000  Uiso   1.00
C401   C     0.51566   0.83415   0.05430   0.00000  Uiso   1.00
C402   C     0.52477   0.76330   0.06448   0.00000  Uiso   1.00
C403   C     0.61408   0.84046   0.24004   0.00000  Uiso   1.00
C404   C     0.47518   0.86095   0.42023   0.00000  Uiso   1.00
C405   C     0.65991   0.84324   0.23609   0.00000  Uiso   1.00
C406   C     0.34078   0.82356   0.26372   0.00000  Uiso   1.00
C407   C     0.51381   0.98914   0.23668   0.00000  Uiso   1.00
C408   C     0.48498   0.67834   0.26366   0.00000  Uiso   1.00
C409   C     0.48938   0.72248   0.26016   0.00000  Uiso   1.00
C410   C     0.50989   0.94455   0.24021   0.00000  Uiso   1.00
C411   C     0.45786   0.91041   0.48620   0.00000  Uiso   1.00
C412   C     0.51809   0.81487   0.12914   0.00000  Uiso   1.00
C413   C     0.48178   0.85134   0.37109   0.00000  Uiso   1.00
C414   C     0.51652   0.74949   0.02310   0.00000  Uiso   1.00
C415   C     0.52372   0.80528   0.08078   0.00000  Uiso   1.00
C416   C     0.46664   0.90152   0.43913   0.00000  Uiso   1.00
C417   C     0.46477   0.88175   0.01296   0.00000  Uiso   1.00
C418   C     0.48262   0.84466   0.49274   0.00000  Uiso   1.00
C419   C     0.48070   0.83155   0.44795   0.00000  Uiso   1.00
C420   C     0.49992   0.81891   0.01603   0.00000  Uiso   1.00
C421   C     0.50351   0.77673   0.49903   0.00000  Uiso   1.00
C422   C     0.49376   0.76203   0.45829   0.00000  Uiso   1.00
C423   C     0.48346   0.78920   0.43258   0.00000  Uiso   1.00
H424   H     0.49539   0.72962   0.44556   0.00000  Uiso   1.00
H425   H     0.42581   0.95673   0.48799   0.00000  Uiso   1.00
H426   H     0.47625   0.77606   0.40131   0.00000  Uiso   1.00
H427   H     0.34887   0.86138   0.21060   0.00000  Uiso   1.00
H428   H     0.53071   0.74084   0.08467   0.00000  Uiso   1.00
H429   H     0.65251   0.80527   0.28946   0.00000  Uiso   1.00
H430   H     0.54045   0.67043   0.21193   0.00000  Uiso   1.00
H431   H     0.45788   0.99781   0.28840   0.00000  Uiso   1.00
H432   H     0.51829   0.71698   0.01091   0.00000  Uiso   1.00
H433   H     0.54341   0.88242   0.08424   0.00000  Uiso   1.00
H434   H     0.47450   0.95956   0.42581   0.00000  Uiso   1.00
H435   H     0.44104   0.86155   0.07183   0.00000  Uiso   1.00
O436   O     0.50000   0.83333   0.25000   0.00000  Uiso   1.00
O437   O     0.48784   0.79304   0.15459   0.00000  Uiso   1.00
O438   O     0.46274   0.87058   0.34968   0.00000  Uiso   1.00
O439   O     0.54157   0.84425   0.14606   0.00000  Uiso   1.00
O440   O     0.50785   0.82546   0.34968   0.00000  Uiso   1.00
O441   O     0.52356   0.87673   0.06431   0.00000  Uiso   1.00
O442   O     0.46701   0.93170   0.41108   0.00000  Uiso   1.00
O443   O     0.44890   0.88885   0.05870   0.00000  Uiso   1.00
O444   O     0.44098   0.94615   0.00745   0.00000  Uiso   1.00
O445   O     0.51264   0.74686   0.28214   0.00000  Uiso   1.00
O446   O     0.47965   0.92751   0.27014   0.00000  Uiso   1.00
O447   O     0.40745   0.79958   0.23413   0.00000  Uiso   1.00
O448   O     0.60026   0.85939   0.21361   0.00000  Uiso   1.00
O449   O     0.40405   0.85544   0.28213   0.00000  Uiso   1.00
O450   O     0.58824   0.81892   0.27014   0.00000  Uiso   1.00
O451   O     0.47093   0.73610   0.23413   0.00000  Uiso   1.00
O452   O     0.53678   0.92286   0.21361   0.00000  Uiso   1.00
Zn453  Zn    0.52672   0.80661   0.28734   0.00000  Uiso   1.00
Zn454  Zn    0.46713   0.79124   0.21876   0.00000  Uiso   1.00
Zn455  Zn    0.54389   0.86442   0.20657   0.00000  Uiso   1.00
Zn456  Zn    0.46226   0.87106   0.28734   0.00000  Uiso   1.00
C457   C     0.71936   0.82622   0.25996   0.00000  Uiso   1.00
C458   C     0.84900   0.83415   0.05430   0.00000  Uiso   1.00
C459   C     0.85811   0.76330   0.06448   0.00000  Uiso   1.00
C460   C     0.94741   0.84046   0.24004   0.00000  Uiso   1.00
C461   C     0.80852   0.86095   0.42023   0.00000  Uiso   1.00
C462   C     0.99324   0.84324   0.23609   0.00000  Uiso   1.00
C463   C     0.67411   0.82356   0.26372   0.00000  Uiso   1.00
C464   C     0.84715   0.98914   0.23668   0.00000  Uiso   1.00
C465   C     0.81831   0.67834   0.26366   0.00000  Uiso   1.00
C466   C     0.82271   0.72248   0.26016   0.00000  Uiso   1.00
C467   C     0.84322   0.94455   0.24021   0.00000  Uiso   1.00
C468   C     0.79120   0.91041   0.48620   0.00000  Uiso   1.00
C469   C     0.85143   0.81487   0.12914   0.00000  Uiso   1.00
C470   C     0.81511   0.85134   0.37109   0.00000  Uiso   1.00
C471   C     0.84985   0.74949   0.02310   0.00000  Uiso   1.00
C472   C     0.85705   0.80528   0.08078   0.00000  Uiso   1.00
C473   C     0.79997   0.90152   0.43913   0.00000  Uiso   1.00
C474   C     0.79810   0.88175   0.01296   0.00000  Uiso   1.00
C475   C     0.81595   0.84466   0.49274   0.00000  Uiso   1.00
C476   C     0.81403   0.83155   0.44795   0.00000  Uiso   1.00
C477   C     0.83325   0.81891   0.01603   0.00000  Uiso   1.00
C478   C     0.83685   0.77673   0.49903   0.00000  Uiso   1.00
C479   C     0.82710   0.76203   0.45829   0.00000  Uiso   1.00
C480   C     0.81679   0.78920   0.43258   0.00000  Uiso   1.00
H481   H     0.82872   0.72962   0.44556   0.00000  Uiso   1.00
H482   H     0.75914   0.95673   0.48799   0.00000  Uiso   1.00
H483   H     0.80958   0.77606   0.40131   0.00000  Uiso   1.00
H484   H     0.68220   0.86138   0.21060   0.00000  Uiso   1.00
H485   H     0.86404   0.74084   0.08467   0.00000  Uiso   1.00
H486   H     0.98585   0.80527   0.28946   0.00000  Uiso   1.00
H487   H     0.87378   0.67043   0.21193   0.00000  Uiso   1.00
H488   H     0.79121   0.99781   0.28840   0.00000  Uiso   1.00
H489   H     0.85162   0.71698   0.01091   0.00000  Uiso   1.00
H490   H     0.87674   0.88242   0.08424   0.00000  Uiso   1.00
H491   H     0.80784   0.95956   0.42581   0.00000  Uiso   1.00
H492   H     0.77437   0.86155   0.07183   0.00000  Uiso   1.00
O493   O     0.83333   0.83333   0.25000   0.00000  Uiso   1.00
O494   O     0.82118   0.79304   0.15459   0.00000  Uiso   1.00
O495   O     0.79607   0.87058   0.34968   0.00000  Uiso   1.00
O496   O     0.87491   0.84425   0.14606   0.00000  Uiso   1.00
O497   O     0.84118   0.82546   0.34968   0.00000  Uiso   1.00
O498   O     0.85690   0.87673   0.06431   0.00000  Uiso   1.00
O499   O     0.80034   0.93170   0.41108   0.00000  Uiso   1.00
O500   O     0.78223   0.88885   0.05870   0.00000  Uiso   1.00
O501   O     0.77432   0.94615   0.00745   0.00000  Uiso   1.00
O502   O     0.84597   0.74686   0.28214   0.00000  Uiso   1.00
O503   O     0.81298   0.92751   0.27014   0.00000  Uiso   1.00
O504   O     0.74078   0.79958   0.23413   0.00000  Uiso   1.00
O505   O     0.93360   0.85939   0.21361   0.00000  Uiso   1.00
O506   O     0.73738   0.85544   0.28213   0.00000  Uiso   1.00
O507   O     0.92158   0.81892   0.27014   0.00000  Uiso   1.00
O508   O     0.80426   0.73610   0.23413   0.00000  Uiso   1.00
O509   O     0.87012   0.92286   0.21361   0.00000  Uiso   1.00
Zn510  Zn    0.86005   0.80661   0.28734   0.00000  Uiso   1.00
Zn511  Zn    0.80046   0.79124   0.21876   0.00000  Uiso   1.00
Zn512  Zn    0.87723   0.86442   0.20657   0.00000  Uiso   1.00
Zn513  Zn    0.79560   0.87106   0.28734   0.00000  Uiso   1.00
C514   C     0.05270   0.15955   0.75996   0.00000  Uiso   1.00
C515   C     0.18233   0.16749   0.55430   0.00000  Uiso   1.00
C516   C     0.19144   0.09663   0.56448   0.00000  Uiso   1.00
C517   C     0.28075   0.17379   0.74004   0.00000  Uiso   1.00
C518   C     0.14185   0.19429   0.92023   0.00000  Uiso   1.00
C519   C     0.32657   0.17658   0.73609   0.00000  Uiso   1.00
C520   C     0.00745   0.15690   0.76372   0.00000  Uiso   1.00
C521   C     0.18048   0.32247   0.73668   0.00000  Uiso   1.00
C522   C     0.15165   0.01167   0.76366   0.00000  Uiso   1.00
C523   C     0.15604   0.05582   0.76016   0.00000  Uiso   1.00
C524   C     0.17656   0.27789   0.74021   0.00000  Uiso   1.00
C525   C     0.12453   0.24375   0.98620   0.00000  Uiso   1.00
C526   C     0.18476   0.14821   0.62914   0.00000  Uiso   1.00
C527   C     0.14844   0.18467   0.87109   0.00000  Uiso   1.00
C528   C     0.18318   0.08282   0.52310   0.00000  Uiso   1.00
C529   C     0.19038   0.13861   0.58078   0.00000  Uiso   1.00
C530   C     0.13331   0.23485   0.93913   0.00000  Uiso   1.00
C531   C     0.13144   0.21508   0.51296   0.00000  Uiso   1.00
C532   C     0.14929   0.17799   0.99274   0.00000  Uiso   1.00
C533   C     0.14736   0.16489   0.94795   0.00000  Uiso   1.00
C534   C     0.16659   0.15225   0.51603   0.00000  Uiso   1.00
C535   C     0.17018   0.11006   0.99903   0.00000  Uiso   1.00
C536   C     0.16043   0.09536   0.95829   0.00000  Uiso   1.00
C537   C     0.15013   0.12254   0.93258   0.00000  Uiso   1.00
H538   H     0.16206   0.06296   0.94556   0.00000  Uiso   1.00
H539   H     0.09248   0.29007   0.98799   0.00000  Uiso   1.00
H540   H     0.14292   0.10940   0.90131   0.00000  Uiso   1.00
H541   H     0.01554   0.19472   0.71060   0.00000  Uiso   1.00
H542   H     0.19737   0.07417   0.58467   0.00000  Uiso   1.00
H543   H     0.31918   0.13861   0.78946   0.00000  Uiso   1.00
H544   H     0.20712   0.00376   0.71193   0.00000  Uiso   1.00
H545   H     0.12455   0.33115   0.78840   0.00000  Uiso   1.00
H546   H     0.18495   0.05032   0.51091   0.00000  Uiso   1.00
H547   H     0.21008   0.21575   0.58424   0.00000  Uiso   1.00
H548   H     0.14117   0.29290   0.92581   0.00000  Uiso   1.00
H549   H     0.10770   0.19488   0.57183   0.00000  Uiso   1.00
O550   O     0.16667   0.16667   0.75000   0.00000  Uiso   1.00
O551   O     0.15451   0.12637   0.65459   0.00000  Uiso   1.00
O552   O     0.12940   0.20391   0.84968   0.00000  Uiso   1.00
O553   O     0.20824   0.17759   0.64606   0.00000  Uiso   1.00
O554   O     0.17451   0.15880   0.84968   0.00000  Uiso   1.00
O555   O     0.19023   0.21006   0.56431   0.00000  Uiso   1.00
O556   O     0.13368   0.26503   0.91108   0.00000  Uiso   1.00
O557   O     0.11557   0.22219   0.55870   0.00000  Uiso   1.00
O558   O     0.10765   0.27948   0.50745   0.00000  Uiso   1.00
O559   O     0.17930   0.08019   0.78214   0.00000  Uiso   1.00
O560   O     0.14632   0.26085   0.77014   0.00000  Uiso   1.00
O561   O     0.07412   0.13291   0.73413   0.00000  Uiso   1.00
O562   O     0.26693   0.19272   0.71361   0.00000  Uiso   1.00
O563   O     0.07071   0.18878   0.78213   0.00000  Uiso   1.00
O564   O     0.25491   0.15226   0.77014   0.00000  Uiso   1.00
O565   O     0.13760   0.06944   0.73413   0.00000  Uiso   1.00
O566   O     0.20345   0.25620   0.71361   0.00000  Uiso   1.00
Zn567  Zn    0.19338   0.13994   0.78734   0.00000  Uiso   1.00
Zn568  Zn    0.13379   0.12458   0.71876   0.00000  Uiso   1.00
Zn569  Zn    0.21056   0.19775   0.70657   0.00000  Uiso   1.00
Zn570  Zn    0.12893   0.20439   0.78734   0.00000  Uiso   1.00
C571   C     0.38603   0.15955   0.75996   0.00000  Uiso   1.00
C572   C     0.51566   0.16749   0.55430   0.00000  Uiso   1.00
C573   C     0.52477   0.09663   0.56448   0.00000  Uiso   1.00
C574   C     0.61408   0.17379   0.74004   0.00000  Uiso   1.00
C575   C     0.47518   0.19429   0.92023   0.00000  Uiso   1.00
C576   C     0.65991   0.17658   0.73609   0.00000  Uiso   1.00
C577   C     0.34078   0.15690   0.76372   0.00000  Uiso   1.00
C578   C     0.51381   0.32247   0.73668   0.00000  Uiso   1.00
C579   C     0.48498   0.01167   0.76366   0.00000  Uiso   1.00
C580   C     0.48938   0.05582   0.76016   0.00000  Uiso   1.00
C581   C     0.50989   0.27789   0.74021   0.00000  Uiso   1.00
C582   C     0.45786   0.24375   0.98620   0.00000  Uiso   1.00
C583   C     0.51809   0.14821   0.62914   0.00000  Uiso   1.00
C584   C     0.48178   0.18467   0.87109   0.00000  Uiso   1.00
C585   C     0.51652   0.08282   0.52310   0.00000  Uiso   1.00
C586   C     0.52372   0.13861   0.58078   0.00000  Uiso   1.00
C587   C     0.46664   0.23485   0.93913   0.00000  Uiso   1.00
C588   C     0.46477   0.21508   0.51296   0.00000  Uiso   1.00
C589   C     0.48262   0.17799   0.99274   0.00000  Uiso   1.00
C590   C     0.48070   0.16489   0.94795   0.00000  Uiso   1.00
C591   C     0.49992   0.15225   0.51603   0.00000  Uiso   1.00
C592   C     0.50351   0.11006   0.99903   0.00000  Uiso   1.00
C593   C     0.49376   0.09536   0.95829   0.00000  Uiso   1.00
C594   C     0.48346   0.12254   0.93258   0.00000  Uiso   1.00
H595   H     0.49539   0.06296   0.94556   0.00000  Uiso   1.00
H596   H     0.42581   0.29007   0.98799   0.00000  Uiso   1.00
H597   H     0.47625   0.10940   0.90131   0.00000  Uiso   1.00
H598   H     0.34887   0.19472   0.71060   0.00000  Uiso   1.00
H599   H     0.53071   0.07417   0.58467   0.00000  Uiso   1.00
H600   H     0.65251   0.13861   0.78946   0.00000  Uiso   1.00
H601   H     0.54045   0.00376   0.71193   0.00000  Uiso   1.00
H602   H     0.45788   0.33115   0.78840   0.00000  Uiso   1.00
H603   H     0.51829   0.05032   0.51091   0.00000  Uiso   1.00
H604   H     0.54341   0.21575   0.58424   0.00000  Uiso   1.00
H605   H     0.47450   0.29290   0.92581   0.00000  Uiso   1.00
H606   H     0.44104   0.19488   0.57183   0.00000  Uiso   1.00
O607   O     0.50000   0.16667   0.75000   0.00000  Uiso   1.00
O608   O     0.48784   0.12637   0.65459   0.00000  Uiso   1.00
O609   O     0.46274   0.20391   0.84968   0.00000  Uiso   1.00
O610   O     0.54157   0.17759   0.64606   0.00000  Uiso   1.00
O611   O     0.50785   0.15880   0.84968   0.00000  Uiso   1.00
O612   O     0.52356   0.21006   0.56431   0.00000  Uiso   1.00
O613   O     0.46701   0.26503   0.91108   0.00000  Uiso   1.00
O614   O     0.44890   0.22219   0.55870   0.00000  Uiso   1.00
O615   O     0.44098   0.27948   0.50745   0.00000  Uiso   1.00
O616   O     0.51264   0.08019   0.78214   0.00000  Uiso   1.00
O617   O     0.47965   0.26085   0.77014   0.00000  Uiso   1.00
O618   O     0.40745   0.13291   0.73413   0.00000  Uiso   1.00
O619   O     0.60026   0.19272   0.71361   0.00000  Uiso   1.00
O620   O     0.40405   0.18878   0.78213   0.00000  Uiso   1.00
O621   O     0.58824   0.15226   0.77014   0.00000  Uiso   1.00
O622   O     0.47093   0.06944   0.73413   0.00000  Uiso   1.00
O623   O     0.53678   0.25620   0.71361   0.00000  Uiso   1.00
Zn624  Zn    0.52672   0.13994   0.78734   0.00000  Uiso   1.00
Zn625  Zn    0.46713   0.12458   0.71876   0.00000  Uiso   1.00
Zn626  Zn    0.54389   0.19775   0.70657   0.00000  Uiso   1.00
Zn627  Zn    0.46226   0.20439   0.78734   0.00000  Uiso   1.00
C628   C     0.71936   0.15955   0.75996   0.00000  Uiso   1.00
C629   C     0.84900   0.16749   0.55430   0.00000  Uiso   1.00
C630   C     0.85811   0.09663   0.56448   0.00000  Uiso   1.00
C631   C     0.94741   0.17379   0.74004   0.00000  Uiso   1.00
C632   C     0.80852   0.19429   0.92023   0.00000  Uiso   1.00
C633   C     0.99324   0.17658   0.73609   0.00000  Uiso   1.00
C634   C     0.67411   0.15690   0.76372   0.00000  Uiso   1.00
C635   C     0.84715   0.32247   0.73668   0.00000  Uiso   1.00
C636   C     0.81831   0.01167   0.76366   0.00000  Uiso   1.00
C637   C     0.82271   0.05582   0.76016   0.00000  Uiso   1.00
C638   C     0.84322   0.27789   0.74021   0.00000  Uiso   1.00
C639   C     0.79120   0.24375   0.98620   0.00000  Uiso   1.00
C640   C     0.85143   0.14821   0.62914   0.00000  Uiso   1.00
C641   C     0.81511   0.18467   0.87109   0.00000  Uiso   1.00
C642   C     0.84985   0.08282   0.52310   0.00000  Uiso   1.00
C643   C     0.85705   0.13861   0.58078   0.00000  Uiso   1.00
C644   C     0.79997   0.23485   0.93913   0.00000  Uiso   1.00
C645   C     0.79810   0.21508   0.51296   0.00000  Uiso   1.00
C646   C     0.81595   0.17799   0.99274   0.00000  Uiso   1.00
C647   C     0.81403   0.16489   0.94795   0.00000  Uiso   1.00
C648   C     0.83325   0.15225   0.51603   0.00000  Uiso   1.00
C649   C     0.83685   0.11006   0.99903   0.00000  Uiso   1.00
C650   C     0.82710   0.09536   0.95829   0.00000  Uiso   1.00
C651   C     0.81679   0.12254   0.93258   0.00000  Uiso   1.00
H652   H     0.82872   0.06296   0.94556   0.00000  Uiso   1.00
H653   H     0.75914   0.29007   0.98799   0.00000  Uiso   1.00
H654   H     0.80958   0.10940   0.90131   0.00000  Uiso   1.00
H655   H     0.68220   0.19472   0.71060   0.00000  Uiso   1.00
H656   H     0.86404   0.07417   0.58467   0.00000  Uiso   1.00
H657   H     0.98585   0.13861   0.78946   0.00000  Uiso   1.00
H658   H     0.87378   0.00376   0.71193   0.00000  Uiso   1.00
H659   H     0.79121   0.33115   0.78840   0.00000  Uiso   1.00
H660   H     0.85162   0.05032   0.51091   0.00000  Uiso   1.00
H661   H     0.87674   0.21575   0.58424   0.00000  Uiso   1.00
H662   H     0.80784   0.29290   0.92581   0.00000  Uiso   1.00
H663   H     0.77437   0.19488   0.57183   0.00000  Uiso   1.00
O664   O     0.83333   0.16667   0.75000   0.00000  Uiso   1.00
O665   O     0.82118   0.12637   0.65459   0.00000  Uiso   1.00
O666   O     0.79607   0.20391   0.84968   0.00000  Uiso   1.00
O667   O     0.87491   0.17759   0.64606   0.00000  Uiso   1.00
O668   O     0.84118   0.15880   0.84968   0.00000  Uiso   1.00
O669   O     0.85690   0.21006   0.56431   0.00000  Uiso   1.00
O670   O     0.80034   0.26503   0.91108   0.00000  Uiso   1.00
O671   O     0.78223   0.22219   0.55870   0.00000  Uiso   1.00
O672   O     0.77432   0.27948   0.50745   0.00000  Uiso   1.00
O673   O     0.84597   0.08019   0.78214   0.00000  Uiso   1.00
O674   O     0.81298   0.26085   0.77014   0.00000  Uiso   1.00
O675   O     0.74078   0.13291   0.73413   0.00000  Uiso   1.00
O676   O     0.93360   0.19272   0.71361   0.00000  Uiso   1.00
O677   O     0.73738   0.18878   0.78213   0.00000  Uiso   1.00
O678   O     0.92158   0.15226   0.77014   0.00000  Uiso   1.00
O679   O     0.80426   0.06944   0.73413   0.00000  Uiso   1.00
O680   O     0.87012   0.25620   0.71361   0.00000  Uiso   1.00
Zn681  Zn    0.86005   0.13994   0.78734   0.00000  Uiso   1.00
Zn682  Zn    0.80046   0.12458   0.71876   0.00000  Uiso   1.00
Zn683  Zn    0.87723   0.19775   0.70657   0.00000  Uiso   1.00
Zn684  Zn    0.79560   0.20439   0.78734   0.00000  Uiso   1.00
C685   C     0.05270   0.49288   0.75996   0.00000  Uiso   1.00
C686   C     0.18233   0.50082   0.55430   0.00000  Uiso   1.00
C687   C     0.19144   0.42996   0.56448   0.00000  Uiso   1.00
C688   C     0.28075   0.50713   0.74004   0.00000  Uiso   1.00
C689   C     0.14185   0.52762   0.92023   0.00000  Uiso   1.00
C690   C     0.32657   0.50991   0.73609   0.00000  Uiso   1.00
C691   C     0.00745   0.49023   0.76372   0.00000  Uiso   1.00
C692   C     0.18048   0.65581   0.73668   0.00000  Uiso   1.00
C693   C     0.15165   0.34501   0.76366   0.00000  Uiso   1.00
C694   C     0.15604   0.38915   0.76016   0.00000  Uiso   1.00
C695   C     0.17656   0.61122   0.74021   0.00000  Uiso   1.00
C696   C     0.12453   0.57708   0.98620   0.00000  Uiso   1.00
C697   C     0.18476   0.48154   0.62914   0.00000  Uiso   1.00
C698   C     0.14844   0.51801   0.87109   0.00000  Uiso   1.00
C699   C     0.18318   0.41615   0.52310   0.00000  Uiso   1.00
C700   C     0.19038   0.47195   0.58078   0.00000  Uiso   1.00
C701   C     0.13331   0.56818   0.93913   0.00000  Uiso   1.00
C702   C     0.13144   0.54842   0.51296   0.00000  Uiso   1.00
C703   C     0.14929   0.51132   0.99274   0.00000  Uiso   1.00
C704   C     0.14736   0.49822   0.94795   0.00000  Uiso   1.00
C705   C     0.16659   0.48558   0.51603   0.00000  Uiso   1.00
C706   C     0.17018   0.44339   0.99903   0.00000  Uiso   1.00
C707   C     0.16043   0.42869   0.95829   0.00000  Uiso   1.00
C708   C     0.15013   0.45587   0.93258   0.00000  Uiso   1.00
H709   H     0.16206   0.39629   0.94556   0.00000  Uiso   1.00
H710   H     0.09248   0.62340   0.98799   0.00000  Uiso   1.00
H711   H     0.14292   0.44273   0.90131   0.00000  Uiso   1.00
H712   H     0.01554   0.52805   0.71060   0.00000  Uiso   1.00
H713   H     0.19737   0.40750   0.58467   0.00000  Uiso   1.00
H714   H     0.31918   0.47194   0.78946   0.00000  Uiso   1.00
H715   H     0.20712   0.33710   0.71193   0.00000  Uiso   1.00
H716   H     0.12455   0.66448   0.78840   0.00000  Uiso   1.00
H717   H     0.18495   0.38365   0.51091   0.00000  Uiso   1.00
H718   H     0.21008   0.54909   0.58424   0.00000  Uiso   1.00
H719   H     0.14117   0.62623   0.92581   0.00000  Uiso   1.00
H720   H     0.10770   0.52821   0.57183   0.00000  Uiso   1.00
O721   O     0.16667   0.50000   0.75000   0.00000  Uiso   1.00
O722   O     0.15451   0.45970   0.65459   0.00000  Uiso   1.00
O723   O     0.12940   0.53724   0.84968   0.00000  Uiso   1.00
O724   O     0.20824   0.51092   0.64606   0.00000  Uiso   1.00
O725   O     0.17451   0.49213   0.84968   0.00000  Uiso   1.00
O726   O     0.19023   0.54340   0.56431   0.00000  Uiso   1.00
O727   O     0.13368   0.59836   0.91108   0.00000  Uiso   1.00
O728   O     0.11557   0.55552   0.55870   0.00000  Uiso   1.00
O729   O     0.10765   0.61281   0.50745   0.00000  Uiso   1.00
O730   O     0.17930   0.41352   0.78214   0.00000  Uiso   1.00
O731   O     0.14632   0.59418   0.77014   0.00000  Uiso   1.00
O732   O     0.07412   0.46625   0.73413   0.00000  Uiso   1.00
O733   O     0.26693   0.52605   0.71361   0.00000  Uiso   1.00
O734   O     0.07071   0.52211   0.78213   0.00000  Uiso   1.00
O735   O     0.25491   0.48559   0.77014   0.00000  Uiso   1.00
O736   O     0.13760   0.40277   0.73413   0.00000  Uiso   1.00
O737   O     0.20345   0.58953   0.71361   0.00000  Uiso   1.00
Zn738  Zn    0.19338   0.47327   0.78734   0.00000  Uiso   1.00
Zn739  Zn    0.13379   0.45791   0.71876   0.00000  Uiso   1.00
Zn740  Zn    0.21056   0.53109   0.70657   0.00000  Uiso   1.00
Zn741  Zn    0.12893   0.53773   0.78734   0.00000  Uiso   1.00
C742   C     0.38603   0.49288   0.75996   0.00000  Uiso   1.00
C743   C     0.51566   0.50082   0.55430   0.00000  Uiso   1.00
C744   C     0.52477   0.42996   0.56448   0.00000  Uiso   1.00
C745   C     0.61408   0.50713   0.74004   0.00000  Uiso   1.00
C746   C     0.47518   0.52762   0.92023   0.00000  Uiso   1.00
C747   C     0.65991   0.50991   0.73609   0.00000  Uiso   1.00
C748   C     0.34078   0.49023   0.76372   0.00000  Uiso   1.00
C749   C     0.51381   0.65581   0.73668   0.00000  Uiso   1.00
C750   C     0.48498   0.34501   0.76366   0.00000  Uiso   1.00
C751   C     0.48938   0.38915   0.76016   0.00000  Uiso   1.00
C752   C     0.50989   0.61122   0.74021   0.00000  Uiso   1.00
C753   C     0.45786   0.57708   0.98620   0.00000  Uiso   1.00
C754   C     0.51809   0.48154   0.62914   0.00000  Uiso   1.00
C755   C     0.48178   0.51801   0.87109   0.00000  Uiso   1.00
C756   C     0.51652   0.41615   0.52310   0.00000  Uiso   1.00
C757   C     0.52372   0.47195   0.58078   0.00000  Uiso   1.00
C758   C     0.46664   0.56818   0.93913   0.00000  Uiso   1.00
C759   C     0.46477   0.54842   0.51296   0.00000  Uiso   1.00
C760   C     0.48262   0.51132   0.99274   0.00000  Uiso   1.00
C761   C     0.48070   0.49822   0.94795   0.00000  Uiso   1.00
C762   C     0.49992   0.48558   0.51603   0.00000  Uiso   1.00
C763   C     0.50351   0.44339   0.99903   0.00000  Uiso   1.00
C764   C     0.49376   0.42869   0.95829   0.00000  Uiso   1.00
C765   C     0.48346   0.45587   0.93258   0.00000  Uiso   1.00
H766   H     0.49539   0.39629   0.94556   0.00000  Uiso   1.00
H767   H     0.42581   0.62340   0.98799   0.00000  Uiso   1.00
H768   H     0.47625   0.44273   0.90131   0.00000  Uiso   1.00
H769   H     0.34887   0.52805   0.71060   0.00000  Uiso   1.00
H770   H     0.53071   0.40750   0.58467   0.00000  Uiso   1.00
H771   H     0.65251   0.47194   0.78946   0.00000  Uiso   1.00
H772   H     0.54045   0.33710   0.71193   0.00000  Uiso   1.00
H773   H     0.45788   0.66448   0.78840   0.00000  Uiso   1.00
H774   H     0.51829   0.38365   0.51091   0.00000  Uiso   1.00
H775   H     0.54341   0.54909   0.58424   0.00000  Uiso   1.00
H776   H     0.47450   0.62623   0.92581   0.00000  Uiso   1.00
H777   H     0.44104   0.52821   0.57183   0.00000  Uiso   1.00
O778   O     0.50000   0.50000   0.75000   0.00000  Uiso   1.00
O779   O     0.48784   0.45970   0.65459   0.00000  Uiso   1.00
O780   O     0.46274   0.53724   0.84968   0.00000  Uiso   1.00
O781   O     0.54157   0.51092   0.64606   0.00000  Uiso   1.00
O782   O     0.50785   0.49213   0.84968   0.00000  Uiso   1.00
O783   O     0.52356   0.54340   0.56431   0.00000  Uiso   1.00
O784   O     0.46701   0.59836   0.91108   0.00000  Uiso   1.00
O785   O     0.44890   0.55552   0.55870   0.00000  Uiso   1.00
O786   O     0.44098   0.61281   0.50745   0.00000  Uiso   1.00
O787   O     0.51264   0.41352   0.78214   0.00000  Uiso   1.00
O788   O     0.47965   0.59418   0.77014   0.00000  Uiso   1.00
O789   O     0.40745   0.46625   0.73413   0.00000  Uiso   1.00
O790   O     0.60026   0.52605   0.71361   0.00000  Uiso   1.00
O791   O     0.40405   0.52211   0.78213   0.00000  Uiso   1.00
O792   O     0.58824   0.48559   0.77014   0.00000  Uiso   1.00
O793   O     0.47093   0.40277   0.73413   0.00000  Uiso   1.00
O794   O     0.53678   0.58953   0.71361   0.00000  Uiso   1.00
Zn795  Zn    0.52672   0.47327   0.78734   0.00000  Uiso   1.00
Zn796  Zn    0.46713   0.45791   0.71876   0.00000  Uiso   1.00
Zn797  Zn    0.54389   0.53109   0.70657   0.00000  Uiso   1.00
Zn798  Zn    0.46226   0.53773   0.78734   0.00000  Uiso   1.00
C799   C     0.71936   0.49288   0.75996   0.00000  Uiso   1.00
C800   C     0.84900   0.50082   0.55430   0.00000  Uiso   1.00
C801   C     0.85811   0.42996   0.56448   0.00000  Uiso   1.00
C802   C     0.94741   0.50713   0.74004   0.00000  Uiso   1.00
C803   C     0.80852   0.52762   0.92023   0.00000  Uiso   1.00
C804   C     0.99324   0.50991   0.73609   0.00000  Uiso   1.00
C805   C     0.67411   0.49023   0.76372   0.00000  Uiso   1.00
C806   C     0.84715   0.65581   0.73668   0.00000  Uiso   1.00
C807   C     0.81831   0.34501   0.76366   0.00000  Uiso   1.00
C808   C     0.82271   0.38915   0.76016   0.00000  Uiso   1.00
C809   C     0.84322   0.61122   0.74021   0.00000  Uiso   1.00
C810   C     0.79120   0.57708   0.98620   0.00000  Uiso   1.00
C811   C     0.85143   0.48154   0.62914   0.00000  Uiso   1.00
C812   C     0.81511   0.51801   0.87109   0.00000  Uiso   1.00
C813   C     0.84985   0.41615   0.52310   0.00000  Uiso   1.00
C814   C     0.85705   0.47195   0.58078   0.00000  Uiso   1.00
C815   C     0.79997   0.56818   0.93913   0.00000  Uiso   1.00
C816   C     0.79810   0.54842   0.51296   0.00000  Uiso   1.00
C817   C     0.81595   0.51132   0.99274   0.00000  Uiso   1.00
C818   C     0.81403   0.49822   0.94795   0.00000  Uiso   1.00
C819   C     0.83325   0.48558   0.51603   0.00000  Uiso   1.00
C820   C     0.83685   0.44339   0.99903   0.00000  Uiso   1.00
C821   C     0.82710   0.42869   0.95829   0.00000  Uiso   1.00
C822   C     0.81679   0.45587   0.93258   0.00000  Uiso   1.00
H823   H     0.82872   0.39629   0.94556   0.00000  Uiso   1.00
H824   H     0.75914   0.62340   0.98799   0.00000  Uiso   1.00
H825   H     0.80958   0.44273   0.90131   0.00000  Uiso   1.00
H826   H     0.68220   0.52805   0.71060   0.00000  Uiso   1.00
H827   H     0.86404   0.40750   0.58467   0.00000  Uiso   1.00
H828   H     0.98585   0.47194   0.78946   0.00000  Uiso   1.00
H829   H     0.87378   0.33710   0.71193   0.00000  Uiso   1.00
H830   H     0.79121   0.66448   0.78840   0.00000  Uiso   1.00
H831   H     0.85162   0.38365   0.51091   0.00000  Uiso   1.00
H832   H     0.87674   0.54909   0.58424   0.00000  Uiso   1.00
H833   H     0.80784   0.62623   0.92581   0.00000  Uiso   1.00
H834   H     0.77437   0.52821   0.57183   0.00000  Uiso   1.00
O835   O     0.83333   0.50000   0.75000   0.00000  Uiso   1.00
O836   O     0.82118   0.45970   0.65459   0.00000  Uiso   1.00
O837   O     0.79607   0.53724   0.84968   0.00000  Uiso   1.00
O838   O     0.87491   0.51092   0.64606   0.00000  Uiso   1.00
O839   O     0.84118   0.49213   0.84968   0.00000  Uiso   1.00
O840   O     0.85690   0.54340   0.56431   0.00000  Uiso   1.00
O841   O     0.80034   0.59836   0.91108   0.00000  Uiso   1.00
O842   O     0.78223   0.55552   0.55870   0.00000  Uiso   1.00
O843   O     0.77432   0.61281   0.50745   0.00000  Uiso   1.00
O844   O     0.84597   0.41352   0.78214   0.00000  Uiso   1.00
O845   O     0.81298   0.59418   0.77014   0.00000  Uiso   1.00
O846   O     0.74078   0.46625   0.73413   0.00000  Uiso   1.00
O847   O     0.93360   0.52605   0.71361   0.00000  Uiso   1.00
O848   O     0.73738   0.52211   0.78213   0.00000  Uiso   1.00
O849   O     0.92158   0.48559   0.77014   0.00000  Uiso   1.00
O850   O     0.80426   0.40277   0.73413   0.00000  Uiso   1.00
O851   O     0.87012   0.58953   0.71361   0.00000  Uiso   1.00
Zn852  Zn    0.86005   0.47327   0.78734   0.00000  Uiso   1.00
Zn853  Zn    0.80046   0.45791   0.71876   0.00000  Uiso   1.00
Zn854  Zn    0.87723   0.53109   0.70657   0.00000  Uiso   1.00
Zn855  Zn    0.79560   0.53773   0.78734   0.00000  Uiso   1.00
C856   C     0.05270   0.82622   0.75996   0.00000  Uiso   1.00
C857   C     0.18233   0.83415   0.55430   0.00000  Uiso   1.00
C858   C     0.19144   0.76330   0.56448   0.00000  Uiso   1.00
C859   C     0.28075   0.84046   0.74004   0.00000  Uiso   1.00
C860   C     0.14185   0.86095   0.92023   0.00000  Uiso   1.00
C861   C     0.32657   0.84324   0.73609   0.00000  Uiso   1.00
C862   C     0.00745   0.82356   0.76372   0.00000  Uiso   1.00
C863   C     0.18048   0.98914   0.73668   0.00000  Uiso   1.00
C864   C     0.15165   0.67834   0.76366   0.00000  Uiso   1.00
C865   C     0.15604   0.72248   0.76016   0.00000  Uiso   1.00
C866   C     0.17656   0.94455   0.74021   0.00000  Uiso   1.00
C867   C     0.12453   0.91041   0.98620   0.00000  Uiso   1.00
C868   C     0.18476   0.81487   0.62914   0.00000  Uiso   1.00
C869   C     0.14844   0.85134   0.87109   0.00000  Uiso   1.00
C870   C     0.18318   0.74949   0.52310   0.00000  Uiso   1.00
C871   C     0.19038   0.80528   0.58078   0.00000  Uiso   1.00
C872   C     0.13331   0.90152   0.93913   0.00000  Uiso   1.00
C873   C     0.13144   0.88175   0.51296   0.00000  Uiso   1.00
C874   C     0.14929   0.84466   0.99274   0.00000  Uiso   1.00
C875   C     0.14736   0.83155   0.94795   0.00000  Uiso   1.00
C876   C     0.16659   0.81891   0.51603   0.00000  Uiso   1.00
C877   C     0.17018   0.77673   0.99903   0.00000  Uiso   1.00
C878   C     0.16043   0.76203   0.95829   0.00000  Uiso   1.00
C879   C     0.15013   0.78920   0.93258   0.00000  Uiso   1.00
H880   H     0.16206   0.72962   0.94556   0.00000  Uiso   1.00
H881   H     0.09248   0.95673   0.98799   0.00000  Uiso   1.00
H882   H     0.14292   0.77606   0.90131   0.00000  Uiso   1.00
H883   H     0.01554   0.86138   0.71060   0.00000  Uiso   1.00
H884   H     0.19737   0.74084   0.58467   0.00000  Uiso   1.00
H885   H     0.31918   0.80527   0.78946   0.00000  Uiso   1.00
H886   H     0.20712   0.67043   0.71193   0.00000  Uiso   1.00
H887   H     0.12455   0.99781   0.78840   0.00000  Uiso   1.00
H888   H     0.18495   0.71698   0.51091   0.00000  Uiso   1.00
H889   H     0.21008   0.88242   0.58424   0.00000  Uiso   1.00
H890   H     0.14117   0.95956   0.92581   0.00000  Uiso   1.00
H891   H     0.10770   0.86155   0.57183   0.00000  Uiso   1.00
O892   O     0.16667   0.83333   0.75000   0.00000  Uiso   1.00
O893   O     0.15451   0.79304   0.65459   0.00000  Uiso   1.00
O894   O     0.12940   0.87058   0.84968   0.00000  Uiso   1.00
O895   O     0.20824   0.84425   0.64606   0.00000  Uiso   1.00
O896   O     0.17451   0.82546   0.84968   0.00000  Uiso   1.00
O897   O     0.19023   0.87673   0.56431   0.00000  Uiso   1.00
O898   O     0.13368   0.93170   0.91108   0.00000  Uiso   1.00
O899   O     0.11557   0.88885   0.55870   0.00000  Uiso   1.00
O900   O     0.10765   0.94615   0.50745   0.00000  Uiso   1.00
O901   O     0.17930   0.74686   0.78214   0.00000  Uiso   1.00
O902   O     0.14632   0.92751   0.77014   0.00000  Uiso   1.00
O903   O     0.07412   0.79958   0.73413   0.00000  Uiso   1.00
O904   O     0.26693   0.85939   0.71361   0.00000  Uiso   1.00
O905   O     0.07071   0.85544   0.78213   0.00000  Uiso   1.00
O906   O     0.25491   0.81892   0.77014   0.00000  Uiso   1.00
O907   O     0.13760   0.73610   0.73413   0.00000  Uiso   1.00
O908   O     0.20345   0.92286   0.71361   0.00000  Uiso   1.00
Zn909  Zn    0.19338   0.80661   0.78734   0.00000  Uiso   1.00
Zn910  Zn    0.13379   0.79124   0.71876   0.00000  Uiso   1.00
Zn911  Zn    0.21056   0.86442   0.70657   0.00000  Uiso   1.00
Zn912  Zn    0.12893   0.87106   0.78734   0.00000  Uiso   1.00
C913   C     0.38603   0.82622   0.75996   0.00000  Uiso   1.00
C914   C     0.51566   0.83415   0.55430   0.00000  Uiso   1.00
C915   C     0.52477   0.76330   0.56448   0.00000  Uiso   1.00
C916   C     0.61408   0.84046   0.74004   0.00000  Uiso   1.00
C917   C     0.47518   0.86095   0.92023   0.00000  Uiso   1.00
C918   C     0.65991   0.84324   0.73609   0.00000  Uiso   1.00
C919   C     0.34078   0.82356   0.76372   0.00000  Uiso   1.00
C920   C     0.51381   0.98914   0.73668   0.00000  Uiso   1.00
C921   C     0.48498   0.67834   0.76366   0.00000  Uiso   1.00
C922   C     0.48938   0.72248   0.76016   0.00000  Uiso   1.00
C923   C     0.50989   0.94455   0.74021   0.00000  Uiso   1.00
C924   C     0.45786   0.91041   0.98620   0.00000  Uiso   1.00
C925   C     0.51809   0.81487   0.62914   0.00000  Uiso   1.00
C926   C     0.48178   0.85134   0.87109   0.00000  Uiso   1.00
C927   C     0.51652   0.74949   0.52310   0.00000  Uiso   1.00
C928   C     0.52372   0.80528   0.58078   0.00000  Uiso   1.00
C929   C     0.46664   0.90152   0.93913   0.00000  Uiso   1.00
C930   C     0.46477   0.88175   0.51296   0.00000  Uiso   1.00
C931   C     0.48262   0.84466   0.99274   0.00000  Uiso   1.00
C932   C     0.48070   0.83155   0.94795   0.00000  Uiso   1.00
C933   C     0.49992   0.81891   0.51603   0.00000  Uiso   1.00
C934   C     0.50351   0.77673   0.99903   0.00000  Uiso   1.00
C935   C     0.49376   0.76203   0.95829   0.00000  Uiso   1.00
C936   C     0.48346   0.78920   0.93258   0.00000  Uiso   1.00
H937   H     0.49539   0.72962   0.94556   0.00000  Uiso   1.00
H938   H     0.42581   0.95673   0.98799   0.00000  Uiso   1.00
H939   H     0.47625   0.77606   0.90131   0.00000  Uiso   1.00
H940   H     0.34887   0.86138   0.71060   0.00000  Uiso   1.00
H941   H     0.53071   0.74084   0.58467   0.00000  Uiso   1.00
H942   H     0.65251   0.80527   0.78946   0.00000  Uiso   1.00
H943   H     0.54045   0.67043   0.71193   0.00000  Uiso   1.00
H944   H     0.45788   0.99781   0.78840   0.00000  Uiso   1.00
H945   H     0.51829   0.71698   0.51091   0.00000  Uiso   1.00
H946   H     0.54341   0.88242   0.58424   0.00000  Uiso   1.00
H947   H     0.47450   0.95956   0.92581   0.00000  Uiso   1.00
H948   H     0.44104   0.86155   0.57183   0.00000  Uiso   1.00
O949   O     0.50000   0.83333   0.75000   0.00000  Uiso   1.00
O950   O     0.48784   0.79304   0.65459   0.00000  Uiso   1.00
O951   O     0.46274   0.87058   0.84968   0.00000  Uiso   1.00
O952   O     0.54157   0.84425   0.64606   0.00000  Uiso   1.00
O953   O     0.50785   0.82546   0.84968   0.00000  Uiso   1.00
O954   O     0.52356   0.87673   0.56431   0.00000  Uiso   1.00
O955   O     0.46701   0.93170   0.91108   0.00000  Uiso   1.00
O956   O     0.44890   0.88885   0.55870   0.00000  Uiso   1.00
O957   O     0.44098   0.94615   0.50745   0.00000  Uiso   1.00
O958   O     0.51264   0.74686   0.78214   0.00000  Uiso   1.00
O959   O     0.47965   0.92751   0.77014   0.00000  Uiso   1.00
O960   O     0.40745   0.79958   0.73413   0.00000  Uiso   1.00
O961   O     0.60026   0.85939   0.71361   0.00000  Uiso   1.00
O962   O     0.40405   0.85544   0.78213   0.00000  Uiso   1.00
O963   O     0.58824   0.81892   0.77014   0.00000  Uiso   1.00
O964   O     0.47093   0.73610   0.73413   0.00000  Uiso   1.00
O965   O     0.53678   0.92286   0.71361   0.00000  Uiso   1.00
Zn966  Zn    0.52672   0.80661   0.78734   0.00000  Uiso   1.00
Zn967  Zn    0.46713   0.79124   0.71876   0.00000  Uiso   1.00
Zn968  Zn    0.54389   0.86442   0.70657   0.00000  Uiso   1.00
Zn969  Zn    0.46226   0.87106   0.78734   0.00000  Uiso   1.00
C970   C     0.71936   0.82622   0.75996   0.00000  Uiso   1.00
C971   C     0.84900   0.83415   0.55430   0.00000  Uiso   1.00
C972   C     0.85811   0.76330   0.56448   0.00000  Uiso   1.00
C973   C     0.94741   0.84046   0.74004   0.00000  Uiso   1.00
C974   C     0.80852   0.86095   0.92023   0.00000  Uiso   1.00
C975   C     0.99324   0.84324   0.73609   0.00000  Uiso   1.00
C976   C     0.67411   0.82356   0.76372   0.00000  Uiso   1.00
C977   C     0.84715   0.98914   0.73668   0.00000  Uiso   1.00
C978   C     0.81831   0.67834   0.76366   0.00000  Uiso   1.00
C979   C     0.82271   0.72248   0.76016   0.00000  Uiso   1.00
C980   C     0.84322   0.94455   0.74021   0.00000  Uiso   1.00
C981   C     0.79120   0.91041   0.98620   0.00000  Uiso   1.00
C982   C     0.85143   0.81487   0.62914   0.00000  Uiso   1.00
C983   C     0.81511   0.85134   0.87109   0.00000  Uiso   1.00
C984   C     0.84985   0.74949   0.52310   0.00000  Uiso   1.00
C985   C     0.85705   0.80528   0.58078   0.00000  Uiso   1.00
C986   C     0.79997   0.90152   0.93913   0.00000  Uiso   1.00
C987   C     0.79810   0.88175   0.51296   0.00000  Uiso   1.00
C988   C     0.81595   0.84466   0.99274   0.00000  Uiso   1.00
C989   C     0.81403   0.83155   0.94795   0.00000  Uiso   1.00
C990   C     0.83325   0.81891   0.51603   0.00000  Uiso   1.00
C991   C     0.83685   0.77673   0.99903   0.00000  Uiso   1.00
C992   C     0.82710   0.76203   0.95829   0.00000  Uiso   1.00
C993   C     0.81679   0.78920   0.93258   0.00000  Uiso   1.00
H994   H     0.82872   0.72962   0.94556   0.00000  Uiso   1.00
H995   H     0.75914   0.95673   0.98799   0.00000  Uiso   1.00
H996   H     0.80958   0.77606   0.90131   0.00000  Uiso   1.00
H997   H     0.68220   0.86138   0.71060   0.00000  Uiso   1.00
H998   H     0.86404   0.74084   0.58467   0.00000  Uiso   1.00
H999   H     0.98585   0.80527   0.78946   0.00000  Uiso   1.00
H1000  H     0.87378   0.67043   0.71193   0.00000  Uiso   1.00
H1001  H     0.79121   0.99781   0.78840   0.00000  Uiso   1.00
H1002  H     0.85162   0.71698   0.51091   0.00000  Uiso   1.00
H1003  H     0.87674   0.88242   0.58424   0.00000  Uiso   1.00
H1004  H     0.80784   0.95956   0.92581   0.00000  Uiso   1.00
H1005  H     0.77437   0.86155   0.57183   0.00000  Uiso   1.00
O1006  O     0.83333   0.83333   0.75000   0.00000  Uiso   1.00
O1007  O     0.82118   0.79304   0.65459   0.00000  Uiso   1.00
O1008  O     0.79607   0.87058   0.84968   0.00000  Uiso   1.00
O1009  O     0.87491   0.84425   0.64606   0.00000  Uiso   1.00
O1010  O     0.84118   0.82546   0.84968   0.00000  Uiso   1.00
O1011  O     0.85690   0.87673   0.56431   0.00000  Uiso   1.00
O1012  O     0.80034   0.93170   0.91108   0.00000  Uiso   1.00
O1013  O     0.78223   0.88885   0.55870   0.00000  Uiso   1.00
O1014  O     0.77432   0.94615   0.50745   0.00000  Uiso   1.00
O1015  O     0.84597   0.74686   0.78214   0.00000  Uiso   1.00
O1016  O     0.81298   0.92751   0.77014   0.00000  Uiso   1.00
O1017  O     0.74078   0.79958   0.73413   0.00000  Uiso   1.00
O1018  O     0.93360   0.85939   0.71361   0.00000  Uiso   1.00
O1019  O     0.73738   0.85544   0.78213   0.00000  Uiso   1.00
O1020  O     0.92158   0.81892   0.77014   0.00000  Uiso   1.00
O1021  O     0.80426   0.73610   0.73413   0.00000  Uiso   1.00
O1022  O     0.87012   0.92286   0.71361   0.00000  Uiso   1.00
Zn1023 Zn    0.86005   0.80661   0.78734   0.00000  Uiso   1.00
Zn1024 Zn    0.80046   0.79124   0.71876   0.00000  Uiso   1.00
Zn1025 Zn    0.87723   0.86442   0.70657   0.00000  Uiso   1.00
Zn1026 Zn    0.79560   0.87106   0.78734   0.00000  Uiso   1.00
loop_
_geom_bond_atom_site_label_1
_geom_bond_atom_site_label_2
_geom_bond_distance
_geom_bond_site_symmetry_2
_ccdc_geom_bond_type
C1     O48     1.267   .     A
C1     O50     1.267   .     A
C1     C7      1.437   .     S
C2     C16     1.411   .     A
C2     C21     1.419   .     A
C2     O42     1.382   .     S
C3     C15     1.387   .     A
C3     H29     1.084   .     S
C3     C16     1.400   .     A
C4     O49     1.283   .     A
C4     O51     1.280   .     A
C4     C6      1.454   .     S
C5     C14     1.483   .     S
C5     C17     1.415   .     A
C5     C20     1.418   .     A
C6     C64     1.334   .     S
C6     H85     1.088   .     S
C7     C120    1.334   1_455 S
C7     H144    1.086   1_455 S
C8     C11     1.451   .     S
C8     C180    1.331   .     S
C8     H202    1.088   .     S
C9     C10     1.435   .     S
C9     C350    1.331   1_545 S
C9     H374    1.086   1_545 S
C10    O46     1.274   .     A
C10    O52     1.274   .     A
C11    O47     1.273   .     A
C11    O53     1.272   .     A
C12    C17     1.415   .     A
C12    C531    1.396   .     S
C12    O558    1.382   .     S
C13    O38     1.271   .     A
C13    C16     1.463   .     S
C13    O40     1.281   .     A
C14    O41     1.288   .     A
C14    O39     1.282   .     A
C15    H33     1.084   .     S
C15    C535    1.397   1_554 S
C17    O43     1.382   .     S
C18    O44     1.381   .     S
C18    C525    1.396   1_554 S
C18    C532    1.424   1_554 S
C19    C20     1.417   .     A
C19    C531    1.424   .     S
C19    C534    1.426   .     S
C20    C24     1.411   .     A
C21    C532    1.426   1_554 S
C21    C535    1.420   1_554 S
C22    C23     1.393   .     A
C22    C534    1.420   .     S
C22    C528    1.397   .     S
C23    C24     1.387   .     A
C23    H25     1.084   .     S
C24    H27     1.080   .     S
H26    O558    0.990   .     S
H28    C120    1.088   1_455 S
H30    C64     1.086   .     S
H31    C350    1.088   1_545 S
H32    C180    1.086   .     S
H34    O42     0.988   .     S
H35    O43     0.991   .     S
H36    O44     0.991   .     S
O37    Zn56    1.940   .     S
O37    Zn54    1.959   .     S
O37    Zn57    1.932   .     S
O37    Zn55    1.933   .     S
O38    Zn55    1.932   .     S
O39    Zn57    1.938   .     S
O40    Zn56    1.928   .     S
O41    Zn54    1.924   .     S
O45    H539    0.990   1_554 S
O45    C525    1.382   1_554 S
O46    Zn54    1.925   .     S
O47    Zn57    1.933   .     S
O48    Zn55    1.929   .     S
O49    Zn56    1.936   .     S
O50    Zn57    1.930   .     S
O51    Zn54    1.926   .     S
O52    Zn55    1.938   .     S
O53    Zn56    1.929   .     S
C58    O105    1.267   .     A
C58    O107    1.267   .     A
C58    C64     1.437   .     S
C59    C73     1.411   .     A
C59    C78     1.419   .     A
C59    O99     1.382   .     S
C60    C72     1.387   .     A
C60    H86     1.084   .     S
C60    C73     1.400   .     A
C61    O106    1.283   .     A
C61    O108    1.280   .     A
C61    C63     1.454   .     S
C62    C71     1.483   .     S
C62    C74     1.415   .     A
C62    C77     1.418   .     A
C63    C121    1.334   .     S
C63    H142    1.088   .     S
C65    C68     1.451   .     S
C65    C237    1.331   .     S
C65    H259    1.088   .     S
C66    C67     1.435   .     S
C66    C407    1.331   1_545 S
C66    H431    1.086   1_545 S
C67    O103    1.274   .     A
C67    O109    1.274   .     A
C68    O104    1.273   .     A
C68    O110    1.272   .     A
C69    C74     1.415   .     A
C69    C588    1.396   .     S
C69    O615    1.382   .     S
C70    O95     1.271   .     A
C70    C73     1.463   .     S
C70    O97     1.281   .     A
C71    O98     1.288   .     A
C71    O96     1.282   .     A
C72    H90     1.084   .     S
C72    C592    1.397   1_554 S
C74    O100    1.382   .     S
C75    O101    1.381   .     S
C75    C582    1.396   1_554 S
C75    C589    1.424   1_554 S
C76    C77     1.417   .     A
C76    C588    1.424   .     S
C76    C591    1.426   .     S
C77    C81     1.411   .     A
C78    C589    1.426   1_554 S
C78    C592    1.420   1_554 S
C79    C80     1.393   .     A
C79    C591    1.420   .     S
C79    C585    1.397   .     S
C80    C81     1.387   .     A
C80    H82     1.084   .     S
C81    H84     1.080   .     S
H83    O615    0.990   .     S
H87    C121    1.086   .     S
H88    C407    1.088   1_545 S
H89    C237    1.086   .     S
H91    O99     0.988   .     S
H92    O100    0.991   .     S
H93    O101    0.991   .     S
O94    Zn113   1.940   .     S
O94    Zn111   1.959   .     S
O94    Zn114   1.932   .     S
O94    Zn112   1.933   .     S
O95    Zn112   1.932   .     S
O96    Zn114   1.938   .     S
O97    Zn113   1.928   .     S
O98    Zn111   1.924   .     S
O102   H596    0.990   1_554 S
O102   C582    1.382   1_554 S
O103   Zn111   1.925   .     S
O104   Zn114   1.933   .     S
O105   Zn112   1.929   .     S
O106   Zn113   1.936   .     S
O107   Zn114   1.930   .     S
O108   Zn111   1.926   .     S
O109   Zn112   1.938   .     S
O110   Zn113   1.929   .     S
C115   O162    1.267   .     A
C115   O164    1.267   .     A
C115   C121    1.437   .     S
C116   C130    1.411   .     A
C116   C135    1.419   .     A
C116   O156    1.382   .     S
C117   C129    1.387   .     A
C117   H143    1.084   .     S
C117   C130    1.400   .     A
C118   O163    1.283   .     A
C118   O165    1.280   .     A
C118   C120    1.454   .     S
C119   C128    1.483   .     S
C119   C131    1.415   .     A
C119   C134    1.418   .     A
C120   C7      1.334   1_655 S
C120   H28     1.088   1_655 S
C122   C125    1.451   .     S
C122   C294    1.331   .     S
C122   H316    1.088   .     S
C123   C124    1.435   .     S
C123   C464    1.331   1_545 S
C123   H488    1.086   1_545 S
C124   O160    1.274   .     A
C124   O166    1.274   .     A
C125   O161    1.273   .     A
C125   O167    1.272   .     A
C126   C131    1.415   .     A
C126   C645    1.396   .     S
C126   O672    1.382   .     S
C127   O152    1.271   .     A
C127   C130    1.463   .     S
C127   O154    1.281   .     A
C128   O155    1.288   .     A
C128   O153    1.282   .     A
C129   H147    1.084   .     S
C129   C649    1.397   1_554 S
C131   O157    1.382   .     S
C132   O158    1.381   .     S
C132   C639    1.396   1_554 S
C132   C646    1.424   1_554 S
C133   C134    1.417   .     A
C133   C645    1.424   .     S
C133   C648    1.426   .     S
C134   C138    1.411   .     A
C135   C646    1.426   1_554 S
C135   C649    1.420   1_554 S
C136   C137    1.393   .     A
C136   C648    1.420   .     S
C136   C642    1.397   .     S
C137   C138    1.387   .     A
C137   H139    1.084   .     S
C138   H141    1.080   .     S
H140   O672    0.990   .     S
H144   C7      1.086   1_655 S
H145   C464    1.088   1_545 S
H146   C294    1.086   .     S
H148   O156    0.988   .     S
H149   O157    0.991   .     S
H150   O158    0.991   .     S
O151   Zn170   1.940   .     S
O151   Zn168   1.959   .     S
O151   Zn171   1.932   .     S
O151   Zn169   1.933   .     S
O152   Zn169   1.932   .     S
O153   Zn171   1.938   .     S
O154   Zn170   1.928   .     S
O155   Zn168   1.924   .     S
O159   H653    0.990   1_554 S
O159   C639    1.382   1_554 S
O160   Zn168   1.925   .     S
O161   Zn171   1.933   .     S
O162   Zn169   1.929   .     S
O163   Zn170   1.936   .     S
O164   Zn171   1.930   .     S
O165   Zn168   1.926   .     S
O166   Zn169   1.938   .     S
O167   Zn170   1.929   .     S
C172   O219    1.267   .     A
C172   O221    1.267   .     A
C172   C178    1.437   .     S
C173   C187    1.411   .     A
C173   C192    1.419   .     A
C173   O213    1.382   .     S
C174   C186    1.387   .     A
C174   H200    1.084   .     S
C174   C187    1.400   .     A
C175   O220    1.283   .     A
C175   O222    1.280   .     A
C175   C177    1.454   .     S
C176   C185    1.483   .     S
C176   C188    1.415   .     A
C176   C191    1.418   .     A
C177   C235    1.334   .     S
C177   H256    1.088   .     S
C178   C291    1.334   1_455 S
C178   H315    1.086   1_455 S
C179   C182    1.451   .     S
C179   C351    1.331   .     S
C179   H373    1.088   .     S
C180   C181    1.435   .     S
C181   O217    1.274   .     A
C181   O223    1.274   .     A
C182   O218    1.273   .     A
C182   O224    1.272   .     A
C183   C188    1.415   .     A
C183   C702    1.396   .     S
C183   O729    1.382   .     S
C184   O209    1.271   .     A
C184   C187    1.463   .     S
C184   O211    1.281   .     A
C185   O212    1.288   .     A
C185   O210    1.282   .     A
C186   H204    1.084   .     S
C186   C706    1.397   1_554 S
C188   O214    1.382   .     S
C189   O215    1.381   .     S
C189   C696    1.396   1_554 S
C189   C703    1.424   1_554 S
C190   C191    1.417   .     A
C190   C702    1.424   .     S
C190   C705    1.426   .     S
C191   C195    1.411   .     A
C192   C703    1.426   1_554 S
C192   C706    1.420   1_554 S
C193   C194    1.393   .     A
C193   C705    1.420   .     S
C193   C699    1.397   .     S
C194   C195    1.387   .     A
C194   H196    1.084   .     S
C195   H198    1.080   .     S
H197   O729    0.990   .     S
H199   C291    1.088   1_455 S
H201   C235    1.086   .     S
H203   C351    1.086   .     S
H205   O213    0.988   .     S
H206   O214    0.991   .     S
H207   O215    0.991   .     S
O208   Zn227   1.940   .     S
O208   Zn225   1.959   .     S
O208   Zn228   1.932   .     S
O208   Zn226   1.933   .     S
O209   Zn226   1.932   .     S
O210   Zn228   1.938   .     S
O211   Zn227   1.928   .     S
O212   Zn225   1.924   .     S
O216   H710    0.990   1_554 S
O216   C696    1.382   1_554 S
O217   Zn225   1.925   .     S
O218   Zn228   1.933   .     S
O219   Zn226   1.929   .     S
O220   Zn227   1.936   .     S
O221   Zn228   1.930   .     S
O222   Zn225   1.926   .     S
O223   Zn226   1.938   .     S
O224   Zn227   1.929   .     S
C229   O276    1.267   .     A
C229   O278    1.267   .     A
C229   C235    1.437   .     S
C230   C244    1.411   .     A
C230   C249    1.419   .     A
C230   O270    1.382   .     S
C231   C243    1.387   .     A
C231   H257    1.084   .     S
C231   C244    1.400   .     A
C232   O277    1.283   .     A
C232   O279    1.280   .     A
C232   C234    1.454   .     S
C233   C242    1.483   .     S
C233   C245    1.415   .     A
C233   C248    1.418   .     A
C234   C292    1.334   .     S
C234   H313    1.088   .     S
C236   C239    1.451   .     S
C236   C408    1.331   .     S
C236   H430    1.088   .     S
C237   C238    1.435   .     S
C238   O274    1.274   .     A
C238   O280    1.274   .     A
C239   O275    1.273   .     A
C239   O281    1.272   .     A
C240   C245    1.415   .     A
C240   C759    1.396   .     S
C240   O786    1.382   .     S
C241   O266    1.271   .     A
C241   C244    1.463   .     S
C241   O268    1.281   .     A
C242   O269    1.288   .     A
C242   O267    1.282   .     A
C243   H261    1.084   .     S
C243   C763    1.397   1_554 S
C245   O271    1.382   .     S
C246   O272    1.381   .     S
C246   C753    1.396   1_554 S
C246   C760    1.424   1_554 S
C247   C248    1.417   .     A
C247   C759    1.424   .     S
C247   C762    1.426   .     S
C248   C252    1.411   .     A
C249   C760    1.426   1_554 S
C249   C763    1.420   1_554 S
C250   C251    1.393   .     A
C250   C762    1.420   .     S
C250   C756    1.397   .     S
C251   C252    1.387   .     A
C251   H253    1.084   .     S
C252   H255    1.080   .     S
H254   O786    0.990   .     S
H258   C292    1.086   .     S
H260   C408    1.086   .     S
H262   O270    0.988   .     S
H263   O271    0.991   .     S
H264   O272    0.991   .     S
O265   Zn284   1.940   .     S
O265   Zn282   1.959   .     S
O265   Zn285   1.932   .     S
O265   Zn283   1.933   .     S
O266   Zn283   1.932   .     S
O267   Zn285   1.938   .     S
O268   Zn284   1.928   .     S
O269   Zn282   1.924   .     S
O273   H767    0.990   1_554 S
O273   C753    1.382   1_554 S
O274   Zn282   1.925   .     S
O275   Zn285   1.933   .     S
O276   Zn283   1.929   .     S
O277   Zn284   1.936   .     S
O278   Zn285   1.930   .     S
O279   Zn282   1.926   .     S
O280   Zn283   1.938   .     S
O281   Zn284   1.929   .     S
C286   O333    1.267   .     A
C286   O335    1.267   .     A
C286   C292    1.437   .     S
C287   C301    1.411   .     A
C287   C306    1.419   .     A
C287   O327    1.382   .     S
C288   C300    1.387   .     A
C288   H314    1.084   .     S
C288   C301    1.400   .     A
C289   O334    1.283   .     A
C289   O336    1.280   .     A
C289   C291    1.454   .     S
C290   C299    1.483   .     S
C290   C302    1.415   .     A
C290   C305    1.418   .     A
C291   C178    1.334   1_655 S
C291   H199    1.088   1_655 S
C293   C296    1.451   .     S
C293   C465    1.331   .     S
C293   H487    1.088   .     S
C294   C295    1.435   .     S
C295   O331    1.274   .     A
C295   O337    1.274   .     A
C296   O332    1.273   .     A
C296   O338    1.272   .     A
C297   C302    1.415   .     A
C297   C816    1.396   .     S
C297   O843    1.382   .     S
C298   O323    1.271   .     A
C298   C301    1.463   .     S
C298   O325    1.281   .     A
C299   O326    1.288   .     A
C299   O324    1.282   .     A
C300   H318    1.084   .     S
C300   C820    1.397   1_554 S
C302   O328    1.382   .     S
C303   O329    1.381   .     S
C303   C810    1.396   1_554 S
C303   C817    1.424   1_554 S
C304   C305    1.417   .     A
C304   C816    1.424   .     S
C304   C819    1.426   .     S
C305   C309    1.411   .     A
C306   C817    1.426   1_554 S
C306   C820    1.420   1_554 S
C307   C308    1.393   .     A
C307   C819    1.420   .     S
C307   C813    1.397   .     S
C308   C309    1.387   .     A
C308   H310    1.084   .     S
C309   H312    1.080   .     S
H311   O843    0.990   .     S
H315   C178    1.086   1_655 S
H317   C465    1.086   .     S
H319   O327    0.988   .     S
H320   O328    0.991   .     S
H321   O329    0.991   .     S
O322   Zn341   1.940   .     S
O322   Zn339   1.959   .     S
O322   Zn342   1.932   .     S
O322   Zn340   1.933   .     S
O323   Zn340   1.932   .     S
O324   Zn342   1.938   .     S
O325   Zn341   1.928   .     S
O326   Zn339   1.924   .     S
O330   H824    0.990   1_554 S
O330   C810    1.382   1_554 S
O331   Zn339   1.925   .     S
O332   Zn342   1.933   .     S
O333   Zn340   1.929   .     S
O334   Zn341   1.936   .     S
O335   Zn342   1.930   .     S
O336   Zn339   1.926   .     S
O337   Zn340   1.938   .     S
O338   Zn341   1.929   .     S
C343   O390    1.267   .     A
C343   O392    1.267   .     A
C343   C349    1.437   .     S
C344   C358    1.411   .     A
C344   C363    1.419   .     A
C344   O384    1.382   .     S
C345   C357    1.387   .     A
C345   H371    1.084   .     S
C345   C358    1.400   .     A
C346   O391    1.283   .     A
C346   O393    1.280   .     A
C346   C348    1.454   .     S
C347   C356    1.483   .     S
C347   C359    1.415   .     A
C347   C362    1.418   .     A
C348   C406    1.334   .     S
C348   H427    1.088   .     S
C349   C462    1.334   1_455 S
C349   H486    1.086   1_455 S
C350   C353    1.451   .     S
C350   C9      1.331   1_565 S
C350   H31     1.088   1_565 S
C351   C352    1.435   .     S
C352   O388    1.274   .     A
C352   O394    1.274   .     A
C353   O389    1.273   .     A
C353   O395    1.272   .     A
C354   C359    1.415   .     A
C354   C873    1.396   .     S
C354   O900    1.382   .     S
C355   O380    1.271   .     A
C355   C358    1.463   .     S
C355   O382    1.281   .     A
C356   O383    1.288   .     A
C356   O381    1.282   .     A
C357   H375    1.084   .     S
C357   C877    1.397   1_554 S
C359   O385    1.382   .     S
C360   O386    1.381   .     S
C360   C867    1.396   1_554 S
C360   C874    1.424   1_554 S
C361   C362    1.417   .     A
C361   C873    1.424   .     S
C361   C876    1.426   .     S
C362   C366    1.411   .     A
C363   C874    1.426   1_554 S
C363   C877    1.420   1_554 S
C364   C365    1.393   .     A
C364   C876    1.420   .     S
C364   C870    1.397   .     S
C365   C366    1.387   .     A
C365   H367    1.084   .     S
C366   H369    1.080   .     S
H368   O900    0.990   .     S
H370   C462    1.088   1_455 S
H372   C406    1.086   .     S
H374   C9      1.086   1_565 S
H376   O384    0.988   .     S
H377   O385    0.991   .     S
H378   O386    0.991   .     S
O379   Zn398   1.940   .     S
O379   Zn396   1.959   .     S
O379   Zn399   1.932   .     S
O379   Zn397   1.933   .     S
O380   Zn397   1.932   .     S
O381   Zn399   1.938   .     S
O382   Zn398   1.928   .     S
O383   Zn396   1.924   .     S
O387   H881    0.990   1_554 S
O387   C867    1.382   1_554 S
O388   Zn396   1.925   .     S
O389   Zn399   1.933   .     S
O390   Zn397   1.929   .     S
O391   Zn398   1.936   .     S
O392   Zn399   1.930   .     S
O393   Zn396   1.926   .     S
O394   Zn397   1.938   .     S
O395   Zn398   1.929   .     S
C400   O447    1.267   .     A
C400   O449    1.267   .     A
C400   C406    1.437   .     S
C401   C415    1.411   .     A
C401   C420    1.419   .     A
C401   O441    1.382   .     S
C402   C414    1.387   .     A
C402   H428    1.084   .     S
C402   C415    1.400   .     A
C403   O448    1.283   .     A
C403   O450    1.280   .     A
C403   C405    1.454   .     S
C404   C413    1.483   .     S
C404   C416    1.415   .     A
C404   C419    1.418   .     A
C405   C463    1.334   .     S
C405   H484    1.088   .     S
C407   C410    1.451   .     S
C407   C66     1.331   1_565 S
C407   H88     1.088   1_565 S
C408   C409    1.435   .     S
C409   O445    1.274   .     A
C409   O451    1.274   .     A
C410   O446    1.273   .     A
C410   O452    1.272   .     A
C411   C416    1.415   .     A
C411   C930    1.396   .     S
C411   O957    1.382   .     S
C412   O437    1.271   .     A
C412   C415    1.463   .     S
C412   O439    1.281   .     A
C413   O440    1.288   .     A
C413   O438    1.282   .     A
C414   H432    1.084   .     S
C414   C934    1.397   1_554 S
C416   O442    1.382   .     S
C417   O443    1.381   .     S
C417   C924    1.396   1_554 S
C417   C931    1.424   1_554 S
C418   C419    1.417   .     A
C418   C930    1.424   .     S
C418   C933    1.426   .     S
C419   C423    1.411   .     A
C420   C931    1.426   1_554 S
C420   C934    1.420   1_554 S
C421   C422    1.393   .     A
C421   C933    1.420   .     S
C421   C927    1.397   .     S
C422   C423    1.387   .     A
C422   H424    1.084   .     S
C423   H426    1.080   .     S
H425   O957    0.990   .     S
H429   C463    1.086   .     S
H431   C66     1.086   1_565 S
H433   O441    0.988   .     S
H434   O442    0.991   .     S
H435   O443    0.991   .     S
O436   Zn455   1.940   .     S
O436   Zn453   1.959   .     S
O436   Zn456   1.932   .     S
O436   Zn454   1.933   .     S
O437   Zn454   1.932   .     S
O438   Zn456   1.938   .     S
O439   Zn455   1.928   .     S
O440   Zn453   1.924   .     S
O444   H938    0.990   1_554 S
O444   C924    1.382   1_554 S
O445   Zn453   1.925   .     S
O446   Zn456   1.933   .     S
O447   Zn454   1.929   .     S
O448   Zn455   1.936   .     S
O449   Zn456   1.930   .     S
O450   Zn453   1.926   .     S
O451   Zn454   1.938   .     S
O452   Zn455   1.929   .     S
C457   O504    1.267   .     A
C457   O506    1.267   .     A
C457   C463    1.437   .     S
C458   C472    1.411   .     A
C458   C477    1.419   .     A
C458   O498    1.382   .     S
C459   C471    1.387   .     A
C459   H485    1.084   .     S
C459   C472    1.400   .     A
C460   O505    1.283   .     A
C460   O507    1.280   .     A
C460   C462    1.454   .     S
C461   C470    1.483   .     S
C461   C473    1.415   .     A
C461   C476    1.418   .     A
C462   C349    1.334   1_655 S
C462   H370    1.088   1_655 S
C464   C467    1.451   .     S
C464   C123    1.331   1_565 S
C464   H145    1.088   1_565 S
C465   C466    1.435   .     S
C466   O502    1.274   .     A
C466   O508    1.274   .     A
C467   O503    1.273   .     A
C467   O509    1.272   .     A
C468   C473    1.415   .     A
C468   C987    1.396   .     S
C468   O1014   1.382   .     S
C469   O494    1.271   .     A
C469   C472    1.463   .     S
C469   O496    1.281   .     A
C470   O497    1.288   .     A
C470   O495    1.282   .     A
C471   H489    1.084   .     S
C471   C991    1.397   1_554 S
C473   O499    1.382   .     S
C474   O500    1.381   .     S
C474   C981    1.396   1_554 S
C474   C988    1.424   1_554 S
C475   C476    1.417   .     A
C475   C987    1.424   .     S
C475   C990    1.426   .     S
C476   C480    1.411   .     A
C477   C988    1.426   1_554 S
C477   C991    1.420   1_554 S
C478   C479    1.393   .     A
C478   C990    1.420   .     S
C478   C984    1.397   .     S
C479   C480    1.387   .     A
C479   H481    1.084   .     S
C480   H483    1.080   .     S
H482   O1014   0.990   .     S
H486   C349    1.086   1_655 S
H488   C123    1.086   1_565 S
H490   O498    0.988   .     S
H491   O499    0.991   .     S
H492   O500    0.991   .     S
O493   Zn512   1.940   .     S
O493   Zn510   1.959   .     S
O493   Zn513   1.932   .     S
O493   Zn511   1.933   .     S
O494   Zn511   1.932   .     S
O495   Zn513   1.938   .     S
O496   Zn512   1.928   .     S
O497   Zn510   1.924   .     S
O501   H995    0.990   1_554 S
O501   C981    1.382   1_554 S
O502   Zn510   1.925   .     S
O503   Zn513   1.933   .     S
O504   Zn511   1.929   .     S
O505   Zn512   1.936   .     S
O506   Zn513   1.930   .     S
O507   Zn510   1.926   .     S
O508   Zn511   1.938   .     S
O509   Zn512   1.929   .     S
C514   O561    1.267   .     A
C514   O563    1.267   .     A
C514   C520    1.437   .     S
C515   C529    1.411   .     A
C515   C534    1.419   .     A
C515   O555    1.382   .     S
C516   C528    1.387   .     A
C516   H542    1.084   .     S
C516   C529    1.400   .     A
C517   O562    1.283   .     A
C517   O564    1.280   .     A
C517   C519    1.454   .     S
C518   C527    1.483   .     S
C518   C530    1.415   .     A
C518   C533    1.418   .     A
C519   C577    1.334   .     S
C519   H598    1.088   .     S
C520   C633    1.334   1_455 S
C520   H657    1.086   1_455 S
C521   C524    1.451   .     S
C521   C693    1.331   .     S
C521   H715    1.088   .     S
C522   C523    1.435   .     S
C522   C863    1.331   1_545 S
C522   H887    1.086   1_545 S
C523   O559    1.274   .     A
C523   O565    1.274   .     A
C524   O560    1.273   .     A
C524   O566    1.272   .     A
C525   C530    1.415   .     A
C525   C18     1.396   1_556 S
C525   O45     1.382   1_556 S
C526   O551    1.271   .     A
C526   C529    1.463   .     S
C526   O553    1.281   .     A
C527   O554    1.288   .     A
C527   O552    1.282   .     A
C528   H546    1.084   .     S
C530   O556    1.382   .     S
C531   O557    1.381   .     S
C532   C533    1.417   .     A
C532   C18     1.424   1_556 S
C532   C21     1.426   1_556 S
C533   C537    1.411   .     A
C535   C536    1.393   .     A
C535   C21     1.420   1_556 S
C535   C15     1.397   1_556 S
C536   C537    1.387   .     A
C536   H538    1.084   .     S
C537   H540    1.080   .     S
H539   O45     0.990   1_556 S
H541   C633    1.088   1_455 S
H543   C577    1.086   .     S
H544   C863    1.088   1_545 S
H545   C693    1.086   .     S
H547   O555    0.988   .     S
H548   O556    0.991   .     S
H549   O557    0.991   .     S
O550   Zn569   1.940   .     S
O550   Zn567   1.959   .     S
O550   Zn570   1.932   .     S
O550   Zn568   1.933   .     S
O551   Zn568   1.932   .     S
O552   Zn570   1.938   .     S
O553   Zn569   1.928   .     S
O554   Zn567   1.924   .     S
O559   Zn567   1.925   .     S
O560   Zn570   1.933   .     S
O561   Zn568   1.929   .     S
O562   Zn569   1.936   .     S
O563   Zn570   1.930   .     S
O564   Zn567   1.926   .     S
O565   Zn568   1.938   .     S
O566   Zn569   1.929   .     S
C571   O618    1.267   .     A
C571   O620    1.267   .     A
C571   C577    1.437   .     S
C572   C586    1.411   .     A
C572   C591    1.419   .     A
C572   O612    1.382   .     S
C573   C585    1.387   .     A
C573   H599    1.084   .     S
C573   C586    1.400   .     A
C574   O619    1.283   .     A
C574   O621    1.280   .     A
C574   C576    1.454   .     S
C575   C584    1.483   .     S
C575   C587    1.415   .     A
C575   C590    1.418   .     A
C576   C634    1.334   .     S
C576   H655    1.088   .     S
C578   C581    1.451   .     S
C578   C750    1.331   .     S
C578   H772    1.088   .     S
C579   C580    1.435   .     S
C579   C920    1.331   1_545 S
C579   H944    1.086   1_545 S
C580   O616    1.274   .     A
C580   O622    1.274   .     A
C581   O617    1.273   .     A
C581   O623    1.272   .     A
C582   C587    1.415   .     A
C582   C75     1.396   1_556 S
C582   O102    1.382   1_556 S
C583   O608    1.271   .     A
C583   C586    1.463   .     S
C583   O610    1.281   .     A
C584   O611    1.288   .     A
C584   O609    1.282   .     A
C585   H603    1.084   .     S
C587   O613    1.382   .     S
C588   O614    1.381   .     S
C589   C590    1.417   .     A
C589   C75     1.424   1_556 S
C589   C78     1.426   1_556 S
C590   C594    1.411   .     A
C592   C593    1.393   .     A
C592   C78     1.420   1_556 S
C592   C72     1.397   1_556 S
C593   C594    1.387   .     A
C593   H595    1.084   .     S
C594   H597    1.080   .     S
H596   O102    0.990   1_556 S
H600   C634    1.086   .     S
H601   C920    1.088   1_545 S
H602   C750    1.086   .     S
H604   O612    0.988   .     S
H605   O613    0.991   .     S
H606   O614    0.991   .     S
O607   Zn626   1.940   .     S
O607   Zn624   1.959   .     S
O607   Zn627   1.932   .     S
O607   Zn625   1.933   .     S
O608   Zn625   1.932   .     S
O609   Zn627   1.938   .     S
O610   Zn626   1.928   .     S
O611   Zn624   1.924   .     S
O616   Zn624   1.925   .     S
O617   Zn627   1.933   .     S
O618   Zn625   1.929   .     S
O619   Zn626   1.936   .     S
O620   Zn627   1.930   .     S
O621   Zn624   1.926   .     S
O622   Zn625   1.938   .     S
O623   Zn626   1.929   .     S
C628   O675    1.267   .     A
C628   O677    1.267   .     A
C628   C634    1.437   .     S
C629   C643    1.411   .     A
C629   C648    1.419   .     A
C629   O669    1.382   .     S
C630   C642    1.387   .     A
C630   H656    1.084   .     S
C630   C643    1.400   .     A
C631   O676    1.283   .     A
C631   O678    1.280   .     A
C631   C633    1.454   .     S
C632   C641    1.483   .     S
C632   C644    1.415   .     A
C632   C647    1.418   .     A
C633   C520    1.334   1_655 S
C633   H541    1.088   1_655 S
C635   C638    1.451   .     S
C635   C807    1.331   .     S
C635   H829    1.088   .     S
C636   C637    1.435   .     S
C636   C977    1.331   1_545 S
C636   H1001   1.086   1_545 S
C637   O673    1.274   .     A
C637   O679    1.274   .     A
C638   O674    1.273   .     A
C638   O680    1.272   .     A
C639   C644    1.415   .     A
C639   C132    1.396   1_556 S
C639   O159    1.382   1_556 S
C640   O665    1.271   .     A
C640   C643    1.463   .     S
C640   O667    1.281   .     A
C641   O668    1.288   .     A
C641   O666    1.282   .     A
C642   H660    1.084   .     S
C644   O670    1.382   .     S
C645   O671    1.381   .     S
C646   C647    1.417   .     A
C646   C132    1.424   1_556 S
C646   C135    1.426   1_556 S
C647   C651    1.411   .     A
C649   C650    1.393   .     A
C649   C135    1.420   1_556 S
C649   C129    1.397   1_556 S
C650   C651    1.387   .     A
C650   H652    1.084   .     S
C651   H654    1.080   .     S
H653   O159    0.990   1_556 S
H657   C520    1.086   1_655 S
H658   C977    1.088   1_545 S
H659   C807    1.086   .     S
H661   O669    0.988   .     S
H662   O670    0.991   .     S
H663   O671    0.991   .     S
O664   Zn683   1.940   .     S
O664   Zn681   1.959   .     S
O664   Zn684   1.932   .     S
O664   Zn682   1.933   .     S
O665   Zn682   1.932   .     S
O666   Zn684   1.938   .     S
O667   Zn683   1.928   .     S
O668   Zn681   1.924   .     S
O673   Zn681   1.925   .     S
O674   Zn684   1.933   .     S
O675   Zn682   1.929   .     S
O676   Zn683   1.936   .     S
O677   Zn684   1.930   .     S
O678   Zn681   1.926   .     S
O679   Zn682   1.938   .     S
O680   Zn683   1.929   .     S
C685   O732    1.267   .     A
C685   O734    1.267   .     A
C685   C691    1.437   .     S
C686   C700    1.411   .     A
C686   C705    1.419   .     A
C686   O726    1.382   .     S
C687   C699    1.387   .     A
C687   H713    1.084   .     S
C687   C700    1.400   .     A
C688   O733    1.283   .     A
C688   O735    1.280   .     A
C688   C690    1.454   .     S
C689   C698    1.483   .     S
C689   C701    1.415   .     A
C689   C704    1.418   .     A
C690   C748    1.334   .     S
C690   H769    1.088   .     S
C691   C804    1.334   1_455 S
C691   H828    1.086   1_455 S
C692   C695    1.451   .     S
C692   C864    1.331   .     S
C692   H886    1.088   .     S
C693   C694    1.435   .     S
C694   O730    1.274   .     A
C694   O736    1.274   .     A
C695   O731    1.273   .     A
C695   O737    1.272   .     A
C696   C701    1.415   .     A
C696   C189    1.396   1_556 S
C696   O216    1.382   1_556 S
C697   O722    1.271   .     A
C697   C700    1.463   .     S
C697   O724    1.281   .     A
C698   O725    1.288   .     A
C698   O723    1.282   .     A
C699   H717    1.084   .     S
C701   O727    1.382   .     S
C702   O728    1.381   .     S
C703   C704    1.417   .     A
C703   C189    1.424   1_556 S
C703   C192    1.426   1_556 S
C704   C708    1.411   .     A
C706   C707    1.393   .     A
C706   C192    1.420   1_556 S
C706   C186    1.397   1_556 S
C707   C708    1.387   .     A
C707   H709    1.084   .     S
C708   H711    1.080   .     S
H710   O216    0.990   1_556 S
H712   C804    1.088   1_455 S
H714   C748    1.086   .     S
H716   C864    1.086   .     S
H718   O726    0.988   .     S
H719   O727    0.991   .     S
H720   O728    0.991   .     S
O721   Zn740   1.940   .     S
O721   Zn738   1.959   .     S
O721   Zn741   1.932   .     S
O721   Zn739   1.933   .     S
O722   Zn739   1.932   .     S
O723   Zn741   1.938   .     S
O724   Zn740   1.928   .     S
O725   Zn738   1.924   .     S
O730   Zn738   1.925   .     S
O731   Zn741   1.933   .     S
O732   Zn739   1.929   .     S
O733   Zn740   1.936   .     S
O734   Zn741   1.930   .     S
O735   Zn738   1.926   .     S
O736   Zn739   1.938   .     S
O737   Zn740   1.929   .     S
C742   O789    1.267   .     A
C742   O791    1.267   .     A
C742   C748    1.437   .     S
C743   C757    1.411   .     A
C743   C762    1.419   .     A
C743   O783    1.382   .     S
C744   C756    1.387   .     A
C744   H770    1.084   .     S
C744   C757    1.400   .     A
C745   O790    1.283   .     A
C745   O792    1.280   .     A
C745   C747    1.454   .     S
C746   C755    1.483   .     S
C746   C758    1.415   .     A
C746   C761    1.418   .     A
C747   C805    1.334   .     S
C747   H826    1.088   .     S
C749   C752    1.451   .     S
C749   C921    1.331   .     S
C749   H943    1.088   .     S
C750   C751    1.435   .     S
C751   O787    1.274   .     A
C751   O793    1.274   .     A
C752   O788    1.273   .     A
C752   O794    1.272   .     A
C753   C758    1.415   .     A
C753   C246    1.396   1_556 S
C753   O273    1.382   1_556 S
C754   O779    1.271   .     A
C754   C757    1.463   .     S
C754   O781    1.281   .     A
C755   O782    1.288   .     A
C755   O780    1.282   .     A
C756   H774    1.084   .     S
C758   O784    1.382   .     S
C759   O785    1.381   .     S
C760   C761    1.417   .     A
C760   C246    1.424   1_556 S
C760   C249    1.426   1_556 S
C761   C765    1.411   .     A
C763   C764    1.393   .     A
C763   C249    1.420   1_556 S
C763   C243    1.397   1_556 S
C764   C765    1.387   .     A
C764   H766    1.084   .     S
C765   H768    1.080   .     S
H767   O273    0.990   1_556 S
H771   C805    1.086   .     S
H773   C921    1.086   .     S
H775   O783    0.988   .     S
H776   O784    0.991   .     S
H777   O785    0.991   .     S
O778   Zn797   1.940   .     S
O778   Zn795   1.959   .     S
O778   Zn798   1.932   .     S
O778   Zn796   1.933   .     S
O779   Zn796   1.932   .     S
O780   Zn798   1.938   .     S
O781   Zn797   1.928   .     S
O782   Zn795   1.924   .     S
O787   Zn795   1.925   .     S
O788   Zn798   1.933   .     S
O789   Zn796   1.929   .     S
O790   Zn797   1.936   .     S
O791   Zn798   1.930   .     S
O792   Zn795   1.926   .     S
O793   Zn796   1.938   .     S
O794   Zn797   1.929   .     S
C799   O846    1.267   .     A
C799   O848    1.267   .     A
C799   C805    1.437   .     S
C800   C814    1.411   .     A
C800   C819    1.419   .     A
C800   O840    1.382   .     S
C801   C813    1.387   .     A
C801   H827    1.084   .     S
C801   C814    1.400   .     A
C802   O847    1.283   .     A
C802   O849    1.280   .     A
C802   C804    1.454   .     S
C803   C812    1.483   .     S
C803   C815    1.415   .     A
C803   C818    1.418   .     A
C804   C691    1.334   1_655 S
C804   H712    1.088   1_655 S
C806   C809    1.451   .     S
C806   C978    1.331   .     S
C806   H1000   1.088   .     S
C807   C808    1.435   .     S
C808   O844    1.274   .     A
C808   O850    1.274   .     A
C809   O845    1.273   .     A
C809   O851    1.272   .     A
C810   C815    1.415   .     A
C810   C303    1.396   1_556 S
C810   O330    1.382   1_556 S
C811   O836    1.271   .     A
C811   C814    1.463   .     S
C811   O838    1.281   .     A
C812   O839    1.288   .     A
C812   O837    1.282   .     A
C813   H831    1.084   .     S
C815   O841    1.382   .     S
C816   O842    1.381   .     S
C817   C818    1.417   .     A
C817   C303    1.424   1_556 S
C817   C306    1.426   1_556 S
C818   C822    1.411   .     A
C820   C821    1.393   .     A
C820   C306    1.420   1_556 S
C820   C300    1.397   1_556 S
C821   C822    1.387   .     A
C821   H823    1.084   .     S
C822   H825    1.080   .     S
H824   O330    0.990   1_556 S
H828   C691    1.086   1_655 S
H830   C978    1.086   .     S
H832   O840    0.988   .     S
H833   O841    0.991   .     S
H834   O842    0.991   .     S
O835   Zn854   1.940   .     S
O835   Zn852   1.959   .     S
O835   Zn855   1.932   .     S
O835   Zn853   1.933   .     S
O836   Zn853   1.932   .     S
O837   Zn855   1.938   .     S
O838   Zn854   1.928   .     S
O839   Zn852   1.924   .     S
O844   Zn852   1.925   .     S
O845   Zn855   1.933   .     S
O846   Zn853   1.929   .     S
O847   Zn854   1.936   .     S
O848   Zn855   1.930   .     S
O849   Zn852   1.926   .     S
O850   Zn853   1.938   .     S
O851   Zn854   1.929   .     S
C856   O903    1.267   .     A
C856   O905    1.267   .     A
C856   C862    1.437   .     S
C857   C871    1.411   .     A
C857   C876    1.419   .     A
C857   O897    1.382   .     S
C858   C870    1.387   .     A
C858   H884    1.084   .     S
C858   C871    1.400   .     A
C859   O904    1.283   .     A
C859   O906    1.280   .     A
C859   C861    1.454   .     S
C860   C869    1.483   .     S
C860   C872    1.415   .     A
C860   C875    1.418   .     A
C861   C919    1.334   .     S
C861   H940    1.088   .     S
C862   C975    1.334   1_455 S
C862   H999    1.086   1_455 S
C863   C866    1.451   .     S
C863   C522    1.331   1_565 S
C863   H544    1.088   1_565 S
C864   C865    1.435   .     S
C865   O901    1.274   .     A
C865   O907    1.274   .     A
C866   O902    1.273   .     A
C866   O908    1.272   .     A
C867   C872    1.415   .     A
C867   C360    1.396   1_556 S
C867   O387    1.382   1_556 S
C868   O893    1.271   .     A
C868   C871    1.463   .     S
C868   O895    1.281   .     A
C869   O896    1.288   .     A
C869   O894    1.282   .     A
C870   H888    1.084   .     S
C872   O898    1.382   .     S
C873   O899    1.381   .     S
C874   C875    1.417   .     A
C874   C360    1.424   1_556 S
C874   C363    1.426   1_556 S
C875   C879    1.411   .     A
C877   C878    1.393   .     A
C877   C363    1.420   1_556 S
C877   C357    1.397   1_556 S
C878   C879    1.387   .     A
C878   H880    1.084   .     S
C879   H882    1.080   .     S
H881   O387    0.990   1_556 S
H883   C975    1.088   1_455 S
H885   C919    1.086   .     S
H887   C522    1.086   1_565 S
H889   O897    0.988   .     S
H890   O898    0.991   .     S
H891   O899    0.991   .     S
O892   Zn911   1.940   .     S
O892   Zn909   1.959   .     S
O892   Zn912   1.932   .     S
O892   Zn910   1.933   .     S
O893   Zn910   1.932   .     S
O894   Zn912   1.938   .     S
O895   Zn911   1.928   .     S
O896   Zn909   1.924   .     S
O901   Zn909   1.925   .     S
O902   Zn912   1.933   .     S
O903   Zn910   1.929   .     S
O904   Zn911   1.936   .     S
O905   Zn912   1.930   .     S
O906   Zn909   1.926   .     S
O907   Zn910   1.938   .     S
O908   Zn911   1.929   .     S
C913   O960    1.267   .     A
C913   O962    1.267   .     A
C913   C919    1.437   .     S
C914   C928    1.411   .     A
C914   C933    1.419   .     A
C914   O954    1.382   .     S
C915   C927    1.387   .     A
C915   H941    1.084   .     S
C915   C928    1.400   .     A
C916   O961    1.283   .     A
C916   O963    1.280   .     A
C916   C918    1.454   .     S
C917   C926    1.483   .     S
C917   C929    1.415   .     A
C917   C932    1.418   .     A
C918   C976    1.334   .     S
C918   H997    1.088   .     S
C920   C923    1.451   .     S
C920   C579    1.331   1_565 S
C920   H601    1.088   1_565 S
C921   C922    1.435   .     S
C922   O958    1.274   .     A
C922   O964    1.274   .     A
C923   O959    1.273   .     A
C923   O965    1.272   .     A
C924   C929    1.415   .     A
C924   C417    1.396   1_556 S
C924   O444    1.382   1_556 S
C925   O950    1.271   .     A
C925   C928    1.463   .     S
C925   O952    1.281   .     A
C926   O953    1.288   .     A
C926   O951    1.282   .     A
C927   H945    1.084   .     S
C929   O955    1.382   .     S
C930   O956    1.381   .     S
C931   C932    1.417   .     A
C931   C417    1.424   1_556 S
C931   C420    1.426   1_556 S
C932   C936    1.411   .     A
C934   C935    1.393   .     A
C934   C420    1.420   1_556 S
C934   C414    1.397   1_556 S
C935   C936    1.387   .     A
C935   H937    1.084   .     S
C936   H939    1.080   .     S
H938   O444    0.990   1_556 S
H942   C976    1.086   .     S
H944   C579    1.086   1_565 S
H946   O954    0.988   .     S
H947   O955    0.991   .     S
H948   O956    0.991   .     S
O949   Zn968   1.940   .     S
O949   Zn966   1.959   .     S
O949   Zn969   1.932   .     S
O949   Zn967   1.933   .     S
O950   Zn967   1.932   .     S
O951   Zn969   1.938   .     S
O952   Zn968   1.928   .     S
O953   Zn966   1.924   .     S
O958   Zn966   1.925   .     S
O959   Zn969   1.933   .     S
O960   Zn967   1.929   .     S
O961   Zn968   1.936   .     S
O962   Zn969   1.930   .     S
O963   Zn966   1.926   .     S
O964   Zn967   1.938   .     S
O965   Zn968   1.929   .     S
C970   O1017   1.267   .     A
C970   O1019   1.267   .     A
C970   C976    1.437   .     S
C971   C985    1.411   .     A
C971   C990    1.419   .     A
C971   O1011   1.382   .     S
C972   C984    1.387   .     A
C972   H998    1.084   .     S
C972   C985    1.400   .     A
C973   O1018   1.283   .     A
C973   O1020   1.280   .     A
C973   C975    1.454   .     S
C974   C983    1.483   .     S
C974   C986    1.415   .     A
C974   C989    1.418   .     A
C975   C862    1.334   1_655 S
C975   H883    1.088   1_655 S
C977   C980    1.451   .     S
C977   C636    1.331   1_565 S
C977   H658    1.088   1_565 S
C978   C979    1.435   .     S
C979   O1015   1.274   .     A
C979   O1021   1.274   .     A
C980   O1016   1.273   .     A
C980   O1022   1.272   .     A
C981   C986    1.415   .     A
C981   C474    1.396   1_556 S
C981   O501    1.382   1_556 S
C982   O1007   1.271   .     A
C982   C985    1.463   .     S
C982   O1009   1.281   .     A
C983   O1010   1.288   .     A
C983   O1008   1.282   .     A
C984   H1002   1.084   .     S
C986   O1012   1.382   .     S
C987   O1013   1.381   .     S
C988   C989    1.417   .     A
C988   C474    1.424   1_556 S
C988   C477    1.426   1_556 S
C989   C993    1.411   .     A
C991   C992    1.393   .     A
C991   C477    1.420   1_556 S
C991   C471    1.397   1_556 S
C992   C993    1.387   .     A
C992   H994    1.084   .     S
C993   H996    1.080   .     S
H995   O501    0.990   1_556 S
H999   C862    1.086   1_655 S
H1001  C636    1.086   1_565 S
H1003  O1011   0.988   .     S
H1004  O1012   0.991   .     S
H1005  O1013   0.991   .     S
O1006  Zn1025  1.940   .     S
O1006  Zn1023  1.959   .     S
O1006  Zn1026  1.932   .     S
O1006  Zn1024  1.933   .     S
O1007  Zn1024  1.932   .     S
O1008  Zn1026  1.938   .     S
O1009  Zn1025  1.928   .     S
O1010  Zn1023  1.924   .     S
O1015  Zn1023  1.925   .     S
O1016  Zn1026  1.933   .     S
O1017  Zn1024  1.929   .     S
O1018  Zn1025  1.936   .     S
O1019  Zn1026  1.930   .     S
O1020  Zn1023  1.926   .     S
O1021  Zn1024  1.938   .     S
O1022  Zn1025  1.929   .     S
