data_str_m1_o10_o16_pcu_sym.89
_audit_creation_date              2020-01-03
_audit_creation_method            'Materials Studio'
_symmetry_space_group_name_H-M    'P1'
_symmetry_Int_Tables_number       1
_symmetry_cell_setting            triclinic
loop_
_symmetry_equiv_pos_as_xyz
  x,y,z
_cell_length_a                    32.5527
_cell_length_b                    32.5427
_cell_length_c                    30.8418
_cell_angle_alpha                 97.0815
_cell_angle_beta                  75.3812
_cell_angle_gamma                 98.6891
loop_
_atom_site_label
_atom_site_type_symbol
_atom_site_fract_x
_atom_site_fract_y
_atom_site_fract_z
_atom_site_U_iso_or_equiv
_atom_site_adp_type
_atom_site_occupancy
C1     C     0.05266   0.15937   0.25991   0.00000  Uiso   1.00
C2     C     0.18480   0.16444   0.05417   0.00000  Uiso   1.00
C3     C     0.19520   0.09479   0.06417   0.00000  Uiso   1.00
C4     C     0.28063   0.17413   0.24051   0.00000  Uiso   1.00
C5     C     0.13935   0.19111   0.42141   0.00000  Uiso   1.00
C6     C     0.32610   0.17878   0.23858   0.00000  Uiso   1.00
C7     C     0.00748   0.15610   0.26318   0.00000  Uiso   1.00
C8     C     0.18035   0.32239   0.23687   0.00000  Uiso   1.00
C9     C     0.15147   0.01162   0.26363   0.00000  Uiso   1.00
C10    C     0.15593   0.05575   0.26021   0.00000  Uiso   1.00
C11    C     0.17650   0.27784   0.24026   0.00000  Uiso   1.00
C12    C     0.11906   0.23714   0.48946   0.00000  Uiso   1.00
C13    C     0.18536   0.14735   0.12924   0.00000  Uiso   1.00
C14    C     0.14779   0.18397   0.37140   0.00000  Uiso   1.00
C15    C     0.19064   0.08146   0.02087   0.00000  Uiso   1.00
C16    C     0.19225   0.13638   0.08091   0.00000  Uiso   1.00
C17    C     0.12244   0.22771   0.44351   0.00000  Uiso   1.00
C18    C     0.18489   0.05489   0.42676   0.00000  Uiso   1.00
C19    C     0.15666   0.02871   0.40444   0.00000  Uiso   1.00
C20    C     0.17008   0.32693   0.37658   0.00000  Uiso   1.00
C21    C     0.21132   0.31689   0.37159   0.00000  Uiso   1.00
C22    C     0.23959   0.00917   0.39369   0.00000  Uiso   1.00
C23    C     0.13252   0.21126   0.01464   0.00000  Uiso   1.00
C24    C     0.22672   0.04497   0.42062   0.00000  Uiso   1.00
C25    C     0.06523   0.24915   0.42698   0.00000  Uiso   1.00
C26    C     0.05218   0.27506   0.39602   0.00000  Uiso   1.00
C27    C     0.11910   0.21965   0.06429   0.00000  Uiso   1.00
C28    C     0.09445   0.18830   0.09072   0.00000  Uiso   1.00
C29    C     0.08490   0.19495   0.13759   0.00000  Uiso   1.00
C30    C     0.09880   0.23325   0.15852   0.00000  Uiso   1.00
C31    C     0.12204   0.26512   0.13251   0.00000  Uiso   1.00
C32    C     0.13210   0.25848   0.08554   0.00000  Uiso   1.00
C33    C     0.15213   0.17526   0.49258   0.00000  Uiso   1.00
C34    C     0.14996   0.16282   0.44737   0.00000  Uiso   1.00
C35    C     0.17181   0.14994   0.01413   0.00000  Uiso   1.00
C36    C     0.17912   0.10871   0.49505   0.00000  Uiso   1.00
C37    C     0.17251   0.09510   0.45185   0.00000  Uiso   1.00
C38    C     0.15708   0.12183   0.42949   0.00000  Uiso   1.00
H39    H     0.20007   0.07241   0.08510   0.00000  Uiso   1.00
H40    H     0.12452   0.03593   0.40791   0.00000  Uiso   1.00
H41    H     0.14855   0.30755   0.35868   0.00000  Uiso   1.00
H42    H     0.22149   0.28949   0.35025   0.00000  Uiso   1.00
H43    H     0.27175   0.00168   0.38933   0.00000  Uiso   1.00
H44    H     0.24961   0.06533   0.43605   0.00000  Uiso   1.00
H45    H     0.04965   0.25927   0.46237   0.00000  Uiso   1.00
H46    H     0.05337   0.21575   0.41908   0.00000  Uiso   1.00
H47    H     0.06721   0.26560   0.36035   0.00000  Uiso   1.00
H48    H     0.01686   0.27019   0.40093   0.00000  Uiso   1.00
H49    H     0.06256   0.30870   0.40369   0.00000  Uiso   1.00
H50    H     0.31993   0.13297   0.28385   0.00000  Uiso   1.00
H51    H     0.08384   0.15831   0.07500   0.00000  Uiso   1.00
H52    H     0.06712   0.17012   0.15757   0.00000  Uiso   1.00
H53    H     0.09161   0.23825   0.19486   0.00000  Uiso   1.00
H54    H     0.13274   0.29479   0.14876   0.00000  Uiso   1.00
H55    H     0.15104   0.28308   0.06580   0.00000  Uiso   1.00
H56    H     0.20702   0.00364   0.21235   0.00000  Uiso   1.00
H57    H     0.12429   0.33113   0.28807   0.00000  Uiso   1.00
H58    H     0.19327   0.04902   0.00917   0.00000  Uiso   1.00
H59    H     0.18636   0.19690   0.06678   0.00000  Uiso   1.00
H60    H     0.10469   0.26470   0.00589   0.00000  Uiso   1.00
H61    H     0.14943   0.10926   0.39807   0.00000  Uiso   1.00
H62    H     0.01427   0.20090   0.21712   0.00000  Uiso   1.00
O63    O     0.16667   0.16667   0.25000   0.00000  Uiso   1.00
O64    O     0.15451   0.12637   0.15459   0.00000  Uiso   1.00
O65    O     0.12940   0.20391   0.34968   0.00000  Uiso   1.00
O66    O     0.20824   0.17759   0.14606   0.00000  Uiso   1.00
O67    O     0.17451   0.15880   0.34968   0.00000  Uiso   1.00
O68    O     0.11023   0.25539   0.42000   0.00000  Uiso   1.00
O69    O     0.17930   0.08019   0.28214   0.00000  Uiso   1.00
O70    O     0.14632   0.26085   0.27014   0.00000  Uiso   1.00
O71    O     0.07412   0.13291   0.23413   0.00000  Uiso   1.00
O72    O     0.26693   0.19272   0.21361   0.00000  Uiso   1.00
O73    O     0.07071   0.18878   0.28213   0.00000  Uiso   1.00
O74    O     0.25491   0.15226   0.27014   0.00000  Uiso   1.00
O75    O     0.13760   0.06944   0.23413   0.00000  Uiso   1.00
O76    O     0.20345   0.25620   0.21361   0.00000  Uiso   1.00
Zn77   Zn    0.19338   0.13994   0.28734   0.00000  Uiso   1.00
Zn78   Zn    0.13379   0.12458   0.21876   0.00000  Uiso   1.00
Zn79   Zn    0.21056   0.19775   0.20657   0.00000  Uiso   1.00
Zn80   Zn    0.12893   0.20439   0.28734   0.00000  Uiso   1.00
C81    C     0.38600   0.15937   0.25991   0.00000  Uiso   1.00
C82    C     0.51814   0.16444   0.05417   0.00000  Uiso   1.00
C83    C     0.52853   0.09479   0.06417   0.00000  Uiso   1.00
C84    C     0.61396   0.17413   0.24051   0.00000  Uiso   1.00
C85    C     0.47268   0.19111   0.42141   0.00000  Uiso   1.00
C86    C     0.65943   0.17878   0.23858   0.00000  Uiso   1.00
C87    C     0.34081   0.15610   0.26318   0.00000  Uiso   1.00
C88    C     0.51369   0.32239   0.23687   0.00000  Uiso   1.00
C89    C     0.48480   0.01162   0.26363   0.00000  Uiso   1.00
C90    C     0.48927   0.05575   0.26021   0.00000  Uiso   1.00
C91    C     0.50983   0.27784   0.24026   0.00000  Uiso   1.00
C92    C     0.45240   0.23714   0.48946   0.00000  Uiso   1.00
C93    C     0.51869   0.14735   0.12924   0.00000  Uiso   1.00
C94    C     0.48112   0.18397   0.37140   0.00000  Uiso   1.00
C95    C     0.52397   0.08146   0.02087   0.00000  Uiso   1.00
C96    C     0.52558   0.13638   0.08091   0.00000  Uiso   1.00
C97    C     0.45577   0.22771   0.44351   0.00000  Uiso   1.00
C98    C     0.51822   0.05489   0.42676   0.00000  Uiso   1.00
C99    C     0.48999   0.02871   0.40444   0.00000  Uiso   1.00
C100   C     0.50342   0.32693   0.37658   0.00000  Uiso   1.00
C101   C     0.54466   0.31689   0.37159   0.00000  Uiso   1.00
C102   C     0.57292   0.00917   0.39369   0.00000  Uiso   1.00
C103   C     0.46586   0.21126   0.01464   0.00000  Uiso   1.00
C104   C     0.56005   0.04497   0.42062   0.00000  Uiso   1.00
C105   C     0.39856   0.24915   0.42698   0.00000  Uiso   1.00
C106   C     0.38552   0.27506   0.39602   0.00000  Uiso   1.00
C107   C     0.45243   0.21965   0.06429   0.00000  Uiso   1.00
C108   C     0.42779   0.18830   0.09072   0.00000  Uiso   1.00
C109   C     0.41823   0.19495   0.13759   0.00000  Uiso   1.00
C110   C     0.43213   0.23325   0.15852   0.00000  Uiso   1.00
C111   C     0.45538   0.26512   0.13251   0.00000  Uiso   1.00
C112   C     0.46543   0.25848   0.08554   0.00000  Uiso   1.00
C113   C     0.48546   0.17526   0.49258   0.00000  Uiso   1.00
C114   C     0.48330   0.16282   0.44737   0.00000  Uiso   1.00
C115   C     0.50515   0.14994   0.01413   0.00000  Uiso   1.00
C116   C     0.51245   0.10871   0.49505   0.00000  Uiso   1.00
C117   C     0.50585   0.09510   0.45185   0.00000  Uiso   1.00
C118   C     0.49041   0.12183   0.42949   0.00000  Uiso   1.00
H119   H     0.53341   0.07241   0.08510   0.00000  Uiso   1.00
H120   H     0.45786   0.03593   0.40791   0.00000  Uiso   1.00
H121   H     0.48188   0.30755   0.35868   0.00000  Uiso   1.00
H122   H     0.55482   0.28949   0.35025   0.00000  Uiso   1.00
H123   H     0.60509   0.00168   0.38933   0.00000  Uiso   1.00
H124   H     0.58294   0.06533   0.43605   0.00000  Uiso   1.00
H125   H     0.38299   0.25927   0.46237   0.00000  Uiso   1.00
H126   H     0.38670   0.21575   0.41908   0.00000  Uiso   1.00
H127   H     0.40055   0.26560   0.36035   0.00000  Uiso   1.00
H128   H     0.35019   0.27019   0.40093   0.00000  Uiso   1.00
H129   H     0.39589   0.30870   0.40369   0.00000  Uiso   1.00
H130   H     0.65326   0.13297   0.28385   0.00000  Uiso   1.00
H131   H     0.41717   0.15831   0.07500   0.00000  Uiso   1.00
H132   H     0.40046   0.17012   0.15757   0.00000  Uiso   1.00
H133   H     0.42495   0.23825   0.19486   0.00000  Uiso   1.00
H134   H     0.46608   0.29479   0.14876   0.00000  Uiso   1.00
H135   H     0.48437   0.28308   0.06580   0.00000  Uiso   1.00
H136   H     0.54035   0.00364   0.21235   0.00000  Uiso   1.00
H137   H     0.45762   0.33113   0.28807   0.00000  Uiso   1.00
H138   H     0.52660   0.04902   0.00917   0.00000  Uiso   1.00
H139   H     0.51969   0.19690   0.06678   0.00000  Uiso   1.00
H140   H     0.43802   0.26470   0.00589   0.00000  Uiso   1.00
H141   H     0.48277   0.10926   0.39807   0.00000  Uiso   1.00
H142   H     0.34760   0.20090   0.21712   0.00000  Uiso   1.00
O143   O     0.50000   0.16667   0.25000   0.00000  Uiso   1.00
O144   O     0.48784   0.12637   0.15459   0.00000  Uiso   1.00
O145   O     0.46274   0.20391   0.34968   0.00000  Uiso   1.00
O146   O     0.54157   0.17759   0.14606   0.00000  Uiso   1.00
O147   O     0.50785   0.15880   0.34968   0.00000  Uiso   1.00
O148   O     0.44356   0.25539   0.42000   0.00000  Uiso   1.00
O149   O     0.51264   0.08019   0.28214   0.00000  Uiso   1.00
O150   O     0.47965   0.26085   0.27014   0.00000  Uiso   1.00
O151   O     0.40745   0.13291   0.23413   0.00000  Uiso   1.00
O152   O     0.60026   0.19272   0.21361   0.00000  Uiso   1.00
O153   O     0.40405   0.18878   0.28213   0.00000  Uiso   1.00
O154   O     0.58824   0.15226   0.27014   0.00000  Uiso   1.00
O155   O     0.47093   0.06944   0.23413   0.00000  Uiso   1.00
O156   O     0.53678   0.25620   0.21361   0.00000  Uiso   1.00
Zn157  Zn    0.52672   0.13994   0.28734   0.00000  Uiso   1.00
Zn158  Zn    0.46713   0.12458   0.21876   0.00000  Uiso   1.00
Zn159  Zn    0.54389   0.19775   0.20657   0.00000  Uiso   1.00
Zn160  Zn    0.46226   0.20439   0.28734   0.00000  Uiso   1.00
C161   C     0.71933   0.15937   0.25991   0.00000  Uiso   1.00
C162   C     0.85147   0.16444   0.05417   0.00000  Uiso   1.00
C163   C     0.86186   0.09479   0.06417   0.00000  Uiso   1.00
C164   C     0.94729   0.17413   0.24051   0.00000  Uiso   1.00
C165   C     0.80601   0.19111   0.42141   0.00000  Uiso   1.00
C166   C     0.99276   0.17878   0.23858   0.00000  Uiso   1.00
C167   C     0.67414   0.15610   0.26318   0.00000  Uiso   1.00
C168   C     0.84702   0.32239   0.23687   0.00000  Uiso   1.00
C169   C     0.81814   0.01162   0.26363   0.00000  Uiso   1.00
C170   C     0.82260   0.05575   0.26021   0.00000  Uiso   1.00
C171   C     0.84316   0.27784   0.24026   0.00000  Uiso   1.00
C172   C     0.78573   0.23714   0.48946   0.00000  Uiso   1.00
C173   C     0.85203   0.14735   0.12924   0.00000  Uiso   1.00
C174   C     0.81446   0.18397   0.37140   0.00000  Uiso   1.00
C175   C     0.85731   0.08146   0.02087   0.00000  Uiso   1.00
C176   C     0.85892   0.13638   0.08091   0.00000  Uiso   1.00
C177   C     0.78910   0.22771   0.44351   0.00000  Uiso   1.00
C178   C     0.85155   0.05489   0.42676   0.00000  Uiso   1.00
C179   C     0.82332   0.02871   0.40444   0.00000  Uiso   1.00
C180   C     0.83675   0.32693   0.37658   0.00000  Uiso   1.00
C181   C     0.87799   0.31689   0.37159   0.00000  Uiso   1.00
C182   C     0.90626   0.00917   0.39369   0.00000  Uiso   1.00
C183   C     0.79919   0.21126   0.01464   0.00000  Uiso   1.00
C184   C     0.89338   0.04497   0.42062   0.00000  Uiso   1.00
C185   C     0.73189   0.24915   0.42698   0.00000  Uiso   1.00
C186   C     0.71885   0.27506   0.39602   0.00000  Uiso   1.00
C187   C     0.78576   0.21965   0.06429   0.00000  Uiso   1.00
C188   C     0.76112   0.18830   0.09072   0.00000  Uiso   1.00
C189   C     0.75156   0.19495   0.13759   0.00000  Uiso   1.00
C190   C     0.76546   0.23325   0.15852   0.00000  Uiso   1.00
C191   C     0.78871   0.26512   0.13251   0.00000  Uiso   1.00
C192   C     0.79877   0.25848   0.08554   0.00000  Uiso   1.00
C193   C     0.81879   0.17526   0.49258   0.00000  Uiso   1.00
C194   C     0.81663   0.16282   0.44737   0.00000  Uiso   1.00
C195   C     0.83848   0.14994   0.01413   0.00000  Uiso   1.00
C196   C     0.84578   0.10871   0.49505   0.00000  Uiso   1.00
C197   C     0.83918   0.09510   0.45185   0.00000  Uiso   1.00
C198   C     0.82375   0.12183   0.42949   0.00000  Uiso   1.00
H199   H     0.86674   0.07241   0.08510   0.00000  Uiso   1.00
H200   H     0.79119   0.03593   0.40791   0.00000  Uiso   1.00
H201   H     0.81521   0.30755   0.35868   0.00000  Uiso   1.00
H202   H     0.88815   0.28949   0.35025   0.00000  Uiso   1.00
H203   H     0.93842   0.00168   0.38933   0.00000  Uiso   1.00
H204   H     0.91628   0.06533   0.43605   0.00000  Uiso   1.00
H205   H     0.71632   0.25927   0.46237   0.00000  Uiso   1.00
H206   H     0.72003   0.21575   0.41908   0.00000  Uiso   1.00
H207   H     0.73388   0.26560   0.36035   0.00000  Uiso   1.00
H208   H     0.68353   0.27019   0.40093   0.00000  Uiso   1.00
H209   H     0.72922   0.30870   0.40369   0.00000  Uiso   1.00
H210   H     0.98659   0.13297   0.28385   0.00000  Uiso   1.00
H211   H     0.75051   0.15831   0.07500   0.00000  Uiso   1.00
H212   H     0.73379   0.17012   0.15757   0.00000  Uiso   1.00
H213   H     0.75828   0.23825   0.19486   0.00000  Uiso   1.00
H214   H     0.79941   0.29479   0.14876   0.00000  Uiso   1.00
H215   H     0.81770   0.28308   0.06580   0.00000  Uiso   1.00
H216   H     0.87368   0.00364   0.21235   0.00000  Uiso   1.00
H217   H     0.79095   0.33113   0.28807   0.00000  Uiso   1.00
H218   H     0.85994   0.04902   0.00917   0.00000  Uiso   1.00
H219   H     0.85302   0.19690   0.06678   0.00000  Uiso   1.00
H220   H     0.77135   0.26470   0.00589   0.00000  Uiso   1.00
H221   H     0.81610   0.10926   0.39807   0.00000  Uiso   1.00
H222   H     0.68094   0.20090   0.21712   0.00000  Uiso   1.00
O223   O     0.83333   0.16667   0.25000   0.00000  Uiso   1.00
O224   O     0.82118   0.12637   0.15459   0.00000  Uiso   1.00
O225   O     0.79607   0.20391   0.34968   0.00000  Uiso   1.00
O226   O     0.87491   0.17759   0.14606   0.00000  Uiso   1.00
O227   O     0.84118   0.15880   0.34968   0.00000  Uiso   1.00
O228   O     0.77690   0.25539   0.42000   0.00000  Uiso   1.00
O229   O     0.84597   0.08019   0.28214   0.00000  Uiso   1.00
O230   O     0.81298   0.26085   0.27014   0.00000  Uiso   1.00
O231   O     0.74078   0.13291   0.23413   0.00000  Uiso   1.00
O232   O     0.93360   0.19272   0.21361   0.00000  Uiso   1.00
O233   O     0.73738   0.18878   0.28213   0.00000  Uiso   1.00
O234   O     0.92158   0.15226   0.27014   0.00000  Uiso   1.00
O235   O     0.80426   0.06944   0.23413   0.00000  Uiso   1.00
O236   O     0.87012   0.25620   0.21361   0.00000  Uiso   1.00
Zn237  Zn    0.86005   0.13994   0.28734   0.00000  Uiso   1.00
Zn238  Zn    0.80046   0.12458   0.21876   0.00000  Uiso   1.00
Zn239  Zn    0.87723   0.19775   0.20657   0.00000  Uiso   1.00
Zn240  Zn    0.79560   0.20439   0.28734   0.00000  Uiso   1.00
C241   C     0.05266   0.49271   0.25991   0.00000  Uiso   1.00
C242   C     0.18480   0.49778   0.05417   0.00000  Uiso   1.00
C243   C     0.19520   0.42812   0.06417   0.00000  Uiso   1.00
C244   C     0.28063   0.50746   0.24051   0.00000  Uiso   1.00
C245   C     0.13935   0.52444   0.42141   0.00000  Uiso   1.00
C246   C     0.32610   0.51211   0.23858   0.00000  Uiso   1.00
C247   C     0.00748   0.48943   0.26318   0.00000  Uiso   1.00
C248   C     0.18035   0.65572   0.23687   0.00000  Uiso   1.00
C249   C     0.15147   0.34495   0.26363   0.00000  Uiso   1.00
C250   C     0.15593   0.38908   0.26021   0.00000  Uiso   1.00
C251   C     0.17650   0.61117   0.24026   0.00000  Uiso   1.00
C252   C     0.11906   0.57047   0.48946   0.00000  Uiso   1.00
C253   C     0.18536   0.48068   0.12924   0.00000  Uiso   1.00
C254   C     0.14779   0.51731   0.37140   0.00000  Uiso   1.00
C255   C     0.19064   0.41480   0.02087   0.00000  Uiso   1.00
C256   C     0.19225   0.46972   0.08091   0.00000  Uiso   1.00
C257   C     0.12244   0.56104   0.44351   0.00000  Uiso   1.00
C258   C     0.18489   0.38822   0.42676   0.00000  Uiso   1.00
C259   C     0.15666   0.36205   0.40444   0.00000  Uiso   1.00
C260   C     0.17008   0.66026   0.37658   0.00000  Uiso   1.00
C261   C     0.21132   0.65022   0.37159   0.00000  Uiso   1.00
C262   C     0.23959   0.34250   0.39369   0.00000  Uiso   1.00
C263   C     0.13252   0.54459   0.01464   0.00000  Uiso   1.00
C264   C     0.22672   0.37830   0.42062   0.00000  Uiso   1.00
C265   C     0.06523   0.58248   0.42698   0.00000  Uiso   1.00
C266   C     0.05218   0.60840   0.39602   0.00000  Uiso   1.00
C267   C     0.11910   0.55299   0.06429   0.00000  Uiso   1.00
C268   C     0.09445   0.52164   0.09072   0.00000  Uiso   1.00
C269   C     0.08490   0.52828   0.13759   0.00000  Uiso   1.00
C270   C     0.09880   0.56659   0.15852   0.00000  Uiso   1.00
C271   C     0.12204   0.59845   0.13251   0.00000  Uiso   1.00
C272   C     0.13210   0.59181   0.08554   0.00000  Uiso   1.00
C273   C     0.15213   0.50860   0.49258   0.00000  Uiso   1.00
C274   C     0.14996   0.49615   0.44737   0.00000  Uiso   1.00
C275   C     0.17181   0.48327   0.01413   0.00000  Uiso   1.00
C276   C     0.17912   0.44204   0.49505   0.00000  Uiso   1.00
C277   C     0.17251   0.42843   0.45185   0.00000  Uiso   1.00
C278   C     0.15708   0.45516   0.42949   0.00000  Uiso   1.00
H279   H     0.20007   0.40574   0.08510   0.00000  Uiso   1.00
H280   H     0.12452   0.36926   0.40791   0.00000  Uiso   1.00
H281   H     0.14855   0.64088   0.35868   0.00000  Uiso   1.00
H282   H     0.22149   0.62283   0.35025   0.00000  Uiso   1.00
H283   H     0.27175   0.33501   0.38933   0.00000  Uiso   1.00
H284   H     0.24961   0.39866   0.43605   0.00000  Uiso   1.00
H285   H     0.04965   0.59261   0.46237   0.00000  Uiso   1.00
H286   H     0.05337   0.54908   0.41908   0.00000  Uiso   1.00
H287   H     0.06721   0.59894   0.36035   0.00000  Uiso   1.00
H288   H     0.01686   0.60352   0.40093   0.00000  Uiso   1.00
H289   H     0.06256   0.64203   0.40369   0.00000  Uiso   1.00
H290   H     0.31993   0.46630   0.28385   0.00000  Uiso   1.00
H291   H     0.08384   0.49164   0.07500   0.00000  Uiso   1.00
H292   H     0.06712   0.50346   0.15757   0.00000  Uiso   1.00
H293   H     0.09161   0.57158   0.19486   0.00000  Uiso   1.00
H294   H     0.13274   0.62813   0.14876   0.00000  Uiso   1.00
H295   H     0.15104   0.61641   0.06580   0.00000  Uiso   1.00
H296   H     0.20702   0.33698   0.21235   0.00000  Uiso   1.00
H297   H     0.12429   0.66446   0.28807   0.00000  Uiso   1.00
H298   H     0.19327   0.38235   0.00917   0.00000  Uiso   1.00
H299   H     0.18636   0.53023   0.06678   0.00000  Uiso   1.00
H300   H     0.10469   0.59804   0.00589   0.00000  Uiso   1.00
H301   H     0.14943   0.44260   0.39807   0.00000  Uiso   1.00
H302   H     0.01427   0.53423   0.21712   0.00000  Uiso   1.00
O303   O     0.16667   0.50000   0.25000   0.00000  Uiso   1.00
O304   O     0.15451   0.45970   0.15459   0.00000  Uiso   1.00
O305   O     0.12940   0.53724   0.34968   0.00000  Uiso   1.00
O306   O     0.20824   0.51092   0.14606   0.00000  Uiso   1.00
O307   O     0.17451   0.49213   0.34968   0.00000  Uiso   1.00
O308   O     0.11023   0.58873   0.42000   0.00000  Uiso   1.00
O309   O     0.17930   0.41352   0.28214   0.00000  Uiso   1.00
O310   O     0.14632   0.59418   0.27014   0.00000  Uiso   1.00
O311   O     0.07412   0.46625   0.23413   0.00000  Uiso   1.00
O312   O     0.26693   0.52605   0.21361   0.00000  Uiso   1.00
O313   O     0.07071   0.52211   0.28213   0.00000  Uiso   1.00
O314   O     0.25491   0.48559   0.27014   0.00000  Uiso   1.00
O315   O     0.13760   0.40277   0.23413   0.00000  Uiso   1.00
O316   O     0.20345   0.58953   0.21361   0.00000  Uiso   1.00
Zn317  Zn    0.19338   0.47327   0.28734   0.00000  Uiso   1.00
Zn318  Zn    0.13379   0.45791   0.21876   0.00000  Uiso   1.00
Zn319  Zn    0.21056   0.53109   0.20657   0.00000  Uiso   1.00
Zn320  Zn    0.12893   0.53773   0.28734   0.00000  Uiso   1.00
C321   C     0.38600   0.49271   0.25991   0.00000  Uiso   1.00
C322   C     0.51814   0.49778   0.05417   0.00000  Uiso   1.00
C323   C     0.52853   0.42812   0.06417   0.00000  Uiso   1.00
C324   C     0.61396   0.50746   0.24051   0.00000  Uiso   1.00
C325   C     0.47268   0.52444   0.42141   0.00000  Uiso   1.00
C326   C     0.65943   0.51211   0.23858   0.00000  Uiso   1.00
C327   C     0.34081   0.48943   0.26318   0.00000  Uiso   1.00
C328   C     0.51369   0.65572   0.23687   0.00000  Uiso   1.00
C329   C     0.48480   0.34495   0.26363   0.00000  Uiso   1.00
C330   C     0.48927   0.38908   0.26021   0.00000  Uiso   1.00
C331   C     0.50983   0.61117   0.24026   0.00000  Uiso   1.00
C332   C     0.45240   0.57047   0.48946   0.00000  Uiso   1.00
C333   C     0.51869   0.48068   0.12924   0.00000  Uiso   1.00
C334   C     0.48112   0.51731   0.37140   0.00000  Uiso   1.00
C335   C     0.52397   0.41480   0.02087   0.00000  Uiso   1.00
C336   C     0.52558   0.46972   0.08091   0.00000  Uiso   1.00
C337   C     0.45577   0.56104   0.44351   0.00000  Uiso   1.00
C338   C     0.51822   0.38822   0.42676   0.00000  Uiso   1.00
C339   C     0.48999   0.36205   0.40444   0.00000  Uiso   1.00
C340   C     0.50342   0.66026   0.37658   0.00000  Uiso   1.00
C341   C     0.54466   0.65022   0.37159   0.00000  Uiso   1.00
C342   C     0.57292   0.34250   0.39369   0.00000  Uiso   1.00
C343   C     0.46586   0.54459   0.01464   0.00000  Uiso   1.00
C344   C     0.56005   0.37830   0.42062   0.00000  Uiso   1.00
C345   C     0.39856   0.58248   0.42698   0.00000  Uiso   1.00
C346   C     0.38552   0.60840   0.39602   0.00000  Uiso   1.00
C347   C     0.45243   0.55299   0.06429   0.00000  Uiso   1.00
C348   C     0.42779   0.52164   0.09072   0.00000  Uiso   1.00
C349   C     0.41823   0.52828   0.13759   0.00000  Uiso   1.00
C350   C     0.43213   0.56659   0.15852   0.00000  Uiso   1.00
C351   C     0.45538   0.59845   0.13251   0.00000  Uiso   1.00
C352   C     0.46543   0.59181   0.08554   0.00000  Uiso   1.00
C353   C     0.48546   0.50860   0.49258   0.00000  Uiso   1.00
C354   C     0.48330   0.49615   0.44737   0.00000  Uiso   1.00
C355   C     0.50515   0.48327   0.01413   0.00000  Uiso   1.00
C356   C     0.51245   0.44204   0.49505   0.00000  Uiso   1.00
C357   C     0.50585   0.42843   0.45185   0.00000  Uiso   1.00
C358   C     0.49041   0.45516   0.42949   0.00000  Uiso   1.00
H359   H     0.53341   0.40574   0.08510   0.00000  Uiso   1.00
H360   H     0.45786   0.36926   0.40791   0.00000  Uiso   1.00
H361   H     0.48188   0.64088   0.35868   0.00000  Uiso   1.00
H362   H     0.55482   0.62283   0.35025   0.00000  Uiso   1.00
H363   H     0.60509   0.33501   0.38933   0.00000  Uiso   1.00
H364   H     0.58294   0.39866   0.43605   0.00000  Uiso   1.00
H365   H     0.38299   0.59261   0.46237   0.00000  Uiso   1.00
H366   H     0.38670   0.54908   0.41908   0.00000  Uiso   1.00
H367   H     0.40055   0.59894   0.36035   0.00000  Uiso   1.00
H368   H     0.35019   0.60352   0.40093   0.00000  Uiso   1.00
H369   H     0.39589   0.64203   0.40369   0.00000  Uiso   1.00
H370   H     0.65326   0.46630   0.28385   0.00000  Uiso   1.00
H371   H     0.41717   0.49164   0.07500   0.00000  Uiso   1.00
H372   H     0.40046   0.50346   0.15757   0.00000  Uiso   1.00
H373   H     0.42495   0.57158   0.19486   0.00000  Uiso   1.00
H374   H     0.46608   0.62813   0.14876   0.00000  Uiso   1.00
H375   H     0.48437   0.61641   0.06580   0.00000  Uiso   1.00
H376   H     0.54035   0.33698   0.21235   0.00000  Uiso   1.00
H377   H     0.45762   0.66446   0.28807   0.00000  Uiso   1.00
H378   H     0.52660   0.38235   0.00917   0.00000  Uiso   1.00
H379   H     0.51969   0.53023   0.06678   0.00000  Uiso   1.00
H380   H     0.43802   0.59804   0.00589   0.00000  Uiso   1.00
H381   H     0.48277   0.44260   0.39807   0.00000  Uiso   1.00
H382   H     0.34760   0.53423   0.21712   0.00000  Uiso   1.00
O383   O     0.50000   0.50000   0.25000   0.00000  Uiso   1.00
O384   O     0.48784   0.45970   0.15459   0.00000  Uiso   1.00
O385   O     0.46274   0.53724   0.34968   0.00000  Uiso   1.00
O386   O     0.54157   0.51092   0.14606   0.00000  Uiso   1.00
O387   O     0.50785   0.49213   0.34968   0.00000  Uiso   1.00
O388   O     0.44356   0.58873   0.42000   0.00000  Uiso   1.00
O389   O     0.51264   0.41352   0.28214   0.00000  Uiso   1.00
O390   O     0.47965   0.59418   0.27014   0.00000  Uiso   1.00
O391   O     0.40745   0.46625   0.23413   0.00000  Uiso   1.00
O392   O     0.60026   0.52605   0.21361   0.00000  Uiso   1.00
O393   O     0.40405   0.52211   0.28213   0.00000  Uiso   1.00
O394   O     0.58824   0.48559   0.27014   0.00000  Uiso   1.00
O395   O     0.47093   0.40277   0.23413   0.00000  Uiso   1.00
O396   O     0.53678   0.58953   0.21361   0.00000  Uiso   1.00
Zn397  Zn    0.52672   0.47327   0.28734   0.00000  Uiso   1.00
Zn398  Zn    0.46713   0.45791   0.21876   0.00000  Uiso   1.00
Zn399  Zn    0.54389   0.53109   0.20657   0.00000  Uiso   1.00
Zn400  Zn    0.46226   0.53773   0.28734   0.00000  Uiso   1.00
C401   C     0.71933   0.49271   0.25991   0.00000  Uiso   1.00
C402   C     0.85147   0.49778   0.05417   0.00000  Uiso   1.00
C403   C     0.86186   0.42812   0.06417   0.00000  Uiso   1.00
C404   C     0.94729   0.50746   0.24051   0.00000  Uiso   1.00
C405   C     0.80601   0.52444   0.42141   0.00000  Uiso   1.00
C406   C     0.99276   0.51211   0.23858   0.00000  Uiso   1.00
C407   C     0.67414   0.48943   0.26318   0.00000  Uiso   1.00
C408   C     0.84702   0.65572   0.23687   0.00000  Uiso   1.00
C409   C     0.81814   0.34495   0.26363   0.00000  Uiso   1.00
C410   C     0.82260   0.38908   0.26021   0.00000  Uiso   1.00
C411   C     0.84316   0.61117   0.24026   0.00000  Uiso   1.00
C412   C     0.78573   0.57047   0.48946   0.00000  Uiso   1.00
C413   C     0.85203   0.48068   0.12924   0.00000  Uiso   1.00
C414   C     0.81446   0.51731   0.37140   0.00000  Uiso   1.00
C415   C     0.85731   0.41480   0.02087   0.00000  Uiso   1.00
C416   C     0.85892   0.46972   0.08091   0.00000  Uiso   1.00
C417   C     0.78910   0.56104   0.44351   0.00000  Uiso   1.00
C418   C     0.85155   0.38822   0.42676   0.00000  Uiso   1.00
C419   C     0.82332   0.36205   0.40444   0.00000  Uiso   1.00
C420   C     0.83675   0.66026   0.37658   0.00000  Uiso   1.00
C421   C     0.87799   0.65022   0.37159   0.00000  Uiso   1.00
C422   C     0.90626   0.34250   0.39369   0.00000  Uiso   1.00
C423   C     0.79919   0.54459   0.01464   0.00000  Uiso   1.00
C424   C     0.89338   0.37830   0.42062   0.00000  Uiso   1.00
C425   C     0.73189   0.58248   0.42698   0.00000  Uiso   1.00
C426   C     0.71885   0.60840   0.39602   0.00000  Uiso   1.00
C427   C     0.78576   0.55299   0.06429   0.00000  Uiso   1.00
C428   C     0.76112   0.52164   0.09072   0.00000  Uiso   1.00
C429   C     0.75156   0.52828   0.13759   0.00000  Uiso   1.00
C430   C     0.76546   0.56659   0.15852   0.00000  Uiso   1.00
C431   C     0.78871   0.59845   0.13251   0.00000  Uiso   1.00
C432   C     0.79877   0.59181   0.08554   0.00000  Uiso   1.00
C433   C     0.81879   0.50860   0.49258   0.00000  Uiso   1.00
C434   C     0.81663   0.49615   0.44737   0.00000  Uiso   1.00
C435   C     0.83848   0.48327   0.01413   0.00000  Uiso   1.00
C436   C     0.84578   0.44204   0.49505   0.00000  Uiso   1.00
C437   C     0.83918   0.42843   0.45185   0.00000  Uiso   1.00
C438   C     0.82375   0.45516   0.42949   0.00000  Uiso   1.00
H439   H     0.86674   0.40574   0.08510   0.00000  Uiso   1.00
H440   H     0.79119   0.36926   0.40791   0.00000  Uiso   1.00
H441   H     0.81521   0.64088   0.35868   0.00000  Uiso   1.00
H442   H     0.88815   0.62283   0.35025   0.00000  Uiso   1.00
H443   H     0.93842   0.33501   0.38933   0.00000  Uiso   1.00
H444   H     0.91628   0.39866   0.43605   0.00000  Uiso   1.00
H445   H     0.71632   0.59261   0.46237   0.00000  Uiso   1.00
H446   H     0.72003   0.54908   0.41908   0.00000  Uiso   1.00
H447   H     0.73388   0.59894   0.36035   0.00000  Uiso   1.00
H448   H     0.68353   0.60352   0.40093   0.00000  Uiso   1.00
H449   H     0.72922   0.64203   0.40369   0.00000  Uiso   1.00
H450   H     0.98659   0.46630   0.28385   0.00000  Uiso   1.00
H451   H     0.75051   0.49164   0.07500   0.00000  Uiso   1.00
H452   H     0.73379   0.50346   0.15757   0.00000  Uiso   1.00
H453   H     0.75828   0.57158   0.19486   0.00000  Uiso   1.00
H454   H     0.79941   0.62813   0.14876   0.00000  Uiso   1.00
H455   H     0.81770   0.61641   0.06580   0.00000  Uiso   1.00
H456   H     0.87368   0.33698   0.21235   0.00000  Uiso   1.00
H457   H     0.79095   0.66446   0.28807   0.00000  Uiso   1.00
H458   H     0.85994   0.38235   0.00917   0.00000  Uiso   1.00
H459   H     0.85302   0.53023   0.06678   0.00000  Uiso   1.00
H460   H     0.77135   0.59804   0.00589   0.00000  Uiso   1.00
H461   H     0.81610   0.44260   0.39807   0.00000  Uiso   1.00
H462   H     0.68094   0.53423   0.21712   0.00000  Uiso   1.00
O463   O     0.83333   0.50000   0.25000   0.00000  Uiso   1.00
O464   O     0.82118   0.45970   0.15459   0.00000  Uiso   1.00
O465   O     0.79607   0.53724   0.34968   0.00000  Uiso   1.00
O466   O     0.87491   0.51092   0.14606   0.00000  Uiso   1.00
O467   O     0.84118   0.49213   0.34968   0.00000  Uiso   1.00
O468   O     0.77690   0.58873   0.42000   0.00000  Uiso   1.00
O469   O     0.84597   0.41352   0.28214   0.00000  Uiso   1.00
O470   O     0.81298   0.59418   0.27014   0.00000  Uiso   1.00
O471   O     0.74078   0.46625   0.23413   0.00000  Uiso   1.00
O472   O     0.93360   0.52605   0.21361   0.00000  Uiso   1.00
O473   O     0.73738   0.52211   0.28213   0.00000  Uiso   1.00
O474   O     0.92158   0.48559   0.27014   0.00000  Uiso   1.00
O475   O     0.80426   0.40277   0.23413   0.00000  Uiso   1.00
O476   O     0.87012   0.58953   0.21361   0.00000  Uiso   1.00
Zn477  Zn    0.86005   0.47327   0.28734   0.00000  Uiso   1.00
Zn478  Zn    0.80046   0.45791   0.21876   0.00000  Uiso   1.00
Zn479  Zn    0.87723   0.53109   0.20657   0.00000  Uiso   1.00
Zn480  Zn    0.79560   0.53773   0.28734   0.00000  Uiso   1.00
C481   C     0.05266   0.82604   0.25991   0.00000  Uiso   1.00
C482   C     0.18480   0.83111   0.05417   0.00000  Uiso   1.00
C483   C     0.19520   0.76145   0.06417   0.00000  Uiso   1.00
C484   C     0.28063   0.84080   0.24051   0.00000  Uiso   1.00
C485   C     0.13935   0.85777   0.42141   0.00000  Uiso   1.00
C486   C     0.32610   0.84544   0.23858   0.00000  Uiso   1.00
C487   C     0.00748   0.82276   0.26318   0.00000  Uiso   1.00
C488   C     0.18035   0.98906   0.23687   0.00000  Uiso   1.00
C489   C     0.15147   0.67828   0.26363   0.00000  Uiso   1.00
C490   C     0.15593   0.72242   0.26021   0.00000  Uiso   1.00
C491   C     0.17650   0.94451   0.24026   0.00000  Uiso   1.00
C492   C     0.11906   0.90380   0.48946   0.00000  Uiso   1.00
C493   C     0.18536   0.81402   0.12924   0.00000  Uiso   1.00
C494   C     0.14779   0.85064   0.37140   0.00000  Uiso   1.00
C495   C     0.19064   0.74813   0.02087   0.00000  Uiso   1.00
C496   C     0.19225   0.80305   0.08091   0.00000  Uiso   1.00
C497   C     0.12244   0.89438   0.44351   0.00000  Uiso   1.00
C498   C     0.18489   0.72156   0.42676   0.00000  Uiso   1.00
C499   C     0.15666   0.69538   0.40444   0.00000  Uiso   1.00
C500   C     0.17008   0.99359   0.37658   0.00000  Uiso   1.00
C501   C     0.21132   0.98355   0.37159   0.00000  Uiso   1.00
C502   C     0.23959   0.67583   0.39369   0.00000  Uiso   1.00
C503   C     0.13252   0.87793   0.01464   0.00000  Uiso   1.00
C504   C     0.22672   0.71164   0.42062   0.00000  Uiso   1.00
C505   C     0.06523   0.91581   0.42698   0.00000  Uiso   1.00
C506   C     0.05218   0.94173   0.39602   0.00000  Uiso   1.00
C507   C     0.11910   0.88632   0.06429   0.00000  Uiso   1.00
C508   C     0.09445   0.85497   0.09072   0.00000  Uiso   1.00
C509   C     0.08490   0.86161   0.13759   0.00000  Uiso   1.00
C510   C     0.09880   0.89992   0.15852   0.00000  Uiso   1.00
C511   C     0.12204   0.93179   0.13251   0.00000  Uiso   1.00
C512   C     0.13210   0.92514   0.08554   0.00000  Uiso   1.00
C513   C     0.15213   0.84193   0.49258   0.00000  Uiso   1.00
C514   C     0.14996   0.82949   0.44737   0.00000  Uiso   1.00
C515   C     0.17181   0.81661   0.01413   0.00000  Uiso   1.00
C516   C     0.17912   0.77537   0.49505   0.00000  Uiso   1.00
C517   C     0.17251   0.76176   0.45185   0.00000  Uiso   1.00
C518   C     0.15708   0.78850   0.42949   0.00000  Uiso   1.00
H519   H     0.20007   0.73908   0.08510   0.00000  Uiso   1.00
H520   H     0.12452   0.70260   0.40791   0.00000  Uiso   1.00
H521   H     0.14855   0.97421   0.35868   0.00000  Uiso   1.00
H522   H     0.22149   0.95616   0.35025   0.00000  Uiso   1.00
H523   H     0.27175   0.66835   0.38933   0.00000  Uiso   1.00
H524   H     0.24961   0.73199   0.43605   0.00000  Uiso   1.00
H525   H     0.04965   0.92594   0.46237   0.00000  Uiso   1.00
H526   H     0.05337   0.88242   0.41908   0.00000  Uiso   1.00
H527   H     0.06721   0.93227   0.36035   0.00000  Uiso   1.00
H528   H     0.01686   0.93685   0.40093   0.00000  Uiso   1.00
H529   H     0.06256   0.97537   0.40369   0.00000  Uiso   1.00
H530   H     0.31993   0.79963   0.28385   0.00000  Uiso   1.00
H531   H     0.08384   0.82497   0.07500   0.00000  Uiso   1.00
H532   H     0.06712   0.83679   0.15757   0.00000  Uiso   1.00
H533   H     0.09161   0.90491   0.19486   0.00000  Uiso   1.00
H534   H     0.13274   0.96146   0.14876   0.00000  Uiso   1.00
H535   H     0.15104   0.94974   0.06580   0.00000  Uiso   1.00
H536   H     0.20702   0.67031   0.21235   0.00000  Uiso   1.00
H537   H     0.12429   0.99779   0.28807   0.00000  Uiso   1.00
H538   H     0.19327   0.71568   0.00917   0.00000  Uiso   1.00
H539   H     0.18636   0.86356   0.06678   0.00000  Uiso   1.00
H540   H     0.10469   0.93137   0.00589   0.00000  Uiso   1.00
H541   H     0.14943   0.77593   0.39807   0.00000  Uiso   1.00
H542   H     0.01427   0.86756   0.21712   0.00000  Uiso   1.00
O543   O     0.16667   0.83333   0.25000   0.00000  Uiso   1.00
O544   O     0.15451   0.79304   0.15459   0.00000  Uiso   1.00
O545   O     0.12940   0.87058   0.34968   0.00000  Uiso   1.00
O546   O     0.20824   0.84425   0.14606   0.00000  Uiso   1.00
O547   O     0.17451   0.82546   0.34968   0.00000  Uiso   1.00
O548   O     0.11023   0.92206   0.42000   0.00000  Uiso   1.00
O549   O     0.17930   0.74686   0.28214   0.00000  Uiso   1.00
O550   O     0.14632   0.92751   0.27014   0.00000  Uiso   1.00
O551   O     0.07412   0.79958   0.23413   0.00000  Uiso   1.00
O552   O     0.26693   0.85939   0.21361   0.00000  Uiso   1.00
O553   O     0.07071   0.85544   0.28213   0.00000  Uiso   1.00
O554   O     0.25491   0.81892   0.27014   0.00000  Uiso   1.00
O555   O     0.13760   0.73610   0.23413   0.00000  Uiso   1.00
O556   O     0.20345   0.92286   0.21361   0.00000  Uiso   1.00
Zn557  Zn    0.19338   0.80661   0.28734   0.00000  Uiso   1.00
Zn558  Zn    0.13379   0.79124   0.21876   0.00000  Uiso   1.00
Zn559  Zn    0.21056   0.86442   0.20657   0.00000  Uiso   1.00
Zn560  Zn    0.12893   0.87106   0.28734   0.00000  Uiso   1.00
C561   C     0.38600   0.82604   0.25991   0.00000  Uiso   1.00
C562   C     0.51814   0.83111   0.05417   0.00000  Uiso   1.00
C563   C     0.52853   0.76145   0.06417   0.00000  Uiso   1.00
C564   C     0.61396   0.84080   0.24051   0.00000  Uiso   1.00
C565   C     0.47268   0.85777   0.42141   0.00000  Uiso   1.00
C566   C     0.65943   0.84544   0.23858   0.00000  Uiso   1.00
C567   C     0.34081   0.82276   0.26318   0.00000  Uiso   1.00
C568   C     0.51369   0.98906   0.23687   0.00000  Uiso   1.00
C569   C     0.48480   0.67828   0.26363   0.00000  Uiso   1.00
C570   C     0.48927   0.72242   0.26021   0.00000  Uiso   1.00
C571   C     0.50983   0.94451   0.24026   0.00000  Uiso   1.00
C572   C     0.45240   0.90380   0.48946   0.00000  Uiso   1.00
C573   C     0.51869   0.81402   0.12924   0.00000  Uiso   1.00
C574   C     0.48112   0.85064   0.37140   0.00000  Uiso   1.00
C575   C     0.52397   0.74813   0.02087   0.00000  Uiso   1.00
C576   C     0.52558   0.80305   0.08091   0.00000  Uiso   1.00
C577   C     0.45577   0.89438   0.44351   0.00000  Uiso   1.00
C578   C     0.51822   0.72156   0.42676   0.00000  Uiso   1.00
C579   C     0.48999   0.69538   0.40444   0.00000  Uiso   1.00
C580   C     0.50342   0.99359   0.37658   0.00000  Uiso   1.00
C581   C     0.54466   0.98355   0.37159   0.00000  Uiso   1.00
C582   C     0.57292   0.67583   0.39369   0.00000  Uiso   1.00
C583   C     0.46586   0.87793   0.01464   0.00000  Uiso   1.00
C584   C     0.56005   0.71164   0.42062   0.00000  Uiso   1.00
C585   C     0.39856   0.91581   0.42698   0.00000  Uiso   1.00
C586   C     0.38552   0.94173   0.39602   0.00000  Uiso   1.00
C587   C     0.45243   0.88632   0.06429   0.00000  Uiso   1.00
C588   C     0.42779   0.85497   0.09072   0.00000  Uiso   1.00
C589   C     0.41823   0.86161   0.13759   0.00000  Uiso   1.00
C590   C     0.43213   0.89992   0.15852   0.00000  Uiso   1.00
C591   C     0.45538   0.93179   0.13251   0.00000  Uiso   1.00
C592   C     0.46543   0.92514   0.08554   0.00000  Uiso   1.00
C593   C     0.48546   0.84193   0.49258   0.00000  Uiso   1.00
C594   C     0.48330   0.82949   0.44737   0.00000  Uiso   1.00
C595   C     0.50515   0.81661   0.01413   0.00000  Uiso   1.00
C596   C     0.51245   0.77537   0.49505   0.00000  Uiso   1.00
C597   C     0.50585   0.76176   0.45185   0.00000  Uiso   1.00
C598   C     0.49041   0.78850   0.42949   0.00000  Uiso   1.00
H599   H     0.53341   0.73908   0.08510   0.00000  Uiso   1.00
H600   H     0.45786   0.70260   0.40791   0.00000  Uiso   1.00
H601   H     0.48188   0.97421   0.35868   0.00000  Uiso   1.00
H602   H     0.55482   0.95616   0.35025   0.00000  Uiso   1.00
H603   H     0.60509   0.66835   0.38933   0.00000  Uiso   1.00
H604   H     0.58294   0.73199   0.43605   0.00000  Uiso   1.00
H605   H     0.38299   0.92594   0.46237   0.00000  Uiso   1.00
H606   H     0.38670   0.88242   0.41908   0.00000  Uiso   1.00
H607   H     0.40055   0.93227   0.36035   0.00000  Uiso   1.00
H608   H     0.35019   0.93685   0.40093   0.00000  Uiso   1.00
H609   H     0.39589   0.97537   0.40369   0.00000  Uiso   1.00
H610   H     0.65326   0.79963   0.28385   0.00000  Uiso   1.00
H611   H     0.41717   0.82497   0.07500   0.00000  Uiso   1.00
H612   H     0.40046   0.83679   0.15757   0.00000  Uiso   1.00
H613   H     0.42495   0.90491   0.19486   0.00000  Uiso   1.00
H614   H     0.46608   0.96146   0.14876   0.00000  Uiso   1.00
H615   H     0.48437   0.94974   0.06580   0.00000  Uiso   1.00
H616   H     0.54035   0.67031   0.21235   0.00000  Uiso   1.00
H617   H     0.45762   0.99779   0.28807   0.00000  Uiso   1.00
H618   H     0.52660   0.71568   0.00917   0.00000  Uiso   1.00
H619   H     0.51969   0.86356   0.06678   0.00000  Uiso   1.00
H620   H     0.43802   0.93137   0.00589   0.00000  Uiso   1.00
H621   H     0.48277   0.77593   0.39807   0.00000  Uiso   1.00
H622   H     0.34760   0.86756   0.21712   0.00000  Uiso   1.00
O623   O     0.50000   0.83333   0.25000   0.00000  Uiso   1.00
O624   O     0.48784   0.79304   0.15459   0.00000  Uiso   1.00
O625   O     0.46274   0.87058   0.34968   0.00000  Uiso   1.00
O626   O     0.54157   0.84425   0.14606   0.00000  Uiso   1.00
O627   O     0.50785   0.82546   0.34968   0.00000  Uiso   1.00
O628   O     0.44356   0.92206   0.42000   0.00000  Uiso   1.00
O629   O     0.51264   0.74686   0.28214   0.00000  Uiso   1.00
O630   O     0.47965   0.92751   0.27014   0.00000  Uiso   1.00
O631   O     0.40745   0.79958   0.23413   0.00000  Uiso   1.00
O632   O     0.60026   0.85939   0.21361   0.00000  Uiso   1.00
O633   O     0.40405   0.85544   0.28213   0.00000  Uiso   1.00
O634   O     0.58824   0.81892   0.27014   0.00000  Uiso   1.00
O635   O     0.47093   0.73610   0.23413   0.00000  Uiso   1.00
O636   O     0.53678   0.92286   0.21361   0.00000  Uiso   1.00
Zn637  Zn    0.52672   0.80661   0.28734   0.00000  Uiso   1.00
Zn638  Zn    0.46713   0.79124   0.21876   0.00000  Uiso   1.00
Zn639  Zn    0.54389   0.86442   0.20657   0.00000  Uiso   1.00
Zn640  Zn    0.46226   0.87106   0.28734   0.00000  Uiso   1.00
C641   C     0.71933   0.82604   0.25991   0.00000  Uiso   1.00
C642   C     0.85147   0.83111   0.05417   0.00000  Uiso   1.00
C643   C     0.86186   0.76145   0.06417   0.00000  Uiso   1.00
C644   C     0.94729   0.84080   0.24051   0.00000  Uiso   1.00
C645   C     0.80601   0.85777   0.42141   0.00000  Uiso   1.00
C646   C     0.99276   0.84544   0.23858   0.00000  Uiso   1.00
C647   C     0.67414   0.82276   0.26318   0.00000  Uiso   1.00
C648   C     0.84702   0.98906   0.23687   0.00000  Uiso   1.00
C649   C     0.81814   0.67828   0.26363   0.00000  Uiso   1.00
C650   C     0.82260   0.72242   0.26021   0.00000  Uiso   1.00
C651   C     0.84316   0.94451   0.24026   0.00000  Uiso   1.00
C652   C     0.78573   0.90380   0.48946   0.00000  Uiso   1.00
C653   C     0.85203   0.81402   0.12924   0.00000  Uiso   1.00
C654   C     0.81446   0.85064   0.37140   0.00000  Uiso   1.00
C655   C     0.85731   0.74813   0.02087   0.00000  Uiso   1.00
C656   C     0.85892   0.80305   0.08091   0.00000  Uiso   1.00
C657   C     0.78910   0.89438   0.44351   0.00000  Uiso   1.00
C658   C     0.85155   0.72156   0.42676   0.00000  Uiso   1.00
C659   C     0.82332   0.69538   0.40444   0.00000  Uiso   1.00
C660   C     0.83675   0.99359   0.37658   0.00000  Uiso   1.00
C661   C     0.87799   0.98355   0.37159   0.00000  Uiso   1.00
C662   C     0.90626   0.67583   0.39369   0.00000  Uiso   1.00
C663   C     0.79919   0.87793   0.01464   0.00000  Uiso   1.00
C664   C     0.89338   0.71164   0.42062   0.00000  Uiso   1.00
C665   C     0.73189   0.91581   0.42698   0.00000  Uiso   1.00
C666   C     0.71885   0.94173   0.39602   0.00000  Uiso   1.00
C667   C     0.78576   0.88632   0.06429   0.00000  Uiso   1.00
C668   C     0.76112   0.85497   0.09072   0.00000  Uiso   1.00
C669   C     0.75156   0.86161   0.13759   0.00000  Uiso   1.00
C670   C     0.76546   0.89992   0.15852   0.00000  Uiso   1.00
C671   C     0.78871   0.93179   0.13251   0.00000  Uiso   1.00
C672   C     0.79877   0.92514   0.08554   0.00000  Uiso   1.00
C673   C     0.81879   0.84193   0.49258   0.00000  Uiso   1.00
C674   C     0.81663   0.82949   0.44737   0.00000  Uiso   1.00
C675   C     0.83848   0.81661   0.01413   0.00000  Uiso   1.00
C676   C     0.84578   0.77537   0.49505   0.00000  Uiso   1.00
C677   C     0.83918   0.76176   0.45185   0.00000  Uiso   1.00
C678   C     0.82375   0.78850   0.42949   0.00000  Uiso   1.00
H679   H     0.86674   0.73908   0.08510   0.00000  Uiso   1.00
H680   H     0.79119   0.70260   0.40791   0.00000  Uiso   1.00
H681   H     0.81521   0.97421   0.35868   0.00000  Uiso   1.00
H682   H     0.88815   0.95616   0.35025   0.00000  Uiso   1.00
H683   H     0.93842   0.66835   0.38933   0.00000  Uiso   1.00
H684   H     0.91628   0.73199   0.43605   0.00000  Uiso   1.00
H685   H     0.71632   0.92594   0.46237   0.00000  Uiso   1.00
H686   H     0.72003   0.88242   0.41908   0.00000  Uiso   1.00
H687   H     0.73388   0.93227   0.36035   0.00000  Uiso   1.00
H688   H     0.68353   0.93685   0.40093   0.00000  Uiso   1.00
H689   H     0.72922   0.97537   0.40369   0.00000  Uiso   1.00
H690   H     0.98659   0.79963   0.28385   0.00000  Uiso   1.00
H691   H     0.75051   0.82497   0.07500   0.00000  Uiso   1.00
H692   H     0.73379   0.83679   0.15757   0.00000  Uiso   1.00
H693   H     0.75828   0.90491   0.19486   0.00000  Uiso   1.00
H694   H     0.79941   0.96146   0.14876   0.00000  Uiso   1.00
H695   H     0.81770   0.94974   0.06580   0.00000  Uiso   1.00
H696   H     0.87368   0.67031   0.21235   0.00000  Uiso   1.00
H697   H     0.79095   0.99779   0.28807   0.00000  Uiso   1.00
H698   H     0.85994   0.71568   0.00917   0.00000  Uiso   1.00
H699   H     0.85302   0.86356   0.06678   0.00000  Uiso   1.00
H700   H     0.77135   0.93137   0.00589   0.00000  Uiso   1.00
H701   H     0.81610   0.77593   0.39807   0.00000  Uiso   1.00
H702   H     0.68094   0.86756   0.21712   0.00000  Uiso   1.00
O703   O     0.83333   0.83333   0.25000   0.00000  Uiso   1.00
O704   O     0.82118   0.79304   0.15459   0.00000  Uiso   1.00
O705   O     0.79607   0.87058   0.34968   0.00000  Uiso   1.00
O706   O     0.87491   0.84425   0.14606   0.00000  Uiso   1.00
O707   O     0.84118   0.82546   0.34968   0.00000  Uiso   1.00
O708   O     0.77690   0.92206   0.42000   0.00000  Uiso   1.00
O709   O     0.84597   0.74686   0.28214   0.00000  Uiso   1.00
O710   O     0.81298   0.92751   0.27014   0.00000  Uiso   1.00
O711   O     0.74078   0.79958   0.23413   0.00000  Uiso   1.00
O712   O     0.93360   0.85939   0.21361   0.00000  Uiso   1.00
O713   O     0.73738   0.85544   0.28213   0.00000  Uiso   1.00
O714   O     0.92158   0.81892   0.27014   0.00000  Uiso   1.00
O715   O     0.80426   0.73610   0.23413   0.00000  Uiso   1.00
O716   O     0.87012   0.92286   0.21361   0.00000  Uiso   1.00
Zn717  Zn    0.86005   0.80661   0.28734   0.00000  Uiso   1.00
Zn718  Zn    0.80046   0.79124   0.21876   0.00000  Uiso   1.00
Zn719  Zn    0.87723   0.86442   0.20657   0.00000  Uiso   1.00
Zn720  Zn    0.79560   0.87106   0.28734   0.00000  Uiso   1.00
C721   C     0.05266   0.15937   0.75991   0.00000  Uiso   1.00
C722   C     0.18480   0.16444   0.55417   0.00000  Uiso   1.00
C723   C     0.19520   0.09479   0.56417   0.00000  Uiso   1.00
C724   C     0.28063   0.17413   0.74051   0.00000  Uiso   1.00
C725   C     0.13935   0.19111   0.92141   0.00000  Uiso   1.00
C726   C     0.32610   0.17878   0.73858   0.00000  Uiso   1.00
C727   C     0.00748   0.15610   0.76318   0.00000  Uiso   1.00
C728   C     0.18035   0.32239   0.73687   0.00000  Uiso   1.00
C729   C     0.15147   0.01162   0.76363   0.00000  Uiso   1.00
C730   C     0.15593   0.05575   0.76021   0.00000  Uiso   1.00
C731   C     0.17650   0.27784   0.74026   0.00000  Uiso   1.00
C732   C     0.11906   0.23714   0.98946   0.00000  Uiso   1.00
C733   C     0.18536   0.14735   0.62924   0.00000  Uiso   1.00
C734   C     0.14779   0.18397   0.87140   0.00000  Uiso   1.00
C735   C     0.19064   0.08146   0.52087   0.00000  Uiso   1.00
C736   C     0.19225   0.13638   0.58091   0.00000  Uiso   1.00
C737   C     0.12244   0.22771   0.94351   0.00000  Uiso   1.00
C738   C     0.18489   0.05489   0.92676   0.00000  Uiso   1.00
C739   C     0.15666   0.02871   0.90444   0.00000  Uiso   1.00
C740   C     0.17008   0.32693   0.87658   0.00000  Uiso   1.00
C741   C     0.21132   0.31689   0.87159   0.00000  Uiso   1.00
C742   C     0.23959   0.00917   0.89369   0.00000  Uiso   1.00
C743   C     0.13252   0.21126   0.51464   0.00000  Uiso   1.00
C744   C     0.22672   0.04497   0.92062   0.00000  Uiso   1.00
C745   C     0.06523   0.24915   0.92698   0.00000  Uiso   1.00
C746   C     0.05218   0.27506   0.89602   0.00000  Uiso   1.00
C747   C     0.11910   0.21965   0.56429   0.00000  Uiso   1.00
C748   C     0.09445   0.18830   0.59072   0.00000  Uiso   1.00
C749   C     0.08490   0.19495   0.63759   0.00000  Uiso   1.00
C750   C     0.09880   0.23325   0.65852   0.00000  Uiso   1.00
C751   C     0.12204   0.26512   0.63251   0.00000  Uiso   1.00
C752   C     0.13210   0.25848   0.58554   0.00000  Uiso   1.00
C753   C     0.15213   0.17526   0.99258   0.00000  Uiso   1.00
C754   C     0.14996   0.16282   0.94737   0.00000  Uiso   1.00
C755   C     0.17181   0.14994   0.51413   0.00000  Uiso   1.00
C756   C     0.17912   0.10871   0.99505   0.00000  Uiso   1.00
C757   C     0.17251   0.09510   0.95185   0.00000  Uiso   1.00
C758   C     0.15708   0.12183   0.92949   0.00000  Uiso   1.00
H759   H     0.20007   0.07241   0.58510   0.00000  Uiso   1.00
H760   H     0.12452   0.03593   0.90791   0.00000  Uiso   1.00
H761   H     0.14855   0.30755   0.85868   0.00000  Uiso   1.00
H762   H     0.22149   0.28949   0.85025   0.00000  Uiso   1.00
H763   H     0.27175   0.00168   0.88933   0.00000  Uiso   1.00
H764   H     0.24961   0.06533   0.93605   0.00000  Uiso   1.00
H765   H     0.04965   0.25927   0.96237   0.00000  Uiso   1.00
H766   H     0.05337   0.21575   0.91908   0.00000  Uiso   1.00
H767   H     0.06721   0.26560   0.86035   0.00000  Uiso   1.00
H768   H     0.01686   0.27019   0.90093   0.00000  Uiso   1.00
H769   H     0.06256   0.30870   0.90369   0.00000  Uiso   1.00
H770   H     0.31993   0.13297   0.78385   0.00000  Uiso   1.00
H771   H     0.08384   0.15831   0.57500   0.00000  Uiso   1.00
H772   H     0.06712   0.17012   0.65757   0.00000  Uiso   1.00
H773   H     0.09161   0.23825   0.69486   0.00000  Uiso   1.00
H774   H     0.13274   0.29479   0.64876   0.00000  Uiso   1.00
H775   H     0.15104   0.28308   0.56580   0.00000  Uiso   1.00
H776   H     0.20702   0.00364   0.71235   0.00000  Uiso   1.00
H777   H     0.12429   0.33113   0.78807   0.00000  Uiso   1.00
H778   H     0.19327   0.04902   0.50917   0.00000  Uiso   1.00
H779   H     0.18636   0.19690   0.56678   0.00000  Uiso   1.00
H780   H     0.10469   0.26470   0.50589   0.00000  Uiso   1.00
H781   H     0.14943   0.10926   0.89807   0.00000  Uiso   1.00
H782   H     0.01427   0.20090   0.71712   0.00000  Uiso   1.00
O783   O     0.16667   0.16667   0.75000   0.00000  Uiso   1.00
O784   O     0.15451   0.12637   0.65459   0.00000  Uiso   1.00
O785   O     0.12940   0.20391   0.84968   0.00000  Uiso   1.00
O786   O     0.20824   0.17759   0.64606   0.00000  Uiso   1.00
O787   O     0.17451   0.15880   0.84968   0.00000  Uiso   1.00
O788   O     0.11023   0.25539   0.92000   0.00000  Uiso   1.00
O789   O     0.17930   0.08019   0.78214   0.00000  Uiso   1.00
O790   O     0.14632   0.26085   0.77014   0.00000  Uiso   1.00
O791   O     0.07412   0.13291   0.73413   0.00000  Uiso   1.00
O792   O     0.26693   0.19272   0.71361   0.00000  Uiso   1.00
O793   O     0.07071   0.18878   0.78213   0.00000  Uiso   1.00
O794   O     0.25491   0.15226   0.77014   0.00000  Uiso   1.00
O795   O     0.13760   0.06944   0.73413   0.00000  Uiso   1.00
O796   O     0.20345   0.25620   0.71361   0.00000  Uiso   1.00
Zn797  Zn    0.19338   0.13994   0.78734   0.00000  Uiso   1.00
Zn798  Zn    0.13379   0.12458   0.71876   0.00000  Uiso   1.00
Zn799  Zn    0.21056   0.19775   0.70657   0.00000  Uiso   1.00
Zn800  Zn    0.12893   0.20439   0.78734   0.00000  Uiso   1.00
C801   C     0.38600   0.15937   0.75991   0.00000  Uiso   1.00
C802   C     0.51814   0.16444   0.55417   0.00000  Uiso   1.00
C803   C     0.52853   0.09479   0.56417   0.00000  Uiso   1.00
C804   C     0.61396   0.17413   0.74051   0.00000  Uiso   1.00
C805   C     0.47268   0.19111   0.92141   0.00000  Uiso   1.00
C806   C     0.65943   0.17878   0.73858   0.00000  Uiso   1.00
C807   C     0.34081   0.15610   0.76318   0.00000  Uiso   1.00
C808   C     0.51369   0.32239   0.73687   0.00000  Uiso   1.00
C809   C     0.48480   0.01162   0.76363   0.00000  Uiso   1.00
C810   C     0.48927   0.05575   0.76021   0.00000  Uiso   1.00
C811   C     0.50983   0.27784   0.74026   0.00000  Uiso   1.00
C812   C     0.45240   0.23714   0.98946   0.00000  Uiso   1.00
C813   C     0.51869   0.14735   0.62924   0.00000  Uiso   1.00
C814   C     0.48112   0.18397   0.87140   0.00000  Uiso   1.00
C815   C     0.52397   0.08146   0.52087   0.00000  Uiso   1.00
C816   C     0.52558   0.13638   0.58091   0.00000  Uiso   1.00
C817   C     0.45577   0.22771   0.94351   0.00000  Uiso   1.00
C818   C     0.51822   0.05489   0.92676   0.00000  Uiso   1.00
C819   C     0.48999   0.02871   0.90444   0.00000  Uiso   1.00
C820   C     0.50342   0.32693   0.87658   0.00000  Uiso   1.00
C821   C     0.54466   0.31689   0.87159   0.00000  Uiso   1.00
C822   C     0.57292   0.00917   0.89369   0.00000  Uiso   1.00
C823   C     0.46586   0.21126   0.51464   0.00000  Uiso   1.00
C824   C     0.56005   0.04497   0.92062   0.00000  Uiso   1.00
C825   C     0.39856   0.24915   0.92698   0.00000  Uiso   1.00
C826   C     0.38552   0.27506   0.89602   0.00000  Uiso   1.00
C827   C     0.45243   0.21965   0.56429   0.00000  Uiso   1.00
C828   C     0.42779   0.18830   0.59072   0.00000  Uiso   1.00
C829   C     0.41823   0.19495   0.63759   0.00000  Uiso   1.00
C830   C     0.43213   0.23325   0.65852   0.00000  Uiso   1.00
C831   C     0.45538   0.26512   0.63251   0.00000  Uiso   1.00
C832   C     0.46543   0.25848   0.58554   0.00000  Uiso   1.00
C833   C     0.48546   0.17526   0.99258   0.00000  Uiso   1.00
C834   C     0.48330   0.16282   0.94737   0.00000  Uiso   1.00
C835   C     0.50515   0.14994   0.51413   0.00000  Uiso   1.00
C836   C     0.51245   0.10871   0.99505   0.00000  Uiso   1.00
C837   C     0.50585   0.09510   0.95185   0.00000  Uiso   1.00
C838   C     0.49041   0.12183   0.92949   0.00000  Uiso   1.00
H839   H     0.53341   0.07241   0.58510   0.00000  Uiso   1.00
H840   H     0.45786   0.03593   0.90791   0.00000  Uiso   1.00
H841   H     0.48188   0.30755   0.85868   0.00000  Uiso   1.00
H842   H     0.55482   0.28949   0.85025   0.00000  Uiso   1.00
H843   H     0.60509   0.00168   0.88933   0.00000  Uiso   1.00
H844   H     0.58294   0.06533   0.93605   0.00000  Uiso   1.00
H845   H     0.38299   0.25927   0.96237   0.00000  Uiso   1.00
H846   H     0.38670   0.21575   0.91908   0.00000  Uiso   1.00
H847   H     0.40055   0.26560   0.86035   0.00000  Uiso   1.00
H848   H     0.35019   0.27019   0.90093   0.00000  Uiso   1.00
H849   H     0.39589   0.30870   0.90369   0.00000  Uiso   1.00
H850   H     0.65326   0.13297   0.78385   0.00000  Uiso   1.00
H851   H     0.41717   0.15831   0.57500   0.00000  Uiso   1.00
H852   H     0.40046   0.17012   0.65757   0.00000  Uiso   1.00
H853   H     0.42495   0.23825   0.69486   0.00000  Uiso   1.00
H854   H     0.46608   0.29479   0.64876   0.00000  Uiso   1.00
H855   H     0.48437   0.28308   0.56580   0.00000  Uiso   1.00
H856   H     0.54035   0.00364   0.71235   0.00000  Uiso   1.00
H857   H     0.45762   0.33113   0.78807   0.00000  Uiso   1.00
H858   H     0.52660   0.04902   0.50917   0.00000  Uiso   1.00
H859   H     0.51969   0.19690   0.56678   0.00000  Uiso   1.00
H860   H     0.43802   0.26470   0.50589   0.00000  Uiso   1.00
H861   H     0.48277   0.10926   0.89807   0.00000  Uiso   1.00
H862   H     0.34760   0.20090   0.71712   0.00000  Uiso   1.00
O863   O     0.50000   0.16667   0.75000   0.00000  Uiso   1.00
O864   O     0.48784   0.12637   0.65459   0.00000  Uiso   1.00
O865   O     0.46274   0.20391   0.84968   0.00000  Uiso   1.00
O866   O     0.54157   0.17759   0.64606   0.00000  Uiso   1.00
O867   O     0.50785   0.15880   0.84968   0.00000  Uiso   1.00
O868   O     0.44356   0.25539   0.92000   0.00000  Uiso   1.00
O869   O     0.51264   0.08019   0.78214   0.00000  Uiso   1.00
O870   O     0.47965   0.26085   0.77014   0.00000  Uiso   1.00
O871   O     0.40745   0.13291   0.73413   0.00000  Uiso   1.00
O872   O     0.60026   0.19272   0.71361   0.00000  Uiso   1.00
O873   O     0.40405   0.18878   0.78213   0.00000  Uiso   1.00
O874   O     0.58824   0.15226   0.77014   0.00000  Uiso   1.00
O875   O     0.47093   0.06944   0.73413   0.00000  Uiso   1.00
O876   O     0.53678   0.25620   0.71361   0.00000  Uiso   1.00
Zn877  Zn    0.52672   0.13994   0.78734   0.00000  Uiso   1.00
Zn878  Zn    0.46713   0.12458   0.71876   0.00000  Uiso   1.00
Zn879  Zn    0.54389   0.19775   0.70657   0.00000  Uiso   1.00
Zn880  Zn    0.46226   0.20439   0.78734   0.00000  Uiso   1.00
C881   C     0.71933   0.15937   0.75991   0.00000  Uiso   1.00
C882   C     0.85147   0.16444   0.55417   0.00000  Uiso   1.00
C883   C     0.86186   0.09479   0.56417   0.00000  Uiso   1.00
C884   C     0.94729   0.17413   0.74051   0.00000  Uiso   1.00
C885   C     0.80601   0.19111   0.92141   0.00000  Uiso   1.00
C886   C     0.99276   0.17878   0.73858   0.00000  Uiso   1.00
C887   C     0.67414   0.15610   0.76318   0.00000  Uiso   1.00
C888   C     0.84702   0.32239   0.73687   0.00000  Uiso   1.00
C889   C     0.81814   0.01162   0.76363   0.00000  Uiso   1.00
C890   C     0.82260   0.05575   0.76021   0.00000  Uiso   1.00
C891   C     0.84316   0.27784   0.74026   0.00000  Uiso   1.00
C892   C     0.78573   0.23714   0.98946   0.00000  Uiso   1.00
C893   C     0.85203   0.14735   0.62924   0.00000  Uiso   1.00
C894   C     0.81446   0.18397   0.87140   0.00000  Uiso   1.00
C895   C     0.85731   0.08146   0.52087   0.00000  Uiso   1.00
C896   C     0.85892   0.13638   0.58091   0.00000  Uiso   1.00
C897   C     0.78910   0.22771   0.94351   0.00000  Uiso   1.00
C898   C     0.85155   0.05489   0.92676   0.00000  Uiso   1.00
C899   C     0.82332   0.02871   0.90444   0.00000  Uiso   1.00
C900   C     0.83675   0.32693   0.87658   0.00000  Uiso   1.00
C901   C     0.87799   0.31689   0.87159   0.00000  Uiso   1.00
C902   C     0.90626   0.00917   0.89369   0.00000  Uiso   1.00
C903   C     0.79919   0.21126   0.51464   0.00000  Uiso   1.00
C904   C     0.89338   0.04497   0.92062   0.00000  Uiso   1.00
C905   C     0.73189   0.24915   0.92698   0.00000  Uiso   1.00
C906   C     0.71885   0.27506   0.89602   0.00000  Uiso   1.00
C907   C     0.78576   0.21965   0.56429   0.00000  Uiso   1.00
C908   C     0.76112   0.18830   0.59072   0.00000  Uiso   1.00
C909   C     0.75156   0.19495   0.63759   0.00000  Uiso   1.00
C910   C     0.76546   0.23325   0.65852   0.00000  Uiso   1.00
C911   C     0.78871   0.26512   0.63251   0.00000  Uiso   1.00
C912   C     0.79877   0.25848   0.58554   0.00000  Uiso   1.00
C913   C     0.81879   0.17526   0.99258   0.00000  Uiso   1.00
C914   C     0.81663   0.16282   0.94737   0.00000  Uiso   1.00
C915   C     0.83848   0.14994   0.51413   0.00000  Uiso   1.00
C916   C     0.84578   0.10871   0.99505   0.00000  Uiso   1.00
C917   C     0.83918   0.09510   0.95185   0.00000  Uiso   1.00
C918   C     0.82375   0.12183   0.92949   0.00000  Uiso   1.00
H919   H     0.86674   0.07241   0.58510   0.00000  Uiso   1.00
H920   H     0.79119   0.03593   0.90791   0.00000  Uiso   1.00
H921   H     0.81521   0.30755   0.85868   0.00000  Uiso   1.00
H922   H     0.88815   0.28949   0.85025   0.00000  Uiso   1.00
H923   H     0.93842   0.00168   0.88933   0.00000  Uiso   1.00
H924   H     0.91628   0.06533   0.93605   0.00000  Uiso   1.00
H925   H     0.71632   0.25927   0.96237   0.00000  Uiso   1.00
H926   H     0.72003   0.21575   0.91908   0.00000  Uiso   1.00
H927   H     0.73388   0.26560   0.86035   0.00000  Uiso   1.00
H928   H     0.68353   0.27019   0.90093   0.00000  Uiso   1.00
H929   H     0.72922   0.30870   0.90369   0.00000  Uiso   1.00
H930   H     0.98659   0.13297   0.78385   0.00000  Uiso   1.00
H931   H     0.75051   0.15831   0.57500   0.00000  Uiso   1.00
H932   H     0.73379   0.17012   0.65757   0.00000  Uiso   1.00
H933   H     0.75828   0.23825   0.69486   0.00000  Uiso   1.00
H934   H     0.79941   0.29479   0.64876   0.00000  Uiso   1.00
H935   H     0.81770   0.28308   0.56580   0.00000  Uiso   1.00
H936   H     0.87368   0.00364   0.71235   0.00000  Uiso   1.00
H937   H     0.79095   0.33113   0.78807   0.00000  Uiso   1.00
H938   H     0.85994   0.04902   0.50917   0.00000  Uiso   1.00
H939   H     0.85302   0.19690   0.56678   0.00000  Uiso   1.00
H940   H     0.77135   0.26470   0.50589   0.00000  Uiso   1.00
H941   H     0.81610   0.10926   0.89807   0.00000  Uiso   1.00
H942   H     0.68094   0.20090   0.71712   0.00000  Uiso   1.00
O943   O     0.83333   0.16667   0.75000   0.00000  Uiso   1.00
O944   O     0.82118   0.12637   0.65459   0.00000  Uiso   1.00
O945   O     0.79607   0.20391   0.84968   0.00000  Uiso   1.00
O946   O     0.87491   0.17759   0.64606   0.00000  Uiso   1.00
O947   O     0.84118   0.15880   0.84968   0.00000  Uiso   1.00
O948   O     0.77690   0.25539   0.92000   0.00000  Uiso   1.00
O949   O     0.84597   0.08019   0.78214   0.00000  Uiso   1.00
O950   O     0.81298   0.26085   0.77014   0.00000  Uiso   1.00
O951   O     0.74078   0.13291   0.73413   0.00000  Uiso   1.00
O952   O     0.93360   0.19272   0.71361   0.00000  Uiso   1.00
O953   O     0.73738   0.18878   0.78213   0.00000  Uiso   1.00
O954   O     0.92158   0.15226   0.77014   0.00000  Uiso   1.00
O955   O     0.80426   0.06944   0.73413   0.00000  Uiso   1.00
O956   O     0.87012   0.25620   0.71361   0.00000  Uiso   1.00
Zn957  Zn    0.86005   0.13994   0.78734   0.00000  Uiso   1.00
Zn958  Zn    0.80046   0.12458   0.71876   0.00000  Uiso   1.00
Zn959  Zn    0.87723   0.19775   0.70657   0.00000  Uiso   1.00
Zn960  Zn    0.79560   0.20439   0.78734   0.00000  Uiso   1.00
C961   C     0.05266   0.49271   0.75991   0.00000  Uiso   1.00
C962   C     0.18480   0.49778   0.55417   0.00000  Uiso   1.00
C963   C     0.19520   0.42812   0.56417   0.00000  Uiso   1.00
C964   C     0.28063   0.50746   0.74051   0.00000  Uiso   1.00
C965   C     0.13935   0.52444   0.92141   0.00000  Uiso   1.00
C966   C     0.32610   0.51211   0.73858   0.00000  Uiso   1.00
C967   C     0.00748   0.48943   0.76318   0.00000  Uiso   1.00
C968   C     0.18035   0.65572   0.73687   0.00000  Uiso   1.00
C969   C     0.15147   0.34495   0.76363   0.00000  Uiso   1.00
C970   C     0.15593   0.38908   0.76021   0.00000  Uiso   1.00
C971   C     0.17650   0.61117   0.74026   0.00000  Uiso   1.00
C972   C     0.11906   0.57047   0.98946   0.00000  Uiso   1.00
C973   C     0.18536   0.48068   0.62924   0.00000  Uiso   1.00
C974   C     0.14779   0.51731   0.87140   0.00000  Uiso   1.00
C975   C     0.19064   0.41480   0.52087   0.00000  Uiso   1.00
C976   C     0.19225   0.46972   0.58091   0.00000  Uiso   1.00
C977   C     0.12244   0.56104   0.94351   0.00000  Uiso   1.00
C978   C     0.18489   0.38822   0.92676   0.00000  Uiso   1.00
C979   C     0.15666   0.36205   0.90444   0.00000  Uiso   1.00
C980   C     0.17008   0.66026   0.87658   0.00000  Uiso   1.00
C981   C     0.21132   0.65022   0.87159   0.00000  Uiso   1.00
C982   C     0.23959   0.34250   0.89369   0.00000  Uiso   1.00
C983   C     0.13252   0.54459   0.51464   0.00000  Uiso   1.00
C984   C     0.22672   0.37830   0.92062   0.00000  Uiso   1.00
C985   C     0.06523   0.58248   0.92698   0.00000  Uiso   1.00
C986   C     0.05218   0.60840   0.89602   0.00000  Uiso   1.00
C987   C     0.11910   0.55299   0.56429   0.00000  Uiso   1.00
C988   C     0.09445   0.52164   0.59072   0.00000  Uiso   1.00
C989   C     0.08490   0.52828   0.63759   0.00000  Uiso   1.00
C990   C     0.09880   0.56659   0.65852   0.00000  Uiso   1.00
C991   C     0.12204   0.59845   0.63251   0.00000  Uiso   1.00
C992   C     0.13210   0.59181   0.58554   0.00000  Uiso   1.00
C993   C     0.15213   0.50860   0.99258   0.00000  Uiso   1.00
C994   C     0.14996   0.49615   0.94737   0.00000  Uiso   1.00
C995   C     0.17181   0.48327   0.51413   0.00000  Uiso   1.00
C996   C     0.17912   0.44204   0.99505   0.00000  Uiso   1.00
C997   C     0.17251   0.42843   0.95185   0.00000  Uiso   1.00
C998   C     0.15708   0.45516   0.92949   0.00000  Uiso   1.00
H999   H     0.20007   0.40574   0.58510   0.00000  Uiso   1.00
H1000  H     0.12452   0.36926   0.90791   0.00000  Uiso   1.00
H1001  H     0.14855   0.64088   0.85868   0.00000  Uiso   1.00
H1002  H     0.22149   0.62283   0.85025   0.00000  Uiso   1.00
H1003  H     0.27175   0.33501   0.88933   0.00000  Uiso   1.00
H1004  H     0.24961   0.39866   0.93605   0.00000  Uiso   1.00
H1005  H     0.04965   0.59261   0.96237   0.00000  Uiso   1.00
H1006  H     0.05337   0.54908   0.91908   0.00000  Uiso   1.00
H1007  H     0.06721   0.59894   0.86035   0.00000  Uiso   1.00
H1008  H     0.01686   0.60352   0.90093   0.00000  Uiso   1.00
H1009  H     0.06256   0.64203   0.90369   0.00000  Uiso   1.00
H1010  H     0.31993   0.46630   0.78385   0.00000  Uiso   1.00
H1011  H     0.08384   0.49164   0.57500   0.00000  Uiso   1.00
H1012  H     0.06712   0.50346   0.65757   0.00000  Uiso   1.00
H1013  H     0.09161   0.57158   0.69486   0.00000  Uiso   1.00
H1014  H     0.13274   0.62813   0.64876   0.00000  Uiso   1.00
H1015  H     0.15104   0.61641   0.56580   0.00000  Uiso   1.00
H1016  H     0.20702   0.33698   0.71235   0.00000  Uiso   1.00
H1017  H     0.12429   0.66446   0.78807   0.00000  Uiso   1.00
H1018  H     0.19327   0.38235   0.50917   0.00000  Uiso   1.00
H1019  H     0.18636   0.53023   0.56678   0.00000  Uiso   1.00
H1020  H     0.10469   0.59804   0.50589   0.00000  Uiso   1.00
H1021  H     0.14943   0.44260   0.89807   0.00000  Uiso   1.00
H1022  H     0.01427   0.53423   0.71712   0.00000  Uiso   1.00
O1023  O     0.16667   0.50000   0.75000   0.00000  Uiso   1.00
O1024  O     0.15451   0.45970   0.65459   0.00000  Uiso   1.00
O1025  O     0.12940   0.53724   0.84968   0.00000  Uiso   1.00
O1026  O     0.20824   0.51092   0.64606   0.00000  Uiso   1.00
O1027  O     0.17451   0.49213   0.84968   0.00000  Uiso   1.00
O1028  O     0.11023   0.58873   0.92000   0.00000  Uiso   1.00
O1029  O     0.17930   0.41352   0.78214   0.00000  Uiso   1.00
O1030  O     0.14632   0.59418   0.77014   0.00000  Uiso   1.00
O1031  O     0.07412   0.46625   0.73413   0.00000  Uiso   1.00
O1032  O     0.26693   0.52605   0.71361   0.00000  Uiso   1.00
O1033  O     0.07071   0.52211   0.78213   0.00000  Uiso   1.00
O1034  O     0.25491   0.48559   0.77014   0.00000  Uiso   1.00
O1035  O     0.13760   0.40277   0.73413   0.00000  Uiso   1.00
O1036  O     0.20345   0.58953   0.71361   0.00000  Uiso   1.00
Zn1037 Zn    0.19338   0.47327   0.78734   0.00000  Uiso   1.00
Zn1038 Zn    0.13379   0.45791   0.71876   0.00000  Uiso   1.00
Zn1039 Zn    0.21056   0.53109   0.70657   0.00000  Uiso   1.00
Zn1040 Zn    0.12893   0.53773   0.78734   0.00000  Uiso   1.00
C1041  C     0.38600   0.49271   0.75991   0.00000  Uiso   1.00
C1042  C     0.51814   0.49778   0.55417   0.00000  Uiso   1.00
C1043  C     0.52853   0.42812   0.56417   0.00000  Uiso   1.00
C1044  C     0.61396   0.50746   0.74051   0.00000  Uiso   1.00
C1045  C     0.47268   0.52444   0.92141   0.00000  Uiso   1.00
C1046  C     0.65943   0.51211   0.73858   0.00000  Uiso   1.00
C1047  C     0.34081   0.48943   0.76318   0.00000  Uiso   1.00
C1048  C     0.51369   0.65572   0.73687   0.00000  Uiso   1.00
C1049  C     0.48480   0.34495   0.76363   0.00000  Uiso   1.00
C1050  C     0.48927   0.38908   0.76021   0.00000  Uiso   1.00
C1051  C     0.50983   0.61117   0.74026   0.00000  Uiso   1.00
C1052  C     0.45240   0.57047   0.98946   0.00000  Uiso   1.00
C1053  C     0.51869   0.48068   0.62924   0.00000  Uiso   1.00
C1054  C     0.48112   0.51731   0.87140   0.00000  Uiso   1.00
C1055  C     0.52397   0.41480   0.52087   0.00000  Uiso   1.00
C1056  C     0.52558   0.46972   0.58091   0.00000  Uiso   1.00
C1057  C     0.45577   0.56104   0.94351   0.00000  Uiso   1.00
C1058  C     0.51822   0.38822   0.92676   0.00000  Uiso   1.00
C1059  C     0.48999   0.36205   0.90444   0.00000  Uiso   1.00
C1060  C     0.50342   0.66026   0.87658   0.00000  Uiso   1.00
C1061  C     0.54466   0.65022   0.87159   0.00000  Uiso   1.00
C1062  C     0.57292   0.34250   0.89369   0.00000  Uiso   1.00
C1063  C     0.46586   0.54459   0.51464   0.00000  Uiso   1.00
C1064  C     0.56005   0.37830   0.92062   0.00000  Uiso   1.00
C1065  C     0.39856   0.58248   0.92698   0.00000  Uiso   1.00
C1066  C     0.38552   0.60840   0.89602   0.00000  Uiso   1.00
C1067  C     0.45243   0.55299   0.56429   0.00000  Uiso   1.00
C1068  C     0.42779   0.52164   0.59072   0.00000  Uiso   1.00
C1069  C     0.41823   0.52828   0.63759   0.00000  Uiso   1.00
C1070  C     0.43213   0.56659   0.65852   0.00000  Uiso   1.00
C1071  C     0.45538   0.59845   0.63251   0.00000  Uiso   1.00
C1072  C     0.46543   0.59181   0.58554   0.00000  Uiso   1.00
C1073  C     0.48546   0.50860   0.99258   0.00000  Uiso   1.00
C1074  C     0.48330   0.49615   0.94737   0.00000  Uiso   1.00
C1075  C     0.50515   0.48327   0.51413   0.00000  Uiso   1.00
C1076  C     0.51245   0.44204   0.99505   0.00000  Uiso   1.00
C1077  C     0.50585   0.42843   0.95185   0.00000  Uiso   1.00
C1078  C     0.49041   0.45516   0.92949   0.00000  Uiso   1.00
H1079  H     0.53341   0.40574   0.58510   0.00000  Uiso   1.00
H1080  H     0.45786   0.36926   0.90791   0.00000  Uiso   1.00
H1081  H     0.48188   0.64088   0.85868   0.00000  Uiso   1.00
H1082  H     0.55482   0.62283   0.85025   0.00000  Uiso   1.00
H1083  H     0.60509   0.33501   0.88933   0.00000  Uiso   1.00
H1084  H     0.58294   0.39866   0.93605   0.00000  Uiso   1.00
H1085  H     0.38299   0.59261   0.96237   0.00000  Uiso   1.00
H1086  H     0.38670   0.54908   0.91908   0.00000  Uiso   1.00
H1087  H     0.40055   0.59894   0.86035   0.00000  Uiso   1.00
H1088  H     0.35019   0.60352   0.90093   0.00000  Uiso   1.00
H1089  H     0.39589   0.64203   0.90369   0.00000  Uiso   1.00
H1090  H     0.65326   0.46630   0.78385   0.00000  Uiso   1.00
H1091  H     0.41717   0.49164   0.57500   0.00000  Uiso   1.00
H1092  H     0.40046   0.50346   0.65757   0.00000  Uiso   1.00
H1093  H     0.42495   0.57158   0.69486   0.00000  Uiso   1.00
H1094  H     0.46608   0.62813   0.64876   0.00000  Uiso   1.00
H1095  H     0.48437   0.61641   0.56580   0.00000  Uiso   1.00
H1096  H     0.54035   0.33698   0.71235   0.00000  Uiso   1.00
H1097  H     0.45762   0.66446   0.78807   0.00000  Uiso   1.00
H1098  H     0.52660   0.38235   0.50917   0.00000  Uiso   1.00
H1099  H     0.51969   0.53023   0.56678   0.00000  Uiso   1.00
H1100  H     0.43802   0.59804   0.50589   0.00000  Uiso   1.00
H1101  H     0.48277   0.44260   0.89807   0.00000  Uiso   1.00
H1102  H     0.34760   0.53423   0.71712   0.00000  Uiso   1.00
O1103  O     0.50000   0.50000   0.75000   0.00000  Uiso   1.00
O1104  O     0.48784   0.45970   0.65459   0.00000  Uiso   1.00
O1105  O     0.46274   0.53724   0.84968   0.00000  Uiso   1.00
O1106  O     0.54157   0.51092   0.64606   0.00000  Uiso   1.00
O1107  O     0.50785   0.49213   0.84968   0.00000  Uiso   1.00
O1108  O     0.44356   0.58873   0.92000   0.00000  Uiso   1.00
O1109  O     0.51264   0.41352   0.78214   0.00000  Uiso   1.00
O1110  O     0.47965   0.59418   0.77014   0.00000  Uiso   1.00
O1111  O     0.40745   0.46625   0.73413   0.00000  Uiso   1.00
O1112  O     0.60026   0.52605   0.71361   0.00000  Uiso   1.00
O1113  O     0.40405   0.52211   0.78213   0.00000  Uiso   1.00
O1114  O     0.58824   0.48559   0.77014   0.00000  Uiso   1.00
O1115  O     0.47093   0.40277   0.73413   0.00000  Uiso   1.00
O1116  O     0.53678   0.58953   0.71361   0.00000  Uiso   1.00
Zn1117 Zn    0.52672   0.47327   0.78734   0.00000  Uiso   1.00
Zn1118 Zn    0.46713   0.45791   0.71876   0.00000  Uiso   1.00
Zn1119 Zn    0.54389   0.53109   0.70657   0.00000  Uiso   1.00
Zn1120 Zn    0.46226   0.53773   0.78734   0.00000  Uiso   1.00
C1121  C     0.71933   0.49271   0.75991   0.00000  Uiso   1.00
C1122  C     0.85147   0.49778   0.55417   0.00000  Uiso   1.00
C1123  C     0.86186   0.42812   0.56417   0.00000  Uiso   1.00
C1124  C     0.94729   0.50746   0.74051   0.00000  Uiso   1.00
C1125  C     0.80601   0.52444   0.92141   0.00000  Uiso   1.00
C1126  C     0.99276   0.51211   0.73858   0.00000  Uiso   1.00
C1127  C     0.67414   0.48943   0.76318   0.00000  Uiso   1.00
C1128  C     0.84702   0.65572   0.73687   0.00000  Uiso   1.00
C1129  C     0.81814   0.34495   0.76363   0.00000  Uiso   1.00
C1130  C     0.82260   0.38908   0.76021   0.00000  Uiso   1.00
C1131  C     0.84316   0.61117   0.74026   0.00000  Uiso   1.00
C1132  C     0.78573   0.57047   0.98946   0.00000  Uiso   1.00
C1133  C     0.85203   0.48068   0.62924   0.00000  Uiso   1.00
C1134  C     0.81446   0.51731   0.87140   0.00000  Uiso   1.00
C1135  C     0.85731   0.41480   0.52087   0.00000  Uiso   1.00
C1136  C     0.85892   0.46972   0.58091   0.00000  Uiso   1.00
C1137  C     0.78910   0.56104   0.94351   0.00000  Uiso   1.00
C1138  C     0.85155   0.38822   0.92676   0.00000  Uiso   1.00
C1139  C     0.82332   0.36205   0.90444   0.00000  Uiso   1.00
C1140  C     0.83675   0.66026   0.87658   0.00000  Uiso   1.00
C1141  C     0.87799   0.65022   0.87159   0.00000  Uiso   1.00
C1142  C     0.90626   0.34250   0.89369   0.00000  Uiso   1.00
C1143  C     0.79919   0.54459   0.51464   0.00000  Uiso   1.00
C1144  C     0.89338   0.37830   0.92062   0.00000  Uiso   1.00
C1145  C     0.73189   0.58248   0.92698   0.00000  Uiso   1.00
C1146  C     0.71885   0.60840   0.89602   0.00000  Uiso   1.00
C1147  C     0.78576   0.55299   0.56429   0.00000  Uiso   1.00
C1148  C     0.76112   0.52164   0.59072   0.00000  Uiso   1.00
C1149  C     0.75156   0.52828   0.63759   0.00000  Uiso   1.00
C1150  C     0.76546   0.56659   0.65852   0.00000  Uiso   1.00
C1151  C     0.78871   0.59845   0.63251   0.00000  Uiso   1.00
C1152  C     0.79877   0.59181   0.58554   0.00000  Uiso   1.00
C1153  C     0.81879   0.50860   0.99258   0.00000  Uiso   1.00
C1154  C     0.81663   0.49615   0.94737   0.00000  Uiso   1.00
C1155  C     0.83848   0.48327   0.51413   0.00000  Uiso   1.00
C1156  C     0.84578   0.44204   0.99505   0.00000  Uiso   1.00
C1157  C     0.83918   0.42843   0.95185   0.00000  Uiso   1.00
C1158  C     0.82375   0.45516   0.92949   0.00000  Uiso   1.00
H1159  H     0.86674   0.40574   0.58510   0.00000  Uiso   1.00
H1160  H     0.79119   0.36926   0.90791   0.00000  Uiso   1.00
H1161  H     0.81521   0.64088   0.85868   0.00000  Uiso   1.00
H1162  H     0.88815   0.62283   0.85025   0.00000  Uiso   1.00
H1163  H     0.93842   0.33501   0.88933   0.00000  Uiso   1.00
H1164  H     0.91628   0.39866   0.93605   0.00000  Uiso   1.00
H1165  H     0.71632   0.59261   0.96237   0.00000  Uiso   1.00
H1166  H     0.72003   0.54908   0.91908   0.00000  Uiso   1.00
H1167  H     0.73388   0.59894   0.86035   0.00000  Uiso   1.00
H1168  H     0.68353   0.60352   0.90093   0.00000  Uiso   1.00
H1169  H     0.72922   0.64203   0.90369   0.00000  Uiso   1.00
H1170  H     0.98659   0.46630   0.78385   0.00000  Uiso   1.00
H1171  H     0.75051   0.49164   0.57500   0.00000  Uiso   1.00
H1172  H     0.73379   0.50346   0.65757   0.00000  Uiso   1.00
H1173  H     0.75828   0.57158   0.69486   0.00000  Uiso   1.00
H1174  H     0.79941   0.62813   0.64876   0.00000  Uiso   1.00
H1175  H     0.81770   0.61641   0.56580   0.00000  Uiso   1.00
H1176  H     0.87368   0.33698   0.71235   0.00000  Uiso   1.00
H1177  H     0.79095   0.66446   0.78807   0.00000  Uiso   1.00
H1178  H     0.85994   0.38235   0.50917   0.00000  Uiso   1.00
H1179  H     0.85302   0.53023   0.56678   0.00000  Uiso   1.00
H1180  H     0.77135   0.59804   0.50589   0.00000  Uiso   1.00
H1181  H     0.81610   0.44260   0.89807   0.00000  Uiso   1.00
H1182  H     0.68094   0.53423   0.71712   0.00000  Uiso   1.00
O1183  O     0.83333   0.50000   0.75000   0.00000  Uiso   1.00
O1184  O     0.82118   0.45970   0.65459   0.00000  Uiso   1.00
O1185  O     0.79607   0.53724   0.84968   0.00000  Uiso   1.00
O1186  O     0.87491   0.51092   0.64606   0.00000  Uiso   1.00
O1187  O     0.84118   0.49213   0.84968   0.00000  Uiso   1.00
O1188  O     0.77690   0.58873   0.92000   0.00000  Uiso   1.00
O1189  O     0.84597   0.41352   0.78214   0.00000  Uiso   1.00
O1190  O     0.81298   0.59418   0.77014   0.00000  Uiso   1.00
O1191  O     0.74078   0.46625   0.73413   0.00000  Uiso   1.00
O1192  O     0.93360   0.52605   0.71361   0.00000  Uiso   1.00
O1193  O     0.73738   0.52211   0.78213   0.00000  Uiso   1.00
O1194  O     0.92158   0.48559   0.77014   0.00000  Uiso   1.00
O1195  O     0.80426   0.40277   0.73413   0.00000  Uiso   1.00
O1196  O     0.87012   0.58953   0.71361   0.00000  Uiso   1.00
Zn1197 Zn    0.86005   0.47327   0.78734   0.00000  Uiso   1.00
Zn1198 Zn    0.80046   0.45791   0.71876   0.00000  Uiso   1.00
Zn1199 Zn    0.87723   0.53109   0.70657   0.00000  Uiso   1.00
Zn1200 Zn    0.79560   0.53773   0.78734   0.00000  Uiso   1.00
C1201  C     0.05266   0.82604   0.75991   0.00000  Uiso   1.00
C1202  C     0.18480   0.83111   0.55417   0.00000  Uiso   1.00
C1203  C     0.19520   0.76145   0.56417   0.00000  Uiso   1.00
C1204  C     0.28063   0.84080   0.74051   0.00000  Uiso   1.00
C1205  C     0.13935   0.85777   0.92141   0.00000  Uiso   1.00
C1206  C     0.32610   0.84544   0.73858   0.00000  Uiso   1.00
C1207  C     0.00748   0.82276   0.76318   0.00000  Uiso   1.00
C1208  C     0.18035   0.98906   0.73687   0.00000  Uiso   1.00
C1209  C     0.15147   0.67828   0.76363   0.00000  Uiso   1.00
C1210  C     0.15593   0.72242   0.76021   0.00000  Uiso   1.00
C1211  C     0.17650   0.94451   0.74026   0.00000  Uiso   1.00
C1212  C     0.11906   0.90380   0.98946   0.00000  Uiso   1.00
C1213  C     0.18536   0.81402   0.62924   0.00000  Uiso   1.00
C1214  C     0.14779   0.85064   0.87140   0.00000  Uiso   1.00
C1215  C     0.19064   0.74813   0.52087   0.00000  Uiso   1.00
C1216  C     0.19225   0.80305   0.58091   0.00000  Uiso   1.00
C1217  C     0.12244   0.89438   0.94351   0.00000  Uiso   1.00
C1218  C     0.18489   0.72156   0.92676   0.00000  Uiso   1.00
C1219  C     0.15666   0.69538   0.90444   0.00000  Uiso   1.00
C1220  C     0.17008   0.99359   0.87658   0.00000  Uiso   1.00
C1221  C     0.21132   0.98355   0.87159   0.00000  Uiso   1.00
C1222  C     0.23959   0.67583   0.89369   0.00000  Uiso   1.00
C1223  C     0.13252   0.87793   0.51464   0.00000  Uiso   1.00
C1224  C     0.22672   0.71164   0.92062   0.00000  Uiso   1.00
C1225  C     0.06523   0.91581   0.92698   0.00000  Uiso   1.00
C1226  C     0.05218   0.94173   0.89602   0.00000  Uiso   1.00
C1227  C     0.11910   0.88632   0.56429   0.00000  Uiso   1.00
C1228  C     0.09445   0.85497   0.59072   0.00000  Uiso   1.00
C1229  C     0.08490   0.86161   0.63759   0.00000  Uiso   1.00
C1230  C     0.09880   0.89992   0.65852   0.00000  Uiso   1.00
C1231  C     0.12204   0.93179   0.63251   0.00000  Uiso   1.00
C1232  C     0.13210   0.92514   0.58554   0.00000  Uiso   1.00
C1233  C     0.15213   0.84193   0.99258   0.00000  Uiso   1.00
C1234  C     0.14996   0.82949   0.94737   0.00000  Uiso   1.00
C1235  C     0.17181   0.81661   0.51413   0.00000  Uiso   1.00
C1236  C     0.17912   0.77537   0.99505   0.00000  Uiso   1.00
C1237  C     0.17251   0.76176   0.95185   0.00000  Uiso   1.00
C1238  C     0.15708   0.78850   0.92949   0.00000  Uiso   1.00
H1239  H     0.20007   0.73908   0.58510   0.00000  Uiso   1.00
H1240  H     0.12452   0.70260   0.90791   0.00000  Uiso   1.00
H1241  H     0.14855   0.97421   0.85868   0.00000  Uiso   1.00
H1242  H     0.22149   0.95616   0.85025   0.00000  Uiso   1.00
H1243  H     0.27175   0.66835   0.88933   0.00000  Uiso   1.00
H1244  H     0.24961   0.73199   0.93605   0.00000  Uiso   1.00
H1245  H     0.04965   0.92594   0.96237   0.00000  Uiso   1.00
H1246  H     0.05337   0.88242   0.91908   0.00000  Uiso   1.00
H1247  H     0.06721   0.93227   0.86035   0.00000  Uiso   1.00
H1248  H     0.01686   0.93685   0.90093   0.00000  Uiso   1.00
H1249  H     0.06256   0.97537   0.90369   0.00000  Uiso   1.00
H1250  H     0.31993   0.79963   0.78385   0.00000  Uiso   1.00
H1251  H     0.08384   0.82497   0.57500   0.00000  Uiso   1.00
H1252  H     0.06712   0.83679   0.65757   0.00000  Uiso   1.00
H1253  H     0.09161   0.90491   0.69486   0.00000  Uiso   1.00
H1254  H     0.13274   0.96146   0.64876   0.00000  Uiso   1.00
H1255  H     0.15104   0.94974   0.56580   0.00000  Uiso   1.00
H1256  H     0.20702   0.67031   0.71235   0.00000  Uiso   1.00
H1257  H     0.12429   0.99779   0.78807   0.00000  Uiso   1.00
H1258  H     0.19327   0.71568   0.50917   0.00000  Uiso   1.00
H1259  H     0.18636   0.86356   0.56678   0.00000  Uiso   1.00
H1260  H     0.10469   0.93137   0.50589   0.00000  Uiso   1.00
H1261  H     0.14943   0.77593   0.89807   0.00000  Uiso   1.00
H1262  H     0.01427   0.86756   0.71712   0.00000  Uiso   1.00
O1263  O     0.16667   0.83333   0.75000   0.00000  Uiso   1.00
O1264  O     0.15451   0.79304   0.65459   0.00000  Uiso   1.00
O1265  O     0.12940   0.87058   0.84968   0.00000  Uiso   1.00
O1266  O     0.20824   0.84425   0.64606   0.00000  Uiso   1.00
O1267  O     0.17451   0.82546   0.84968   0.00000  Uiso   1.00
O1268  O     0.11023   0.92206   0.92000   0.00000  Uiso   1.00
O1269  O     0.17930   0.74686   0.78214   0.00000  Uiso   1.00
O1270  O     0.14632   0.92751   0.77014   0.00000  Uiso   1.00
O1271  O     0.07412   0.79958   0.73413   0.00000  Uiso   1.00
O1272  O     0.26693   0.85939   0.71361   0.00000  Uiso   1.00
O1273  O     0.07071   0.85544   0.78213   0.00000  Uiso   1.00
O1274  O     0.25491   0.81892   0.77014   0.00000  Uiso   1.00
O1275  O     0.13760   0.73610   0.73413   0.00000  Uiso   1.00
O1276  O     0.20345   0.92286   0.71361   0.00000  Uiso   1.00
Zn1277 Zn    0.19338   0.80661   0.78734   0.00000  Uiso   1.00
Zn1278 Zn    0.13379   0.79124   0.71876   0.00000  Uiso   1.00
Zn1279 Zn    0.21056   0.86442   0.70657   0.00000  Uiso   1.00
Zn1280 Zn    0.12893   0.87106   0.78734   0.00000  Uiso   1.00
C1281  C     0.38600   0.82604   0.75991   0.00000  Uiso   1.00
C1282  C     0.51814   0.83111   0.55417   0.00000  Uiso   1.00
C1283  C     0.52853   0.76145   0.56417   0.00000  Uiso   1.00
C1284  C     0.61396   0.84080   0.74051   0.00000  Uiso   1.00
C1285  C     0.47268   0.85777   0.92141   0.00000  Uiso   1.00
C1286  C     0.65943   0.84544   0.73858   0.00000  Uiso   1.00
C1287  C     0.34081   0.82276   0.76318   0.00000  Uiso   1.00
C1288  C     0.51369   0.98906   0.73687   0.00000  Uiso   1.00
C1289  C     0.48480   0.67828   0.76363   0.00000  Uiso   1.00
C1290  C     0.48927   0.72242   0.76021   0.00000  Uiso   1.00
C1291  C     0.50983   0.94451   0.74026   0.00000  Uiso   1.00
C1292  C     0.45240   0.90380   0.98946   0.00000  Uiso   1.00
C1293  C     0.51869   0.81402   0.62924   0.00000  Uiso   1.00
C1294  C     0.48112   0.85064   0.87140   0.00000  Uiso   1.00
C1295  C     0.52397   0.74813   0.52087   0.00000  Uiso   1.00
C1296  C     0.52558   0.80305   0.58091   0.00000  Uiso   1.00
C1297  C     0.45577   0.89438   0.94351   0.00000  Uiso   1.00
C1298  C     0.51822   0.72156   0.92676   0.00000  Uiso   1.00
C1299  C     0.48999   0.69538   0.90444   0.00000  Uiso   1.00
C1300  C     0.50342   0.99359   0.87658   0.00000  Uiso   1.00
C1301  C     0.54466   0.98355   0.87159   0.00000  Uiso   1.00
C1302  C     0.57292   0.67583   0.89369   0.00000  Uiso   1.00
C1303  C     0.46586   0.87793   0.51464   0.00000  Uiso   1.00
C1304  C     0.56005   0.71164   0.92062   0.00000  Uiso   1.00
C1305  C     0.39856   0.91581   0.92698   0.00000  Uiso   1.00
C1306  C     0.38552   0.94173   0.89602   0.00000  Uiso   1.00
C1307  C     0.45243   0.88632   0.56429   0.00000  Uiso   1.00
C1308  C     0.42779   0.85497   0.59072   0.00000  Uiso   1.00
C1309  C     0.41823   0.86161   0.63759   0.00000  Uiso   1.00
C1310  C     0.43213   0.89992   0.65852   0.00000  Uiso   1.00
C1311  C     0.45538   0.93179   0.63251   0.00000  Uiso   1.00
C1312  C     0.46543   0.92514   0.58554   0.00000  Uiso   1.00
C1313  C     0.48546   0.84193   0.99258   0.00000  Uiso   1.00
C1314  C     0.48330   0.82949   0.94737   0.00000  Uiso   1.00
C1315  C     0.50515   0.81661   0.51413   0.00000  Uiso   1.00
C1316  C     0.51245   0.77537   0.99505   0.00000  Uiso   1.00
C1317  C     0.50585   0.76176   0.95185   0.00000  Uiso   1.00
C1318  C     0.49041   0.78850   0.92949   0.00000  Uiso   1.00
H1319  H     0.53341   0.73908   0.58510   0.00000  Uiso   1.00
H1320  H     0.45786   0.70260   0.90791   0.00000  Uiso   1.00
H1321  H     0.48188   0.97421   0.85868   0.00000  Uiso   1.00
H1322  H     0.55482   0.95616   0.85025   0.00000  Uiso   1.00
H1323  H     0.60509   0.66835   0.88933   0.00000  Uiso   1.00
H1324  H     0.58294   0.73199   0.93605   0.00000  Uiso   1.00
H1325  H     0.38299   0.92594   0.96237   0.00000  Uiso   1.00
H1326  H     0.38670   0.88242   0.91908   0.00000  Uiso   1.00
H1327  H     0.40055   0.93227   0.86035   0.00000  Uiso   1.00
H1328  H     0.35019   0.93685   0.90093   0.00000  Uiso   1.00
H1329  H     0.39589   0.97537   0.90369   0.00000  Uiso   1.00
H1330  H     0.65326   0.79963   0.78385   0.00000  Uiso   1.00
H1331  H     0.41717   0.82497   0.57500   0.00000  Uiso   1.00
H1332  H     0.40046   0.83679   0.65757   0.00000  Uiso   1.00
H1333  H     0.42495   0.90491   0.69486   0.00000  Uiso   1.00
H1334  H     0.46608   0.96146   0.64876   0.00000  Uiso   1.00
H1335  H     0.48437   0.94974   0.56580   0.00000  Uiso   1.00
H1336  H     0.54035   0.67031   0.71235   0.00000  Uiso   1.00
H1337  H     0.45762   0.99779   0.78807   0.00000  Uiso   1.00
H1338  H     0.52660   0.71568   0.50917   0.00000  Uiso   1.00
H1339  H     0.51969   0.86356   0.56678   0.00000  Uiso   1.00
H1340  H     0.43802   0.93137   0.50589   0.00000  Uiso   1.00
H1341  H     0.48277   0.77593   0.89807   0.00000  Uiso   1.00
H1342  H     0.34760   0.86756   0.71712   0.00000  Uiso   1.00
O1343  O     0.50000   0.83333   0.75000   0.00000  Uiso   1.00
O1344  O     0.48784   0.79304   0.65459   0.00000  Uiso   1.00
O1345  O     0.46274   0.87058   0.84968   0.00000  Uiso   1.00
O1346  O     0.54157   0.84425   0.64606   0.00000  Uiso   1.00
O1347  O     0.50785   0.82546   0.84968   0.00000  Uiso   1.00
O1348  O     0.44356   0.92206   0.92000   0.00000  Uiso   1.00
O1349  O     0.51264   0.74686   0.78214   0.00000  Uiso   1.00
O1350  O     0.47965   0.92751   0.77014   0.00000  Uiso   1.00
O1351  O     0.40745   0.79958   0.73413   0.00000  Uiso   1.00
O1352  O     0.60026   0.85939   0.71361   0.00000  Uiso   1.00
O1353  O     0.40405   0.85544   0.78213   0.00000  Uiso   1.00
O1354  O     0.58824   0.81892   0.77014   0.00000  Uiso   1.00
O1355  O     0.47093   0.73610   0.73413   0.00000  Uiso   1.00
O1356  O     0.53678   0.92286   0.71361   0.00000  Uiso   1.00
Zn1357 Zn    0.52672   0.80661   0.78734   0.00000  Uiso   1.00
Zn1358 Zn    0.46713   0.79124   0.71876   0.00000  Uiso   1.00
Zn1359 Zn    0.54389   0.86442   0.70657   0.00000  Uiso   1.00
Zn1360 Zn    0.46226   0.87106   0.78734   0.00000  Uiso   1.00
C1361  C     0.71933   0.82604   0.75991   0.00000  Uiso   1.00
C1362  C     0.85147   0.83111   0.55417   0.00000  Uiso   1.00
C1363  C     0.86186   0.76145   0.56417   0.00000  Uiso   1.00
C1364  C     0.94729   0.84080   0.74051   0.00000  Uiso   1.00
C1365  C     0.80601   0.85777   0.92141   0.00000  Uiso   1.00
C1366  C     0.99276   0.84544   0.73858   0.00000  Uiso   1.00
C1367  C     0.67414   0.82276   0.76318   0.00000  Uiso   1.00
C1368  C     0.84702   0.98906   0.73687   0.00000  Uiso   1.00
C1369  C     0.81814   0.67828   0.76363   0.00000  Uiso   1.00
C1370  C     0.82260   0.72242   0.76021   0.00000  Uiso   1.00
C1371  C     0.84316   0.94451   0.74026   0.00000  Uiso   1.00
C1372  C     0.78573   0.90380   0.98946   0.00000  Uiso   1.00
C1373  C     0.85203   0.81402   0.62924   0.00000  Uiso   1.00
C1374  C     0.81446   0.85064   0.87140   0.00000  Uiso   1.00
C1375  C     0.85731   0.74813   0.52087   0.00000  Uiso   1.00
C1376  C     0.85892   0.80305   0.58091   0.00000  Uiso   1.00
C1377  C     0.78910   0.89438   0.94351   0.00000  Uiso   1.00
C1378  C     0.85155   0.72156   0.92676   0.00000  Uiso   1.00
C1379  C     0.82332   0.69538   0.90444   0.00000  Uiso   1.00
C1380  C     0.83675   0.99359   0.87658   0.00000  Uiso   1.00
C1381  C     0.87799   0.98355   0.87159   0.00000  Uiso   1.00
C1382  C     0.90626   0.67583   0.89369   0.00000  Uiso   1.00
C1383  C     0.79919   0.87793   0.51464   0.00000  Uiso   1.00
C1384  C     0.89338   0.71164   0.92062   0.00000  Uiso   1.00
C1385  C     0.73189   0.91581   0.92698   0.00000  Uiso   1.00
C1386  C     0.71885   0.94173   0.89602   0.00000  Uiso   1.00
C1387  C     0.78576   0.88632   0.56429   0.00000  Uiso   1.00
C1388  C     0.76112   0.85497   0.59072   0.00000  Uiso   1.00
C1389  C     0.75156   0.86161   0.63759   0.00000  Uiso   1.00
C1390  C     0.76546   0.89992   0.65852   0.00000  Uiso   1.00
C1391  C     0.78871   0.93179   0.63251   0.00000  Uiso   1.00
C1392  C     0.79877   0.92514   0.58554   0.00000  Uiso   1.00
C1393  C     0.81879   0.84193   0.99258   0.00000  Uiso   1.00
C1394  C     0.81663   0.82949   0.94737   0.00000  Uiso   1.00
C1395  C     0.83848   0.81661   0.51413   0.00000  Uiso   1.00
C1396  C     0.84578   0.77537   0.99505   0.00000  Uiso   1.00
C1397  C     0.83918   0.76176   0.95185   0.00000  Uiso   1.00
C1398  C     0.82375   0.78850   0.92949   0.00000  Uiso   1.00
H1399  H     0.86674   0.73908   0.58510   0.00000  Uiso   1.00
H1400  H     0.79119   0.70260   0.90791   0.00000  Uiso   1.00
H1401  H     0.81521   0.97421   0.85868   0.00000  Uiso   1.00
H1402  H     0.88815   0.95616   0.85025   0.00000  Uiso   1.00
H1403  H     0.93842   0.66835   0.88933   0.00000  Uiso   1.00
H1404  H     0.91628   0.73199   0.93605   0.00000  Uiso   1.00
H1405  H     0.71632   0.92594   0.96237   0.00000  Uiso   1.00
H1406  H     0.72003   0.88242   0.91908   0.00000  Uiso   1.00
H1407  H     0.73388   0.93227   0.86035   0.00000  Uiso   1.00
H1408  H     0.68353   0.93685   0.90093   0.00000  Uiso   1.00
H1409  H     0.72922   0.97537   0.90369   0.00000  Uiso   1.00
H1410  H     0.98659   0.79963   0.78385   0.00000  Uiso   1.00
H1411  H     0.75051   0.82497   0.57500   0.00000  Uiso   1.00
H1412  H     0.73379   0.83679   0.65757   0.00000  Uiso   1.00
H1413  H     0.75828   0.90491   0.69486   0.00000  Uiso   1.00
H1414  H     0.79941   0.96146   0.64876   0.00000  Uiso   1.00
H1415  H     0.81770   0.94974   0.56580   0.00000  Uiso   1.00
H1416  H     0.87368   0.67031   0.71235   0.00000  Uiso   1.00
H1417  H     0.79095   0.99779   0.78807   0.00000  Uiso   1.00
H1418  H     0.85994   0.71568   0.50917   0.00000  Uiso   1.00
H1419  H     0.85302   0.86356   0.56678   0.00000  Uiso   1.00
H1420  H     0.77135   0.93137   0.50589   0.00000  Uiso   1.00
H1421  H     0.81610   0.77593   0.89807   0.00000  Uiso   1.00
H1422  H     0.68094   0.86756   0.71712   0.00000  Uiso   1.00
O1423  O     0.83333   0.83333   0.75000   0.00000  Uiso   1.00
O1424  O     0.82118   0.79304   0.65459   0.00000  Uiso   1.00
O1425  O     0.79607   0.87058   0.84968   0.00000  Uiso   1.00
O1426  O     0.87491   0.84425   0.64606   0.00000  Uiso   1.00
O1427  O     0.84118   0.82546   0.84968   0.00000  Uiso   1.00
O1428  O     0.77690   0.92206   0.92000   0.00000  Uiso   1.00
O1429  O     0.84597   0.74686   0.78214   0.00000  Uiso   1.00
O1430  O     0.81298   0.92751   0.77014   0.00000  Uiso   1.00
O1431  O     0.74078   0.79958   0.73413   0.00000  Uiso   1.00
O1432  O     0.93360   0.85939   0.71361   0.00000  Uiso   1.00
O1433  O     0.73738   0.85544   0.78213   0.00000  Uiso   1.00
O1434  O     0.92158   0.81892   0.77014   0.00000  Uiso   1.00
O1435  O     0.80426   0.73610   0.73413   0.00000  Uiso   1.00
O1436  O     0.87012   0.92286   0.71361   0.00000  Uiso   1.00
Zn1437 Zn    0.86005   0.80661   0.78734   0.00000  Uiso   1.00
Zn1438 Zn    0.80046   0.79124   0.71876   0.00000  Uiso   1.00
Zn1439 Zn    0.87723   0.86442   0.70657   0.00000  Uiso   1.00
Zn1440 Zn    0.79560   0.87106   0.78734   0.00000  Uiso   1.00
loop_
_geom_bond_atom_site_label_1
_geom_bond_atom_site_label_2
_geom_bond_distance
_geom_bond_site_symmetry_2
_ccdc_geom_bond_type
C1     O71     1.263   .     A
C1     C7      1.437   .     S
C1     O73     1.266   .     A
C2     C35     1.409   .     A
C2     C16     1.388   .     A
C2     H59     1.078   .     S
C3     H39     1.084   .     S
C3     C15     1.390   .     A
C3     C16     1.396   .     A
C4     O74     1.279   .     A
C4     C6      1.452   .     S
C4     O72     1.283   .     A
C5     C17     1.413   .     A
C5     C34     1.423   .     A
C5     C14     1.492   .     S
C6     C87     1.333   .     S
C6     H142    1.085   .     S
C7     C166    1.333   1_455 S
C7     H210    1.086   1_455 S
C8     C11     1.451   .     S
C8     C249    1.331   .     S
C8     H296    1.088   .     S
C9     C10     1.436   .     S
C9     C488    1.331   1_545 S
C9     H537    1.086   1_545 S
C10    O75     1.270   .     A
C10    O69     1.270   .     A
C11    O70     1.275   .     A
C11    O76     1.273   .     A
C12    C17     1.392   .     A
C12    C743    1.396   .     S
C12    H780    1.084   .     S
C13    O66     1.281   .     A
C13    O64     1.270   .     A
C13    C16     1.457   .     S
C14    O65     1.286   .     A
C14    O67     1.289   .     A
C15    H58     1.082   .     S
C15    C756    1.409   1_554 S
C17    O68     1.382   .     S
C18    C24     1.408   .     A
C18    C19     1.408   .     A
C18    C37     1.492   .     S
C19    H40     1.083   .     S
C19    C500    1.398   1_545 S
C20    H41     1.082   .     S
C20    C21     1.396   .     A
C20    C259    1.398   .     S
C21    H42     1.083   .     S
C21    C262    1.397   .     S
C22    H43     1.082   .     S
C22    C24     1.399   .     A
C22    C501    1.397   1_545 S
C23    C27     1.485   .     S
C23    C732    1.396   1_554 S
C23    C753    1.433   1_554 S
C24    H44     1.083   .     S
C25    O68     1.413   .     S
C25    C26     1.521   .     S
C25    H45     1.113   .     S
C25    H46     1.116   .     S
C26    H48     1.111   .     S
C26    H49     1.110   .     S
C26    H47     1.111   .     S
C27    C32     1.407   .     A
C27    C28     1.406   .     A
C28    H51     1.083   .     S
C28    C29     1.396   .     A
C29    C30     1.398   .     A
C29    H52     1.081   .     S
C30    C31     1.398   .     A
C30    H53     1.082   .     S
C31    C32     1.399   .     A
C31    H54     1.083   .     S
C32    H55     1.083   .     S
C33    C34     1.420   .     A
C33    C743    1.433   .     S
C33    C755    1.429   .     S
C34    C38     1.409   .     A
C35    C753    1.429   1_554 S
C35    C756    1.426   1_554 S
C36    C37     1.410   .     A
C36    C755    1.426   .     S
C36    C735    1.409   .     S
C37    C38     1.393   .     A
C38    H61     1.078   .     S
H50    C87     1.086   .     S
H56    C488    1.088   1_545 S
H57    C249    1.086   .     S
H60    C732    1.084   1_554 S
H62    C166    1.085   1_455 S
O63    Zn79    1.947   .     S
O63    Zn80    1.933   .     S
O63    Zn77    1.955   .     S
O63    Zn78    1.924   .     S
O64    Zn78    1.928   .     S
O65    Zn80    1.929   .     S
O66    Zn79    1.917   .     S
O67    Zn77    1.918   .     S
O69    Zn77    1.926   .     S
O70    Zn80    1.937   .     S
O71    Zn78    1.933   .     S
O72    Zn79    1.934   .     S
O73    Zn80    1.928   .     S
O74    Zn77    1.931   .     S
O75    Zn78    1.941   .     S
O76    Zn79    1.930   .     S
C81    O151    1.263   .     A
C81    C87     1.437   .     S
C81    O153    1.266   .     A
C82    C115    1.409   .     A
C82    C96     1.388   .     A
C82    H139    1.078   .     S
C83    H119    1.084   .     S
C83    C95     1.390   .     A
C83    C96     1.396   .     A
C84    O154    1.279   .     A
C84    C86     1.452   .     S
C84    O152    1.283   .     A
C85    C97     1.413   .     A
C85    C114    1.423   .     A
C85    C94     1.492   .     S
C86    C167    1.333   .     S
C86    H222    1.085   .     S
C88    C91     1.451   .     S
C88    C329    1.331   .     S
C88    H376    1.088   .     S
C89    C90     1.436   .     S
C89    C568    1.331   1_545 S
C89    H617    1.086   1_545 S
C90    O155    1.270   .     A
C90    O149    1.270   .     A
C91    O150    1.275   .     A
C91    O156    1.273   .     A
C92    C97     1.392   .     A
C92    C823    1.396   .     S
C92    H860    1.084   .     S
C93    O146    1.281   .     A
C93    O144    1.270   .     A
C93    C96     1.457   .     S
C94    O145    1.286   .     A
C94    O147    1.289   .     A
C95    H138    1.082   .     S
C95    C836    1.409   1_554 S
C97    O148    1.382   .     S
C98    C104    1.408   .     A
C98    C99     1.408   .     A
C98    C117    1.492   .     S
C99    H120    1.083   .     S
C99    C580    1.398   1_545 S
C100   H121    1.082   .     S
C100   C101    1.396   .     A
C100   C339    1.398   .     S
C101   H122    1.083   .     S
C101   C342    1.397   .     S
C102   H123    1.082   .     S
C102   C104    1.399   .     A
C102   C581    1.397   1_545 S
C103   C107    1.485   .     S
C103   C812    1.396   1_554 S
C103   C833    1.433   1_554 S
C104   H124    1.083   .     S
C105   O148    1.413   .     S
C105   C106    1.521   .     S
C105   H125    1.113   .     S
C105   H126    1.116   .     S
C106   H128    1.111   .     S
C106   H129    1.110   .     S
C106   H127    1.111   .     S
C107   C112    1.407   .     A
C107   C108    1.406   .     A
C108   H131    1.083   .     S
C108   C109    1.396   .     A
C109   C110    1.398   .     A
C109   H132    1.081   .     S
C110   C111    1.398   .     A
C110   H133    1.082   .     S
C111   C112    1.399   .     A
C111   H134    1.083   .     S
C112   H135    1.083   .     S
C113   C114    1.420   .     A
C113   C823    1.433   .     S
C113   C835    1.429   .     S
C114   C118    1.409   .     A
C115   C833    1.429   1_554 S
C115   C836    1.426   1_554 S
C116   C117    1.410   .     A
C116   C835    1.426   .     S
C116   C815    1.409   .     S
C117   C118    1.393   .     A
C118   H141    1.078   .     S
H130   C167    1.086   .     S
H136   C568    1.088   1_545 S
H137   C329    1.086   .     S
H140   C812    1.084   1_554 S
O143   Zn159   1.947   .     S
O143   Zn160   1.933   .     S
O143   Zn157   1.955   .     S
O143   Zn158   1.924   .     S
O144   Zn158   1.928   .     S
O145   Zn160   1.929   .     S
O146   Zn159   1.917   .     S
O147   Zn157   1.918   .     S
O149   Zn157   1.926   .     S
O150   Zn160   1.937   .     S
O151   Zn158   1.933   .     S
O152   Zn159   1.934   .     S
O153   Zn160   1.928   .     S
O154   Zn157   1.931   .     S
O155   Zn158   1.941   .     S
O156   Zn159   1.930   .     S
C161   O231    1.263   .     A
C161   C167    1.437   .     S
C161   O233    1.266   .     A
C162   C195    1.409   .     A
C162   C176    1.388   .     A
C162   H219    1.078   .     S
C163   H199    1.084   .     S
C163   C175    1.390   .     A
C163   C176    1.396   .     A
C164   O234    1.279   .     A
C164   C166    1.452   .     S
C164   O232    1.283   .     A
C165   C177    1.413   .     A
C165   C194    1.423   .     A
C165   C174    1.492   .     S
C166   C7      1.333   1_655 S
C166   H62     1.085   1_655 S
C168   C171    1.451   .     S
C168   C409    1.331   .     S
C168   H456    1.088   .     S
C169   C170    1.436   .     S
C169   C648    1.331   1_545 S
C169   H697    1.086   1_545 S
C170   O235    1.270   .     A
C170   O229    1.270   .     A
C171   O230    1.275   .     A
C171   O236    1.273   .     A
C172   C177    1.392   .     A
C172   C903    1.396   .     S
C172   H940    1.084   .     S
C173   O226    1.281   .     A
C173   O224    1.270   .     A
C173   C176    1.457   .     S
C174   O225    1.286   .     A
C174   O227    1.289   .     A
C175   H218    1.082   .     S
C175   C916    1.409   1_554 S
C177   O228    1.382   .     S
C178   C184    1.408   .     A
C178   C179    1.408   .     A
C178   C197    1.492   .     S
C179   H200    1.083   .     S
C179   C660    1.398   1_545 S
C180   H201    1.082   .     S
C180   C181    1.396   .     A
C180   C419    1.398   .     S
C181   H202    1.083   .     S
C181   C422    1.397   .     S
C182   H203    1.082   .     S
C182   C184    1.399   .     A
C182   C661    1.397   1_545 S
C183   C187    1.485   .     S
C183   C892    1.396   1_554 S
C183   C913    1.433   1_554 S
C184   H204    1.083   .     S
C185   O228    1.413   .     S
C185   C186    1.521   .     S
C185   H205    1.113   .     S
C185   H206    1.116   .     S
C186   H208    1.111   .     S
C186   H209    1.110   .     S
C186   H207    1.111   .     S
C187   C192    1.407   .     A
C187   C188    1.406   .     A
C188   H211    1.083   .     S
C188   C189    1.396   .     A
C189   C190    1.398   .     A
C189   H212    1.081   .     S
C190   C191    1.398   .     A
C190   H213    1.082   .     S
C191   C192    1.399   .     A
C191   H214    1.083   .     S
C192   H215    1.083   .     S
C193   C194    1.420   .     A
C193   C903    1.433   .     S
C193   C915    1.429   .     S
C194   C198    1.409   .     A
C195   C913    1.429   1_554 S
C195   C916    1.426   1_554 S
C196   C197    1.410   .     A
C196   C915    1.426   .     S
C196   C895    1.409   .     S
C197   C198    1.393   .     A
C198   H221    1.078   .     S
H210   C7      1.086   1_655 S
H216   C648    1.088   1_545 S
H217   C409    1.086   .     S
H220   C892    1.084   1_554 S
O223   Zn239   1.947   .     S
O223   Zn240   1.933   .     S
O223   Zn237   1.955   .     S
O223   Zn238   1.924   .     S
O224   Zn238   1.928   .     S
O225   Zn240   1.929   .     S
O226   Zn239   1.917   .     S
O227   Zn237   1.918   .     S
O229   Zn237   1.926   .     S
O230   Zn240   1.937   .     S
O231   Zn238   1.933   .     S
O232   Zn239   1.934   .     S
O233   Zn240   1.928   .     S
O234   Zn237   1.931   .     S
O235   Zn238   1.941   .     S
O236   Zn239   1.930   .     S
C241   O311    1.263   .     A
C241   C247    1.437   .     S
C241   O313    1.266   .     A
C242   C275    1.409   .     A
C242   C256    1.388   .     A
C242   H299    1.078   .     S
C243   H279    1.084   .     S
C243   C255    1.390   .     A
C243   C256    1.396   .     A
C244   O314    1.279   .     A
C244   C246    1.452   .     S
C244   O312    1.283   .     A
C245   C257    1.413   .     A
C245   C274    1.423   .     A
C245   C254    1.492   .     S
C246   C327    1.333   .     S
C246   H382    1.085   .     S
C247   C406    1.333   1_455 S
C247   H450    1.086   1_455 S
C248   C251    1.451   .     S
C248   C489    1.331   .     S
C248   H536    1.088   .     S
C249   C250    1.436   .     S
C250   O315    1.270   .     A
C250   O309    1.270   .     A
C251   O310    1.275   .     A
C251   O316    1.273   .     A
C252   C257    1.392   .     A
C252   C983    1.396   .     S
C252   H1020   1.084   .     S
C253   O306    1.281   .     A
C253   O304    1.270   .     A
C253   C256    1.457   .     S
C254   O305    1.286   .     A
C254   O307    1.289   .     A
C255   H298    1.082   .     S
C255   C996    1.409   1_554 S
C257   O308    1.382   .     S
C258   C264    1.408   .     A
C258   C259    1.408   .     A
C258   C277    1.492   .     S
C259   H280    1.083   .     S
C260   H281    1.082   .     S
C260   C261    1.396   .     A
C260   C499    1.398   .     S
C261   H282    1.083   .     S
C261   C502    1.397   .     S
C262   H283    1.082   .     S
C262   C264    1.399   .     A
C263   C267    1.485   .     S
C263   C972    1.396   1_554 S
C263   C993    1.433   1_554 S
C264   H284    1.083   .     S
C265   O308    1.413   .     S
C265   C266    1.521   .     S
C265   H285    1.113   .     S
C265   H286    1.116   .     S
C266   H288    1.111   .     S
C266   H289    1.110   .     S
C266   H287    1.111   .     S
C267   C272    1.407   .     A
C267   C268    1.406   .     A
C268   H291    1.083   .     S
C268   C269    1.396   .     A
C269   C270    1.398   .     A
C269   H292    1.081   .     S
C270   C271    1.398   .     A
C270   H293    1.082   .     S
C271   C272    1.399   .     A
C271   H294    1.083   .     S
C272   H295    1.083   .     S
C273   C274    1.420   .     A
C273   C983    1.433   .     S
C273   C995    1.429   .     S
C274   C278    1.409   .     A
C275   C993    1.429   1_554 S
C275   C996    1.426   1_554 S
C276   C277    1.410   .     A
C276   C995    1.426   .     S
C276   C975    1.409   .     S
C277   C278    1.393   .     A
C278   H301    1.078   .     S
H290   C327    1.086   .     S
H297   C489    1.086   .     S
H300   C972    1.084   1_554 S
H302   C406    1.085   1_455 S
O303   Zn319   1.947   .     S
O303   Zn320   1.933   .     S
O303   Zn317   1.955   .     S
O303   Zn318   1.924   .     S
O304   Zn318   1.928   .     S
O305   Zn320   1.929   .     S
O306   Zn319   1.917   .     S
O307   Zn317   1.918   .     S
O309   Zn317   1.926   .     S
O310   Zn320   1.937   .     S
O311   Zn318   1.933   .     S
O312   Zn319   1.934   .     S
O313   Zn320   1.928   .     S
O314   Zn317   1.931   .     S
O315   Zn318   1.941   .     S
O316   Zn319   1.930   .     S
C321   O391    1.263   .     A
C321   C327    1.437   .     S
C321   O393    1.266   .     A
C322   C355    1.409   .     A
C322   C336    1.388   .     A
C322   H379    1.078   .     S
C323   H359    1.084   .     S
C323   C335    1.390   .     A
C323   C336    1.396   .     A
C324   O394    1.279   .     A
C324   C326    1.452   .     S
C324   O392    1.283   .     A
C325   C337    1.413   .     A
C325   C354    1.423   .     A
C325   C334    1.492   .     S
C326   C407    1.333   .     S
C326   H462    1.085   .     S
C328   C331    1.451   .     S
C328   C569    1.331   .     S
C328   H616    1.088   .     S
C329   C330    1.436   .     S
C330   O395    1.270   .     A
C330   O389    1.270   .     A
C331   O390    1.275   .     A
C331   O396    1.273   .     A
C332   C337    1.392   .     A
C332   C1063   1.396   .     S
C332   H1100   1.084   .     S
C333   O386    1.281   .     A
C333   O384    1.270   .     A
C333   C336    1.457   .     S
C334   O385    1.286   .     A
C334   O387    1.289   .     A
C335   H378    1.082   .     S
C335   C1076   1.409   1_554 S
C337   O388    1.382   .     S
C338   C344    1.408   .     A
C338   C339    1.408   .     A
C338   C357    1.492   .     S
C339   H360    1.083   .     S
C340   H361    1.082   .     S
C340   C341    1.396   .     A
C340   C579    1.398   .     S
C341   H362    1.083   .     S
C341   C582    1.397   .     S
C342   H363    1.082   .     S
C342   C344    1.399   .     A
C343   C347    1.485   .     S
C343   C1052   1.396   1_554 S
C343   C1073   1.433   1_554 S
C344   H364    1.083   .     S
C345   O388    1.413   .     S
C345   C346    1.521   .     S
C345   H365    1.113   .     S
C345   H366    1.116   .     S
C346   H368    1.111   .     S
C346   H369    1.110   .     S
C346   H367    1.111   .     S
C347   C352    1.407   .     A
C347   C348    1.406   .     A
C348   H371    1.083   .     S
C348   C349    1.396   .     A
C349   C350    1.398   .     A
C349   H372    1.081   .     S
C350   C351    1.398   .     A
C350   H373    1.082   .     S
C351   C352    1.399   .     A
C351   H374    1.083   .     S
C352   H375    1.083   .     S
C353   C354    1.420   .     A
C353   C1063   1.433   .     S
C353   C1075   1.429   .     S
C354   C358    1.409   .     A
C355   C1073   1.429   1_554 S
C355   C1076   1.426   1_554 S
C356   C357    1.410   .     A
C356   C1075   1.426   .     S
C356   C1055   1.409   .     S
C357   C358    1.393   .     A
C358   H381    1.078   .     S
H370   C407    1.086   .     S
H377   C569    1.086   .     S
H380   C1052   1.084   1_554 S
O383   Zn399   1.947   .     S
O383   Zn400   1.933   .     S
O383   Zn397   1.955   .     S
O383   Zn398   1.924   .     S
O384   Zn398   1.928   .     S
O385   Zn400   1.929   .     S
O386   Zn399   1.917   .     S
O387   Zn397   1.918   .     S
O389   Zn397   1.926   .     S
O390   Zn400   1.937   .     S
O391   Zn398   1.933   .     S
O392   Zn399   1.934   .     S
O393   Zn400   1.928   .     S
O394   Zn397   1.931   .     S
O395   Zn398   1.941   .     S
O396   Zn399   1.930   .     S
C401   O471    1.263   .     A
C401   C407    1.437   .     S
C401   O473    1.266   .     A
C402   C435    1.409   .     A
C402   C416    1.388   .     A
C402   H459    1.078   .     S
C403   H439    1.084   .     S
C403   C415    1.390   .     A
C403   C416    1.396   .     A
C404   O474    1.279   .     A
C404   C406    1.452   .     S
C404   O472    1.283   .     A
C405   C417    1.413   .     A
C405   C434    1.423   .     A
C405   C414    1.492   .     S
C406   C247    1.333   1_655 S
C406   H302    1.085   1_655 S
C408   C411    1.451   .     S
C408   C649    1.331   .     S
C408   H696    1.088   .     S
C409   C410    1.436   .     S
C410   O475    1.270   .     A
C410   O469    1.270   .     A
C411   O470    1.275   .     A
C411   O476    1.273   .     A
C412   C417    1.392   .     A
C412   C1143   1.396   .     S
C412   H1180   1.084   .     S
C413   O466    1.281   .     A
C413   O464    1.270   .     A
C413   C416    1.457   .     S
C414   O465    1.286   .     A
C414   O467    1.289   .     A
C415   H458    1.082   .     S
C415   C1156   1.409   1_554 S
C417   O468    1.382   .     S
C418   C424    1.408   .     A
C418   C419    1.408   .     A
C418   C437    1.492   .     S
C419   H440    1.083   .     S
C420   H441    1.082   .     S
C420   C421    1.396   .     A
C420   C659    1.398   .     S
C421   H442    1.083   .     S
C421   C662    1.397   .     S
C422   H443    1.082   .     S
C422   C424    1.399   .     A
C423   C427    1.485   .     S
C423   C1132   1.396   1_554 S
C423   C1153   1.433   1_554 S
C424   H444    1.083   .     S
C425   O468    1.413   .     S
C425   C426    1.521   .     S
C425   H445    1.113   .     S
C425   H446    1.116   .     S
C426   H448    1.111   .     S
C426   H449    1.110   .     S
C426   H447    1.111   .     S
C427   C432    1.407   .     A
C427   C428    1.406   .     A
C428   H451    1.083   .     S
C428   C429    1.396   .     A
C429   C430    1.398   .     A
C429   H452    1.081   .     S
C430   C431    1.398   .     A
C430   H453    1.082   .     S
C431   C432    1.399   .     A
C431   H454    1.083   .     S
C432   H455    1.083   .     S
C433   C434    1.420   .     A
C433   C1143   1.433   .     S
C433   C1155   1.429   .     S
C434   C438    1.409   .     A
C435   C1153   1.429   1_554 S
C435   C1156   1.426   1_554 S
C436   C437    1.410   .     A
C436   C1155   1.426   .     S
C436   C1135   1.409   .     S
C437   C438    1.393   .     A
C438   H461    1.078   .     S
H450   C247    1.086   1_655 S
H457   C649    1.086   .     S
H460   C1132   1.084   1_554 S
O463   Zn479   1.947   .     S
O463   Zn480   1.933   .     S
O463   Zn477   1.955   .     S
O463   Zn478   1.924   .     S
O464   Zn478   1.928   .     S
O465   Zn480   1.929   .     S
O466   Zn479   1.917   .     S
O467   Zn477   1.918   .     S
O469   Zn477   1.926   .     S
O470   Zn480   1.937   .     S
O471   Zn478   1.933   .     S
O472   Zn479   1.934   .     S
O473   Zn480   1.928   .     S
O474   Zn477   1.931   .     S
O475   Zn478   1.941   .     S
O476   Zn479   1.930   .     S
C481   O551    1.263   .     A
C481   C487    1.437   .     S
C481   O553    1.266   .     A
C482   C515    1.409   .     A
C482   C496    1.388   .     A
C482   H539    1.078   .     S
C483   H519    1.084   .     S
C483   C495    1.390   .     A
C483   C496    1.396   .     A
C484   O554    1.279   .     A
C484   C486    1.452   .     S
C484   O552    1.283   .     A
C485   C497    1.413   .     A
C485   C514    1.423   .     A
C485   C494    1.492   .     S
C486   C567    1.333   .     S
C486   H622    1.085   .     S
C487   C646    1.333   1_455 S
C487   H690    1.086   1_455 S
C488   C491    1.451   .     S
C488   C9      1.331   1_565 S
C488   H56     1.088   1_565 S
C489   C490    1.436   .     S
C490   O555    1.270   .     A
C490   O549    1.270   .     A
C491   O550    1.275   .     A
C491   O556    1.273   .     A
C492   C497    1.392   .     A
C492   C1223   1.396   .     S
C492   H1260   1.084   .     S
C493   O546    1.281   .     A
C493   O544    1.270   .     A
C493   C496    1.457   .     S
C494   O545    1.286   .     A
C494   O547    1.289   .     A
C495   H538    1.082   .     S
C495   C1236   1.409   1_554 S
C497   O548    1.382   .     S
C498   C504    1.408   .     A
C498   C499    1.408   .     A
C498   C517    1.492   .     S
C499   H520    1.083   .     S
C500   H521    1.082   .     S
C500   C501    1.396   .     A
C500   C19     1.398   1_565 S
C501   H522    1.083   .     S
C501   C22     1.397   1_565 S
C502   H523    1.082   .     S
C502   C504    1.399   .     A
C503   C507    1.485   .     S
C503   C1212   1.396   1_554 S
C503   C1233   1.433   1_554 S
C504   H524    1.083   .     S
C505   O548    1.413   .     S
C505   C506    1.521   .     S
C505   H525    1.113   .     S
C505   H526    1.116   .     S
C506   H528    1.111   .     S
C506   H529    1.110   .     S
C506   H527    1.111   .     S
C507   C512    1.407   .     A
C507   C508    1.406   .     A
C508   H531    1.083   .     S
C508   C509    1.396   .     A
C509   C510    1.398   .     A
C509   H532    1.081   .     S
C510   C511    1.398   .     A
C510   H533    1.082   .     S
C511   C512    1.399   .     A
C511   H534    1.083   .     S
C512   H535    1.083   .     S
C513   C514    1.420   .     A
C513   C1223   1.433   .     S
C513   C1235   1.429   .     S
C514   C518    1.409   .     A
C515   C1233   1.429   1_554 S
C515   C1236   1.426   1_554 S
C516   C517    1.410   .     A
C516   C1235   1.426   .     S
C516   C1215   1.409   .     S
C517   C518    1.393   .     A
C518   H541    1.078   .     S
H530   C567    1.086   .     S
H537   C9      1.086   1_565 S
H540   C1212   1.084   1_554 S
H542   C646    1.085   1_455 S
O543   Zn559   1.947   .     S
O543   Zn560   1.933   .     S
O543   Zn557   1.955   .     S
O543   Zn558   1.924   .     S
O544   Zn558   1.928   .     S
O545   Zn560   1.929   .     S
O546   Zn559   1.917   .     S
O547   Zn557   1.918   .     S
O549   Zn557   1.926   .     S
O550   Zn560   1.937   .     S
O551   Zn558   1.933   .     S
O552   Zn559   1.934   .     S
O553   Zn560   1.928   .     S
O554   Zn557   1.931   .     S
O555   Zn558   1.941   .     S
O556   Zn559   1.930   .     S
C561   O631    1.263   .     A
C561   C567    1.437   .     S
C561   O633    1.266   .     A
C562   C595    1.409   .     A
C562   C576    1.388   .     A
C562   H619    1.078   .     S
C563   H599    1.084   .     S
C563   C575    1.390   .     A
C563   C576    1.396   .     A
C564   O634    1.279   .     A
C564   C566    1.452   .     S
C564   O632    1.283   .     A
C565   C577    1.413   .     A
C565   C594    1.423   .     A
C565   C574    1.492   .     S
C566   C647    1.333   .     S
C566   H702    1.085   .     S
C568   C571    1.451   .     S
C568   C89     1.331   1_565 S
C568   H136    1.088   1_565 S
C569   C570    1.436   .     S
C570   O635    1.270   .     A
C570   O629    1.270   .     A
C571   O630    1.275   .     A
C571   O636    1.273   .     A
C572   C577    1.392   .     A
C572   C1303   1.396   .     S
C572   H1340   1.084   .     S
C573   O626    1.281   .     A
C573   O624    1.270   .     A
C573   C576    1.457   .     S
C574   O625    1.286   .     A
C574   O627    1.289   .     A
C575   H618    1.082   .     S
C575   C1316   1.409   1_554 S
C577   O628    1.382   .     S
C578   C584    1.408   .     A
C578   C579    1.408   .     A
C578   C597    1.492   .     S
C579   H600    1.083   .     S
C580   H601    1.082   .     S
C580   C581    1.396   .     A
C580   C99     1.398   1_565 S
C581   H602    1.083   .     S
C581   C102    1.397   1_565 S
C582   H603    1.082   .     S
C582   C584    1.399   .     A
C583   C587    1.485   .     S
C583   C1292   1.396   1_554 S
C583   C1313   1.433   1_554 S
C584   H604    1.083   .     S
C585   O628    1.413   .     S
C585   C586    1.521   .     S
C585   H605    1.113   .     S
C585   H606    1.116   .     S
C586   H608    1.111   .     S
C586   H609    1.110   .     S
C586   H607    1.111   .     S
C587   C592    1.407   .     A
C587   C588    1.406   .     A
C588   H611    1.083   .     S
C588   C589    1.396   .     A
C589   C590    1.398   .     A
C589   H612    1.081   .     S
C590   C591    1.398   .     A
C590   H613    1.082   .     S
C591   C592    1.399   .     A
C591   H614    1.083   .     S
C592   H615    1.083   .     S
C593   C594    1.420   .     A
C593   C1303   1.433   .     S
C593   C1315   1.429   .     S
C594   C598    1.409   .     A
C595   C1313   1.429   1_554 S
C595   C1316   1.426   1_554 S
C596   C597    1.410   .     A
C596   C1315   1.426   .     S
C596   C1295   1.409   .     S
C597   C598    1.393   .     A
C598   H621    1.078   .     S
H610   C647    1.086   .     S
H617   C89     1.086   1_565 S
H620   C1292   1.084   1_554 S
O623   Zn639   1.947   .     S
O623   Zn640   1.933   .     S
O623   Zn637   1.955   .     S
O623   Zn638   1.924   .     S
O624   Zn638   1.928   .     S
O625   Zn640   1.929   .     S
O626   Zn639   1.917   .     S
O627   Zn637   1.918   .     S
O629   Zn637   1.926   .     S
O630   Zn640   1.937   .     S
O631   Zn638   1.933   .     S
O632   Zn639   1.934   .     S
O633   Zn640   1.928   .     S
O634   Zn637   1.931   .     S
O635   Zn638   1.941   .     S
O636   Zn639   1.930   .     S
C641   O711    1.263   .     A
C641   C647    1.437   .     S
C641   O713    1.266   .     A
C642   C675    1.409   .     A
C642   C656    1.388   .     A
C642   H699    1.078   .     S
C643   H679    1.084   .     S
C643   C655    1.390   .     A
C643   C656    1.396   .     A
C644   O714    1.279   .     A
C644   C646    1.452   .     S
C644   O712    1.283   .     A
C645   C657    1.413   .     A
C645   C674    1.423   .     A
C645   C654    1.492   .     S
C646   C487    1.333   1_655 S
C646   H542    1.085   1_655 S
C648   C651    1.451   .     S
C648   C169    1.331   1_565 S
C648   H216    1.088   1_565 S
C649   C650    1.436   .     S
C650   O715    1.270   .     A
C650   O709    1.270   .     A
C651   O710    1.275   .     A
C651   O716    1.273   .     A
C652   C657    1.392   .     A
C652   C1383   1.396   .     S
C652   H1420   1.084   .     S
C653   O706    1.281   .     A
C653   O704    1.270   .     A
C653   C656    1.457   .     S
C654   O705    1.286   .     A
C654   O707    1.289   .     A
C655   H698    1.082   .     S
C655   C1396   1.409   1_554 S
C657   O708    1.382   .     S
C658   C664    1.408   .     A
C658   C659    1.408   .     A
C658   C677    1.492   .     S
C659   H680    1.083   .     S
C660   H681    1.082   .     S
C660   C661    1.396   .     A
C660   C179    1.398   1_565 S
C661   H682    1.083   .     S
C661   C182    1.397   1_565 S
C662   H683    1.082   .     S
C662   C664    1.399   .     A
C663   C667    1.485   .     S
C663   C1372   1.396   1_554 S
C663   C1393   1.433   1_554 S
C664   H684    1.083   .     S
C665   O708    1.413   .     S
C665   C666    1.521   .     S
C665   H685    1.113   .     S
C665   H686    1.116   .     S
C666   H688    1.111   .     S
C666   H689    1.110   .     S
C666   H687    1.111   .     S
C667   C672    1.407   .     A
C667   C668    1.406   .     A
C668   H691    1.083   .     S
C668   C669    1.396   .     A
C669   C670    1.398   .     A
C669   H692    1.081   .     S
C670   C671    1.398   .     A
C670   H693    1.082   .     S
C671   C672    1.399   .     A
C671   H694    1.083   .     S
C672   H695    1.083   .     S
C673   C674    1.420   .     A
C673   C1383   1.433   .     S
C673   C1395   1.429   .     S
C674   C678    1.409   .     A
C675   C1393   1.429   1_554 S
C675   C1396   1.426   1_554 S
C676   C677    1.410   .     A
C676   C1395   1.426   .     S
C676   C1375   1.409   .     S
C677   C678    1.393   .     A
C678   H701    1.078   .     S
H690   C487    1.086   1_655 S
H697   C169    1.086   1_565 S
H700   C1372   1.084   1_554 S
O703   Zn719   1.947   .     S
O703   Zn720   1.933   .     S
O703   Zn717   1.955   .     S
O703   Zn718   1.924   .     S
O704   Zn718   1.928   .     S
O705   Zn720   1.929   .     S
O706   Zn719   1.917   .     S
O707   Zn717   1.918   .     S
O709   Zn717   1.926   .     S
O710   Zn720   1.937   .     S
O711   Zn718   1.933   .     S
O712   Zn719   1.934   .     S
O713   Zn720   1.928   .     S
O714   Zn717   1.931   .     S
O715   Zn718   1.941   .     S
O716   Zn719   1.930   .     S
C721   O791    1.263   .     A
C721   C727    1.437   .     S
C721   O793    1.266   .     A
C722   C755    1.409   .     A
C722   C736    1.388   .     A
C722   H779    1.078   .     S
C723   H759    1.084   .     S
C723   C735    1.390   .     A
C723   C736    1.396   .     A
C724   O794    1.279   .     A
C724   C726    1.452   .     S
C724   O792    1.283   .     A
C725   C737    1.413   .     A
C725   C754    1.423   .     A
C725   C734    1.492   .     S
C726   C807    1.333   .     S
C726   H862    1.085   .     S
C727   C886    1.333   1_455 S
C727   H930    1.086   1_455 S
C728   C731    1.451   .     S
C728   C969    1.331   .     S
C728   H1016   1.088   .     S
C729   C730    1.436   .     S
C729   C1208   1.331   1_545 S
C729   H1257   1.086   1_545 S
C730   O795    1.270   .     A
C730   O789    1.270   .     A
C731   O790    1.275   .     A
C731   O796    1.273   .     A
C732   C737    1.392   .     A
C732   C23     1.396   1_556 S
C732   H60     1.084   1_556 S
C733   O786    1.281   .     A
C733   O784    1.270   .     A
C733   C736    1.457   .     S
C734   O785    1.286   .     A
C734   O787    1.289   .     A
C735   H778    1.082   .     S
C737   O788    1.382   .     S
C738   C744    1.408   .     A
C738   C739    1.408   .     A
C738   C757    1.492   .     S
C739   H760    1.083   .     S
C739   C1220   1.398   1_545 S
C740   H761    1.082   .     S
C740   C741    1.396   .     A
C740   C979    1.398   .     S
C741   H762    1.083   .     S
C741   C982    1.397   .     S
C742   H763    1.082   .     S
C742   C744    1.399   .     A
C742   C1221   1.397   1_545 S
C743   C747    1.485   .     S
C744   H764    1.083   .     S
C745   O788    1.413   .     S
C745   C746    1.521   .     S
C745   H765    1.113   .     S
C745   H766    1.116   .     S
C746   H768    1.111   .     S
C746   H769    1.110   .     S
C746   H767    1.111   .     S
C747   C752    1.407   .     A
C747   C748    1.406   .     A
C748   H771    1.083   .     S
C748   C749    1.396   .     A
C749   C750    1.398   .     A
C749   H772    1.081   .     S
C750   C751    1.398   .     A
C750   H773    1.082   .     S
C751   C752    1.399   .     A
C751   H774    1.083   .     S
C752   H775    1.083   .     S
C753   C754    1.420   .     A
C753   C23     1.433   1_556 S
C753   C35     1.429   1_556 S
C754   C758    1.409   .     A
C756   C757    1.410   .     A
C756   C35     1.426   1_556 S
C756   C15     1.409   1_556 S
C757   C758    1.393   .     A
C758   H781    1.078   .     S
H770   C807    1.086   .     S
H776   C1208   1.088   1_545 S
H777   C969    1.086   .     S
H782   C886    1.085   1_455 S
O783   Zn799   1.947   .     S
O783   Zn800   1.933   .     S
O783   Zn797   1.955   .     S
O783   Zn798   1.924   .     S
O784   Zn798   1.928   .     S
O785   Zn800   1.929   .     S
O786   Zn799   1.917   .     S
O787   Zn797   1.918   .     S
O789   Zn797   1.926   .     S
O790   Zn800   1.937   .     S
O791   Zn798   1.933   .     S
O792   Zn799   1.934   .     S
O793   Zn800   1.928   .     S
O794   Zn797   1.931   .     S
O795   Zn798   1.941   .     S
O796   Zn799   1.930   .     S
C801   O871    1.263   .     A
C801   C807    1.437   .     S
C801   O873    1.266   .     A
C802   C835    1.409   .     A
C802   C816    1.388   .     A
C802   H859    1.078   .     S
C803   H839    1.084   .     S
C803   C815    1.390   .     A
C803   C816    1.396   .     A
C804   O874    1.279   .     A
C804   C806    1.452   .     S
C804   O872    1.283   .     A
C805   C817    1.413   .     A
C805   C834    1.423   .     A
C805   C814    1.492   .     S
C806   C887    1.333   .     S
C806   H942    1.085   .     S
C808   C811    1.451   .     S
C808   C1049   1.331   .     S
C808   H1096   1.088   .     S
C809   C810    1.436   .     S
C809   C1288   1.331   1_545 S
C809   H1337   1.086   1_545 S
C810   O875    1.270   .     A
C810   O869    1.270   .     A
C811   O870    1.275   .     A
C811   O876    1.273   .     A
C812   C817    1.392   .     A
C812   C103    1.396   1_556 S
C812   H140    1.084   1_556 S
C813   O866    1.281   .     A
C813   O864    1.270   .     A
C813   C816    1.457   .     S
C814   O865    1.286   .     A
C814   O867    1.289   .     A
C815   H858    1.082   .     S
C817   O868    1.382   .     S
C818   C824    1.408   .     A
C818   C819    1.408   .     A
C818   C837    1.492   .     S
C819   H840    1.083   .     S
C819   C1300   1.398   1_545 S
C820   H841    1.082   .     S
C820   C821    1.396   .     A
C820   C1059   1.398   .     S
C821   H842    1.083   .     S
C821   C1062   1.397   .     S
C822   H843    1.082   .     S
C822   C824    1.399   .     A
C822   C1301   1.397   1_545 S
C823   C827    1.485   .     S
C824   H844    1.083   .     S
C825   O868    1.413   .     S
C825   C826    1.521   .     S
C825   H845    1.113   .     S
C825   H846    1.116   .     S
C826   H848    1.111   .     S
C826   H849    1.110   .     S
C826   H847    1.111   .     S
C827   C832    1.407   .     A
C827   C828    1.406   .     A
C828   H851    1.083   .     S
C828   C829    1.396   .     A
C829   C830    1.398   .     A
C829   H852    1.081   .     S
C830   C831    1.398   .     A
C830   H853    1.082   .     S
C831   C832    1.399   .     A
C831   H854    1.083   .     S
C832   H855    1.083   .     S
C833   C834    1.420   .     A
C833   C103    1.433   1_556 S
C833   C115    1.429   1_556 S
C834   C838    1.409   .     A
C836   C837    1.410   .     A
C836   C115    1.426   1_556 S
C836   C95     1.409   1_556 S
C837   C838    1.393   .     A
C838   H861    1.078   .     S
H850   C887    1.086   .     S
H856   C1288   1.088   1_545 S
H857   C1049   1.086   .     S
O863   Zn879   1.947   .     S
O863   Zn880   1.933   .     S
O863   Zn877   1.955   .     S
O863   Zn878   1.924   .     S
O864   Zn878   1.928   .     S
O865   Zn880   1.929   .     S
O866   Zn879   1.917   .     S
O867   Zn877   1.918   .     S
O869   Zn877   1.926   .     S
O870   Zn880   1.937   .     S
O871   Zn878   1.933   .     S
O872   Zn879   1.934   .     S
O873   Zn880   1.928   .     S
O874   Zn877   1.931   .     S
O875   Zn878   1.941   .     S
O876   Zn879   1.930   .     S
C881   O951    1.263   .     A
C881   C887    1.437   .     S
C881   O953    1.266   .     A
C882   C915    1.409   .     A
C882   C896    1.388   .     A
C882   H939    1.078   .     S
C883   H919    1.084   .     S
C883   C895    1.390   .     A
C883   C896    1.396   .     A
C884   O954    1.279   .     A
C884   C886    1.452   .     S
C884   O952    1.283   .     A
C885   C897    1.413   .     A
C885   C914    1.423   .     A
C885   C894    1.492   .     S
C886   C727    1.333   1_655 S
C886   H782    1.085   1_655 S
C888   C891    1.451   .     S
C888   C1129   1.331   .     S
C888   H1176   1.088   .     S
C889   C890    1.436   .     S
C889   C1368   1.331   1_545 S
C889   H1417   1.086   1_545 S
C890   O955    1.270   .     A
C890   O949    1.270   .     A
C891   O950    1.275   .     A
C891   O956    1.273   .     A
C892   C897    1.392   .     A
C892   C183    1.396   1_556 S
C892   H220    1.084   1_556 S
C893   O946    1.281   .     A
C893   O944    1.270   .     A
C893   C896    1.457   .     S
C894   O945    1.286   .     A
C894   O947    1.289   .     A
C895   H938    1.082   .     S
C897   O948    1.382   .     S
C898   C904    1.408   .     A
C898   C899    1.408   .     A
C898   C917    1.492   .     S
C899   H920    1.083   .     S
C899   C1380   1.398   1_545 S
C900   H921    1.082   .     S
C900   C901    1.396   .     A
C900   C1139   1.398   .     S
C901   H922    1.083   .     S
C901   C1142   1.397   .     S
C902   H923    1.082   .     S
C902   C904    1.399   .     A
C902   C1381   1.397   1_545 S
C903   C907    1.485   .     S
C904   H924    1.083   .     S
C905   O948    1.413   .     S
C905   C906    1.521   .     S
C905   H925    1.113   .     S
C905   H926    1.116   .     S
C906   H928    1.111   .     S
C906   H929    1.110   .     S
C906   H927    1.111   .     S
C907   C912    1.407   .     A
C907   C908    1.406   .     A
C908   H931    1.083   .     S
C908   C909    1.396   .     A
C909   C910    1.398   .     A
C909   H932    1.081   .     S
C910   C911    1.398   .     A
C910   H933    1.082   .     S
C911   C912    1.399   .     A
C911   H934    1.083   .     S
C912   H935    1.083   .     S
C913   C914    1.420   .     A
C913   C183    1.433   1_556 S
C913   C195    1.429   1_556 S
C914   C918    1.409   .     A
C916   C917    1.410   .     A
C916   C195    1.426   1_556 S
C916   C175    1.409   1_556 S
C917   C918    1.393   .     A
C918   H941    1.078   .     S
H930   C727    1.086   1_655 S
H936   C1368   1.088   1_545 S
H937   C1129   1.086   .     S
O943   Zn959   1.947   .     S
O943   Zn960   1.933   .     S
O943   Zn957   1.955   .     S
O943   Zn958   1.924   .     S
O944   Zn958   1.928   .     S
O945   Zn960   1.929   .     S
O946   Zn959   1.917   .     S
O947   Zn957   1.918   .     S
O949   Zn957   1.926   .     S
O950   Zn960   1.937   .     S
O951   Zn958   1.933   .     S
O952   Zn959   1.934   .     S
O953   Zn960   1.928   .     S
O954   Zn957   1.931   .     S
O955   Zn958   1.941   .     S
O956   Zn959   1.930   .     S
C961   O1031   1.263   .     A
C961   C967    1.437   .     S
C961   O1033   1.266   .     A
C962   C995    1.409   .     A
C962   C976    1.388   .     A
C962   H1019   1.078   .     S
C963   H999    1.084   .     S
C963   C975    1.390   .     A
C963   C976    1.396   .     A
C964   O1034   1.279   .     A
C964   C966    1.452   .     S
C964   O1032   1.283   .     A
C965   C977    1.413   .     A
C965   C994    1.423   .     A
C965   C974    1.492   .     S
C966   C1047   1.333   .     S
C966   H1102   1.085   .     S
C967   C1126   1.333   1_455 S
C967   H1170   1.086   1_455 S
C968   C971    1.451   .     S
C968   C1209   1.331   .     S
C968   H1256   1.088   .     S
C969   C970    1.436   .     S
C970   O1035   1.270   .     A
C970   O1029   1.270   .     A
C971   O1030   1.275   .     A
C971   O1036   1.273   .     A
C972   C977    1.392   .     A
C972   C263    1.396   1_556 S
C972   H300    1.084   1_556 S
C973   O1026   1.281   .     A
C973   O1024   1.270   .     A
C973   C976    1.457   .     S
C974   O1025   1.286   .     A
C974   O1027   1.289   .     A
C975   H1018   1.082   .     S
C977   O1028   1.382   .     S
C978   C984    1.408   .     A
C978   C979    1.408   .     A
C978   C997    1.492   .     S
C979   H1000   1.083   .     S
C980   H1001   1.082   .     S
C980   C981    1.396   .     A
C980   C1219   1.398   .     S
C981   H1002   1.083   .     S
C981   C1222   1.397   .     S
C982   H1003   1.082   .     S
C982   C984    1.399   .     A
C983   C987    1.485   .     S
C984   H1004   1.083   .     S
C985   O1028   1.413   .     S
C985   C986    1.521   .     S
C985   H1005   1.113   .     S
C985   H1006   1.116   .     S
C986   H1008   1.111   .     S
C986   H1009   1.110   .     S
C986   H1007   1.111   .     S
C987   C992    1.407   .     A
C987   C988    1.406   .     A
C988   H1011   1.083   .     S
C988   C989    1.396   .     A
C989   C990    1.398   .     A
C989   H1012   1.081   .     S
C990   C991    1.398   .     A
C990   H1013   1.082   .     S
C991   C992    1.399   .     A
C991   H1014   1.083   .     S
C992   H1015   1.083   .     S
C993   C994    1.420   .     A
C993   C263    1.433   1_556 S
C993   C275    1.429   1_556 S
C994   C998    1.409   .     A
C996   C997    1.410   .     A
C996   C275    1.426   1_556 S
C996   C255    1.409   1_556 S
C997   C998    1.393   .     A
C998   H1021   1.078   .     S
H1010  C1047   1.086   .     S
H1017  C1209   1.086   .     S
H1022  C1126   1.085   1_455 S
O1023  Zn1039  1.947   .     S
O1023  Zn1040  1.933   .     S
O1023  Zn1037  1.955   .     S
O1023  Zn1038  1.924   .     S
O1024  Zn1038  1.928   .     S
O1025  Zn1040  1.929   .     S
O1026  Zn1039  1.917   .     S
O1027  Zn1037  1.918   .     S
O1029  Zn1037  1.926   .     S
O1030  Zn1040  1.937   .     S
O1031  Zn1038  1.933   .     S
O1032  Zn1039  1.934   .     S
O1033  Zn1040  1.928   .     S
O1034  Zn1037  1.931   .     S
O1035  Zn1038  1.941   .     S
O1036  Zn1039  1.930   .     S
C1041  O1111   1.263   .     A
C1041  C1047   1.437   .     S
C1041  O1113   1.266   .     A
C1042  C1075   1.409   .     A
C1042  C1056   1.388   .     A
C1042  H1099   1.078   .     S
C1043  H1079   1.084   .     S
C1043  C1055   1.390   .     A
C1043  C1056   1.396   .     A
C1044  O1114   1.279   .     A
C1044  C1046   1.452   .     S
C1044  O1112   1.283   .     A
C1045  C1057   1.413   .     A
C1045  C1074   1.423   .     A
C1045  C1054   1.492   .     S
C1046  C1127   1.333   .     S
C1046  H1182   1.085   .     S
C1048  C1051   1.451   .     S
C1048  C1289   1.331   .     S
C1048  H1336   1.088   .     S
C1049  C1050   1.436   .     S
C1050  O1115   1.270   .     A
C1050  O1109   1.270   .     A
C1051  O1110   1.275   .     A
C1051  O1116   1.273   .     A
C1052  C1057   1.392   .     A
C1052  C343    1.396   1_556 S
C1052  H380    1.084   1_556 S
C1053  O1106   1.281   .     A
C1053  O1104   1.270   .     A
C1053  C1056   1.457   .     S
C1054  O1105   1.286   .     A
C1054  O1107   1.289   .     A
C1055  H1098   1.082   .     S
C1057  O1108   1.382   .     S
C1058  C1064   1.408   .     A
C1058  C1059   1.408   .     A
C1058  C1077   1.492   .     S
C1059  H1080   1.083   .     S
C1060  H1081   1.082   .     S
C1060  C1061   1.396   .     A
C1060  C1299   1.398   .     S
C1061  H1082   1.083   .     S
C1061  C1302   1.397   .     S
C1062  H1083   1.082   .     S
C1062  C1064   1.399   .     A
C1063  C1067   1.485   .     S
C1064  H1084   1.083   .     S
C1065  O1108   1.413   .     S
C1065  C1066   1.521   .     S
C1065  H1085   1.113   .     S
C1065  H1086   1.116   .     S
C1066  H1088   1.111   .     S
C1066  H1089   1.110   .     S
C1066  H1087   1.111   .     S
C1067  C1072   1.407   .     A
C1067  C1068   1.406   .     A
C1068  H1091   1.083   .     S
C1068  C1069   1.396   .     A
C1069  C1070   1.398   .     A
C1069  H1092   1.081   .     S
C1070  C1071   1.398   .     A
C1070  H1093   1.082   .     S
C1071  C1072   1.399   .     A
C1071  H1094   1.083   .     S
C1072  H1095   1.083   .     S
C1073  C1074   1.420   .     A
C1073  C343    1.433   1_556 S
C1073  C355    1.429   1_556 S
C1074  C1078   1.409   .     A
C1076  C1077   1.410   .     A
C1076  C355    1.426   1_556 S
C1076  C335    1.409   1_556 S
C1077  C1078   1.393   .     A
C1078  H1101   1.078   .     S
H1090  C1127   1.086   .     S
H1097  C1289   1.086   .     S
O1103  Zn1119  1.947   .     S
O1103  Zn1120  1.933   .     S
O1103  Zn1117  1.955   .     S
O1103  Zn1118  1.924   .     S
O1104  Zn1118  1.928   .     S
O1105  Zn1120  1.929   .     S
O1106  Zn1119  1.917   .     S
O1107  Zn1117  1.918   .     S
O1109  Zn1117  1.926   .     S
O1110  Zn1120  1.937   .     S
O1111  Zn1118  1.933   .     S
O1112  Zn1119  1.934   .     S
O1113  Zn1120  1.928   .     S
O1114  Zn1117  1.931   .     S
O1115  Zn1118  1.941   .     S
O1116  Zn1119  1.930   .     S
C1121  O1191   1.263   .     A
C1121  C1127   1.437   .     S
C1121  O1193   1.266   .     A
C1122  C1155   1.409   .     A
C1122  C1136   1.388   .     A
C1122  H1179   1.078   .     S
C1123  H1159   1.084   .     S
C1123  C1135   1.390   .     A
C1123  C1136   1.396   .     A
C1124  O1194   1.279   .     A
C1124  C1126   1.452   .     S
C1124  O1192   1.283   .     A
C1125  C1137   1.413   .     A
C1125  C1154   1.423   .     A
C1125  C1134   1.492   .     S
C1126  C967    1.333   1_655 S
C1126  H1022   1.085   1_655 S
C1128  C1131   1.451   .     S
C1128  C1369   1.331   .     S
C1128  H1416   1.088   .     S
C1129  C1130   1.436   .     S
C1130  O1195   1.270   .     A
C1130  O1189   1.270   .     A
C1131  O1190   1.275   .     A
C1131  O1196   1.273   .     A
C1132  C1137   1.392   .     A
C1132  C423    1.396   1_556 S
C1132  H460    1.084   1_556 S
C1133  O1186   1.281   .     A
C1133  O1184   1.270   .     A
C1133  C1136   1.457   .     S
C1134  O1185   1.286   .     A
C1134  O1187   1.289   .     A
C1135  H1178   1.082   .     S
C1137  O1188   1.382   .     S
C1138  C1144   1.408   .     A
C1138  C1139   1.408   .     A
C1138  C1157   1.492   .     S
C1139  H1160   1.083   .     S
C1140  H1161   1.082   .     S
C1140  C1141   1.396   .     A
C1140  C1379   1.398   .     S
C1141  H1162   1.083   .     S
C1141  C1382   1.397   .     S
C1142  H1163   1.082   .     S
C1142  C1144   1.399   .     A
C1143  C1147   1.485   .     S
C1144  H1164   1.083   .     S
C1145  O1188   1.413   .     S
C1145  C1146   1.521   .     S
C1145  H1165   1.113   .     S
C1145  H1166   1.116   .     S
C1146  H1168   1.111   .     S
C1146  H1169   1.110   .     S
C1146  H1167   1.111   .     S
C1147  C1152   1.407   .     A
C1147  C1148   1.406   .     A
C1148  H1171   1.083   .     S
C1148  C1149   1.396   .     A
C1149  C1150   1.398   .     A
C1149  H1172   1.081   .     S
C1150  C1151   1.398   .     A
C1150  H1173   1.082   .     S
C1151  C1152   1.399   .     A
C1151  H1174   1.083   .     S
C1152  H1175   1.083   .     S
C1153  C1154   1.420   .     A
C1153  C423    1.433   1_556 S
C1153  C435    1.429   1_556 S
C1154  C1158   1.409   .     A
C1156  C1157   1.410   .     A
C1156  C435    1.426   1_556 S
C1156  C415    1.409   1_556 S
C1157  C1158   1.393   .     A
C1158  H1181   1.078   .     S
H1170  C967    1.086   1_655 S
H1177  C1369   1.086   .     S
O1183  Zn1199  1.947   .     S
O1183  Zn1200  1.933   .     S
O1183  Zn1197  1.955   .     S
O1183  Zn1198  1.924   .     S
O1184  Zn1198  1.928   .     S
O1185  Zn1200  1.929   .     S
O1186  Zn1199  1.917   .     S
O1187  Zn1197  1.918   .     S
O1189  Zn1197  1.926   .     S
O1190  Zn1200  1.937   .     S
O1191  Zn1198  1.933   .     S
O1192  Zn1199  1.934   .     S
O1193  Zn1200  1.928   .     S
O1194  Zn1197  1.931   .     S
O1195  Zn1198  1.941   .     S
O1196  Zn1199  1.930   .     S
C1201  O1271   1.263   .     A
C1201  C1207   1.437   .     S
C1201  O1273   1.266   .     A
C1202  C1235   1.409   .     A
C1202  C1216   1.388   .     A
C1202  H1259   1.078   .     S
C1203  H1239   1.084   .     S
C1203  C1215   1.390   .     A
C1203  C1216   1.396   .     A
C1204  O1274   1.279   .     A
C1204  C1206   1.452   .     S
C1204  O1272   1.283   .     A
C1205  C1217   1.413   .     A
C1205  C1234   1.423   .     A
C1205  C1214   1.492   .     S
C1206  C1287   1.333   .     S
C1206  H1342   1.085   .     S
C1207  C1366   1.333   1_455 S
C1207  H1410   1.086   1_455 S
C1208  C1211   1.451   .     S
C1208  C729    1.331   1_565 S
C1208  H776    1.088   1_565 S
C1209  C1210   1.436   .     S
C1210  O1275   1.270   .     A
C1210  O1269   1.270   .     A
C1211  O1270   1.275   .     A
C1211  O1276   1.273   .     A
C1212  C1217   1.392   .     A
C1212  C503    1.396   1_556 S
C1212  H540    1.084   1_556 S
C1213  O1266   1.281   .     A
C1213  O1264   1.270   .     A
C1213  C1216   1.457   .     S
C1214  O1265   1.286   .     A
C1214  O1267   1.289   .     A
C1215  H1258   1.082   .     S
C1217  O1268   1.382   .     S
C1218  C1224   1.408   .     A
C1218  C1219   1.408   .     A
C1218  C1237   1.492   .     S
C1219  H1240   1.083   .     S
C1220  H1241   1.082   .     S
C1220  C1221   1.396   .     A
C1220  C739    1.398   1_565 S
C1221  H1242   1.083   .     S
C1221  C742    1.397   1_565 S
C1222  H1243   1.082   .     S
C1222  C1224   1.399   .     A
C1223  C1227   1.485   .     S
C1224  H1244   1.083   .     S
C1225  O1268   1.413   .     S
C1225  C1226   1.521   .     S
C1225  H1245   1.113   .     S
C1225  H1246   1.116   .     S
C1226  H1248   1.111   .     S
C1226  H1249   1.110   .     S
C1226  H1247   1.111   .     S
C1227  C1232   1.407   .     A
C1227  C1228   1.406   .     A
C1228  H1251   1.083   .     S
C1228  C1229   1.396   .     A
C1229  C1230   1.398   .     A
C1229  H1252   1.081   .     S
C1230  C1231   1.398   .     A
C1230  H1253   1.082   .     S
C1231  C1232   1.399   .     A
C1231  H1254   1.083   .     S
C1232  H1255   1.083   .     S
C1233  C1234   1.420   .     A
C1233  C503    1.433   1_556 S
C1233  C515    1.429   1_556 S
C1234  C1238   1.409   .     A
C1236  C1237   1.410   .     A
C1236  C515    1.426   1_556 S
C1236  C495    1.409   1_556 S
C1237  C1238   1.393   .     A
C1238  H1261   1.078   .     S
H1250  C1287   1.086   .     S
H1257  C729    1.086   1_565 S
H1262  C1366   1.085   1_455 S
O1263  Zn1279  1.947   .     S
O1263  Zn1280  1.933   .     S
O1263  Zn1277  1.955   .     S
O1263  Zn1278  1.924   .     S
O1264  Zn1278  1.928   .     S
O1265  Zn1280  1.929   .     S
O1266  Zn1279  1.917   .     S
O1267  Zn1277  1.918   .     S
O1269  Zn1277  1.926   .     S
O1270  Zn1280  1.937   .     S
O1271  Zn1278  1.933   .     S
O1272  Zn1279  1.934   .     S
O1273  Zn1280  1.928   .     S
O1274  Zn1277  1.931   .     S
O1275  Zn1278  1.941   .     S
O1276  Zn1279  1.930   .     S
C1281  O1351   1.263   .     A
C1281  C1287   1.437   .     S
C1281  O1353   1.266   .     A
C1282  C1315   1.409   .     A
C1282  C1296   1.388   .     A
C1282  H1339   1.078   .     S
C1283  H1319   1.084   .     S
C1283  C1295   1.390   .     A
C1283  C1296   1.396   .     A
C1284  O1354   1.279   .     A
C1284  C1286   1.452   .     S
C1284  O1352   1.283   .     A
C1285  C1297   1.413   .     A
C1285  C1314   1.423   .     A
C1285  C1294   1.492   .     S
C1286  C1367   1.333   .     S
C1286  H1422   1.085   .     S
C1288  C1291   1.451   .     S
C1288  C809    1.331   1_565 S
C1288  H856    1.088   1_565 S
C1289  C1290   1.436   .     S
C1290  O1355   1.270   .     A
C1290  O1349   1.270   .     A
C1291  O1350   1.275   .     A
C1291  O1356   1.273   .     A
C1292  C1297   1.392   .     A
C1292  C583    1.396   1_556 S
C1292  H620    1.084   1_556 S
C1293  O1346   1.281   .     A
C1293  O1344   1.270   .     A
C1293  C1296   1.457   .     S
C1294  O1345   1.286   .     A
C1294  O1347   1.289   .     A
C1295  H1338   1.082   .     S
C1297  O1348   1.382   .     S
C1298  C1304   1.408   .     A
C1298  C1299   1.408   .     A
C1298  C1317   1.492   .     S
C1299  H1320   1.083   .     S
C1300  H1321   1.082   .     S
C1300  C1301   1.396   .     A
C1300  C819    1.398   1_565 S
C1301  H1322   1.083   .     S
C1301  C822    1.397   1_565 S
C1302  H1323   1.082   .     S
C1302  C1304   1.399   .     A
C1303  C1307   1.485   .     S
C1304  H1324   1.083   .     S
C1305  O1348   1.413   .     S
C1305  C1306   1.521   .     S
C1305  H1325   1.113   .     S
C1305  H1326   1.116   .     S
C1306  H1328   1.111   .     S
C1306  H1329   1.110   .     S
C1306  H1327   1.111   .     S
C1307  C1312   1.407   .     A
C1307  C1308   1.406   .     A
C1308  H1331   1.083   .     S
C1308  C1309   1.396   .     A
C1309  C1310   1.398   .     A
C1309  H1332   1.081   .     S
C1310  C1311   1.398   .     A
C1310  H1333   1.082   .     S
C1311  C1312   1.399   .     A
C1311  H1334   1.083   .     S
C1312  H1335   1.083   .     S
C1313  C1314   1.420   .     A
C1313  C583    1.433   1_556 S
C1313  C595    1.429   1_556 S
C1314  C1318   1.409   .     A
C1316  C1317   1.410   .     A
C1316  C595    1.426   1_556 S
C1316  C575    1.409   1_556 S
C1317  C1318   1.393   .     A
C1318  H1341   1.078   .     S
H1330  C1367   1.086   .     S
H1337  C809    1.086   1_565 S
O1343  Zn1359  1.947   .     S
O1343  Zn1360  1.933   .     S
O1343  Zn1357  1.955   .     S
O1343  Zn1358  1.924   .     S
O1344  Zn1358  1.928   .     S
O1345  Zn1360  1.929   .     S
O1346  Zn1359  1.917   .     S
O1347  Zn1357  1.918   .     S
O1349  Zn1357  1.926   .     S
O1350  Zn1360  1.937   .     S
O1351  Zn1358  1.933   .     S
O1352  Zn1359  1.934   .     S
O1353  Zn1360  1.928   .     S
O1354  Zn1357  1.931   .     S
O1355  Zn1358  1.941   .     S
O1356  Zn1359  1.930   .     S
C1361  O1431   1.263   .     A
C1361  C1367   1.437   .     S
C1361  O1433   1.266   .     A
C1362  C1395   1.409   .     A
C1362  C1376   1.388   .     A
C1362  H1419   1.078   .     S
C1363  H1399   1.084   .     S
C1363  C1375   1.390   .     A
C1363  C1376   1.396   .     A
C1364  O1434   1.279   .     A
C1364  C1366   1.452   .     S
C1364  O1432   1.283   .     A
C1365  C1377   1.413   .     A
C1365  C1394   1.423   .     A
C1365  C1374   1.492   .     S
C1366  C1207   1.333   1_655 S
C1366  H1262   1.085   1_655 S
C1368  C1371   1.451   .     S
C1368  C889    1.331   1_565 S
C1368  H936    1.088   1_565 S
C1369  C1370   1.436   .     S
C1370  O1435   1.270   .     A
C1370  O1429   1.270   .     A
C1371  O1430   1.275   .     A
C1371  O1436   1.273   .     A
C1372  C1377   1.392   .     A
C1372  C663    1.396   1_556 S
C1372  H700    1.084   1_556 S
C1373  O1426   1.281   .     A
C1373  O1424   1.270   .     A
C1373  C1376   1.457   .     S
C1374  O1425   1.286   .     A
C1374  O1427   1.289   .     A
C1375  H1418   1.082   .     S
C1377  O1428   1.382   .     S
C1378  C1384   1.408   .     A
C1378  C1379   1.408   .     A
C1378  C1397   1.492   .     S
C1379  H1400   1.083   .     S
C1380  H1401   1.082   .     S
C1380  C1381   1.396   .     A
C1380  C899    1.398   1_565 S
C1381  H1402   1.083   .     S
C1381  C902    1.397   1_565 S
C1382  H1403   1.082   .     S
C1382  C1384   1.399   .     A
C1383  C1387   1.485   .     S
C1384  H1404   1.083   .     S
C1385  O1428   1.413   .     S
C1385  C1386   1.521   .     S
C1385  H1405   1.113   .     S
C1385  H1406   1.116   .     S
C1386  H1408   1.111   .     S
C1386  H1409   1.110   .     S
C1386  H1407   1.111   .     S
C1387  C1392   1.407   .     A
C1387  C1388   1.406   .     A
C1388  H1411   1.083   .     S
C1388  C1389   1.396   .     A
C1389  C1390   1.398   .     A
C1389  H1412   1.081   .     S
C1390  C1391   1.398   .     A
C1390  H1413   1.082   .     S
C1391  C1392   1.399   .     A
C1391  H1414   1.083   .     S
C1392  H1415   1.083   .     S
C1393  C1394   1.420   .     A
C1393  C663    1.433   1_556 S
C1393  C675    1.429   1_556 S
C1394  C1398   1.409   .     A
C1396  C1397   1.410   .     A
C1396  C675    1.426   1_556 S
C1396  C655    1.409   1_556 S
C1397  C1398   1.393   .     A
C1398  H1421   1.078   .     S
H1410  C1207   1.086   1_655 S
H1417  C889    1.086   1_565 S
O1423  Zn1439  1.947   .     S
O1423  Zn1440  1.933   .     S
O1423  Zn1437  1.955   .     S
O1423  Zn1438  1.924   .     S
O1424  Zn1438  1.928   .     S
O1425  Zn1440  1.929   .     S
O1426  Zn1439  1.917   .     S
O1427  Zn1437  1.918   .     S
O1429  Zn1437  1.926   .     S
O1430  Zn1440  1.937   .     S
O1431  Zn1438  1.933   .     S
O1432  Zn1439  1.934   .     S
O1433  Zn1440  1.928   .     S
O1434  Zn1437  1.931   .     S
O1435  Zn1438  1.941   .     S
O1436  Zn1439  1.930   .     S
