data_str_m1_o1_o2_pcu_sym.48
_audit_creation_date              2020-01-03
_audit_creation_method            'Materials Studio'
_symmetry_space_group_name_H-M    'P1'
_symmetry_Int_Tables_number       1
_symmetry_cell_setting            triclinic
loop_
_symmetry_equiv_pos_as_xyz
  x,y,z
_cell_length_a                    36.3738
_cell_length_b                    36.3884
_cell_length_c                    34.7638
_cell_angle_alpha                 89.8701
_cell_angle_beta                  90.0840
_cell_angle_gamma                 90.0161
loop_
_atom_site_label
_atom_site_type_symbol
_atom_site_fract_x
_atom_site_fract_y
_atom_site_fract_z
_atom_site_U_iso_or_equiv
_atom_site_adp_type
_atom_site_occupancy
C1     C     0.21807   0.00608   0.04076   0.00000  Uiso   1.00
C2     C     0.27471   0.02020   0.95907   0.00000  Uiso   1.00
C3     C     0.48448   0.21917   0.04132   0.00000  Uiso   1.00
C4     C     0.47140   0.27478   0.95698   0.00000  Uiso   1.00
C5     C     0.28184   0.48457   0.04155   0.00000  Uiso   1.00
C6     C     0.22538   0.47446   0.95756   0.00000  Uiso   1.00
C7     C     0.00433   0.28341   0.04076   0.00000  Uiso   1.00
C8     C     0.01746   0.22574   0.95937   0.00000  Uiso   1.00
C9     C     0.47366   0.27004   0.54143   0.00000  Uiso   1.00
C10    C     0.03131   0.26645   0.45835   0.00000  Uiso   1.00
C11    C     0.23660   0.47116   0.54052   0.00000  Uiso   1.00
C12    C     0.24123   0.03001   0.45934   0.00000  Uiso   1.00
C13    C     0.02856   0.23105   0.54154   0.00000  Uiso   1.00
C14    C     0.47076   0.23708   0.45901   0.00000  Uiso   1.00
C15    C     0.27158   0.02878   0.54256   0.00000  Uiso   1.00
C16    C     0.27082   0.46968   0.45793   0.00000  Uiso   1.00
C17    C     0.21794   0.00781   0.08096   0.00000  Uiso   1.00
C18    C     0.27651   0.01916   0.91882   0.00000  Uiso   1.00
C19    C     0.48708   0.21832   0.08146   0.00000  Uiso   1.00
C20    C     0.47484   0.27589   0.91682   0.00000  Uiso   1.00
C21    C     0.28218   0.48700   0.08178   0.00000  Uiso   1.00
C22    C     0.22432   0.47677   0.91740   0.00000  Uiso   1.00
C23    C     0.00414   0.28363   0.08107   0.00000  Uiso   1.00
C24    C     0.01809   0.22447   0.91920   0.00000  Uiso   1.00
C25    C     0.47290   0.26925   0.58162   0.00000  Uiso   1.00
C26    C     0.03150   0.26482   0.41807   0.00000  Uiso   1.00
C27    C     0.23547   0.47071   0.58084   0.00000  Uiso   1.00
C28    C     0.23932   0.03034   0.41914   0.00000  Uiso   1.00
C29    C     0.02945   0.23266   0.58180   0.00000  Uiso   1.00
C30    C     0.46978   0.23753   0.41885   0.00000  Uiso   1.00
C31    C     0.26474   0.03131   0.58205   0.00000  Uiso   1.00
C32    C     0.26578   0.46839   0.41798   0.00000  Uiso   1.00
C33    C     0.24990   0.49490   0.02096   0.00000  Uiso   1.00
C34    C     0.24998   0.49671   0.97856   0.00000  Uiso   1.00
C35    C     0.49399   0.25122   0.02085   0.00000  Uiso   1.00
C36    C     0.49365   0.25031   0.97842   0.00000  Uiso   1.00
C37    C     0.00119   0.25066   0.52128   0.00000  Uiso   1.00
C38    C     0.00125   0.25155   0.47887   0.00000  Uiso   1.00
C39    C     0.25637   0.49937   0.52134   0.00000  Uiso   1.00
C40    C     0.25780   0.00025   0.47886   0.00000  Uiso   1.00
C41    C     0.25003   0.49987   0.35541   0.00000  Uiso   1.00
C42    C     0.24943   0.00017   0.64460   0.00000  Uiso   1.00
C43    C     0.00009   0.25018   0.35538   0.00000  Uiso   1.00
C44    C     0.00012   0.25004   0.64465   0.00000  Uiso   1.00
C45    C     0.49954   0.25000   0.85529   0.00000  Uiso   1.00
C46    C     0.49939   0.25011   0.14454   0.00000  Uiso   1.00
C47    C     0.25006   0.49990   0.85531   0.00000  Uiso   1.00
C48    C     0.25002   0.49981   0.14456   0.00000  Uiso   1.00
C49    C     0.17997   0.06991   0.25001   0.00000  Uiso   1.00
C50    C     0.32002   0.42999   0.75003   0.00000  Uiso   1.00
C51    C     0.43007   0.18001   0.25007   0.00000  Uiso   1.00
C52    C     0.06985   0.32019   0.74972   0.00000  Uiso   1.00
C53    C     0.31987   0.42992   0.24982   0.00000  Uiso   1.00
C54    C     0.17992   0.06998   0.74981   0.00000  Uiso   1.00
C55    C     0.06993   0.32002   0.25003   0.00000  Uiso   1.00
C56    C     0.43000   0.17989   0.74985   0.00000  Uiso   1.00
C57    C     0.18028   0.42982   0.75032   0.00000  Uiso   1.00
C58    C     0.32001   0.07005   0.24992   0.00000  Uiso   1.00
C59    C     0.43012   0.32008   0.74979   0.00000  Uiso   1.00
C60    C     0.07005   0.17998   0.25001   0.00000  Uiso   1.00
C61    C     0.31983   0.07007   0.75018   0.00000  Uiso   1.00
C62    C     0.18003   0.42989   0.24989   0.00000  Uiso   1.00
C63    C     0.07010   0.18015   0.75020   0.00000  Uiso   1.00
C64    C     0.42987   0.31992   0.24981   0.00000  Uiso   1.00
C65    C     0.14329   0.38369   0.21521   0.00000  Uiso   1.00
C66    C     0.35450   0.11814   0.78354   0.00000  Uiso   1.00
C67    C     0.11419   0.14123   0.21500   0.00000  Uiso   1.00
C68    C     0.37780   0.35033   0.78096   0.00000  Uiso   1.00
C69    C     0.35718   0.11601   0.21523   0.00000  Uiso   1.00
C70    C     0.14858   0.37841   0.78197   0.00000  Uiso   1.00
C71    C     0.38558   0.35864   0.21451   0.00000  Uiso   1.00
C72    C     0.11915   0.14610   0.78337   0.00000  Uiso   1.00
C73    C     0.14472   0.11743   0.78389   0.00000  Uiso   1.00
C74    C     0.35676   0.38426   0.21503   0.00000  Uiso   1.00
C75    C     0.12039   0.35230   0.78231   0.00000  Uiso   1.00
C76    C     0.38292   0.14462   0.21591   0.00000  Uiso   1.00
C77    C     0.35137   0.37820   0.78156   0.00000  Uiso   1.00
C78    C     0.14287   0.11562   0.21544   0.00000  Uiso   1.00
C79    C     0.38290   0.14403   0.78403   0.00000  Uiso   1.00
C80    C     0.11709   0.35545   0.21577   0.00000  Uiso   1.00
C81    C     0.39305   0.13361   0.71530   0.00000  Uiso   1.00
C82    C     0.10527   0.36741   0.28388   0.00000  Uiso   1.00
C83    C     0.37174   0.39912   0.71822   0.00000  Uiso   1.00
C84    C     0.13372   0.10624   0.28441   0.00000  Uiso   1.00
C85    C     0.10301   0.37041   0.71701   0.00000  Uiso   1.00
C86    C     0.39475   0.13257   0.28406   0.00000  Uiso   1.00
C87    C     0.13344   0.10684   0.71545   0.00000  Uiso   1.00
C88    C     0.36572   0.39284   0.28407   0.00000  Uiso   1.00
C89    C     0.39094   0.36392   0.28455   0.00000  Uiso   1.00
C90    C     0.10467   0.13228   0.71631   0.00000  Uiso   1.00
C91    C     0.36630   0.10663   0.28455   0.00000  Uiso   1.00
C92    C     0.12952   0.39828   0.71773   0.00000  Uiso   1.00
C93    C     0.10833   0.13516   0.28501   0.00000  Uiso   1.00
C94    C     0.39960   0.37255   0.71859   0.00000  Uiso   1.00
C95    C     0.13379   0.39322   0.28439   0.00000  Uiso   1.00
C96    C     0.36764   0.10479   0.71591   0.00000  Uiso   1.00
C97    C     0.09790   0.34807   0.24991   0.00000  Uiso   1.00
C98    C     0.40181   0.15183   0.74976   0.00000  Uiso   1.00
C99    C     0.15186   0.09781   0.24998   0.00000  Uiso   1.00
C100   C     0.34816   0.40198   0.74995   0.00000  Uiso   1.00
C101   C     0.40203   0.15204   0.25006   0.00000  Uiso   1.00
C102   C     0.09802   0.34825   0.74972   0.00000  Uiso   1.00
C103   C     0.34787   0.40190   0.24962   0.00000  Uiso   1.00
C104   C     0.15203   0.09824   0.74975   0.00000  Uiso   1.00
C105   C     0.09810   0.15214   0.75013   0.00000  Uiso   1.00
C106   C     0.40170   0.34793   0.24960   0.00000  Uiso   1.00
C107   C     0.15222   0.40189   0.75015   0.00000  Uiso   1.00
C108   C     0.34821   0.09809   0.24990   0.00000  Uiso   1.00
C109   C     0.40201   0.34802   0.74971   0.00000  Uiso   1.00
C110   C     0.09812   0.15185   0.25004   0.00000  Uiso   1.00
C111   C     0.34807   0.09776   0.74996   0.00000  Uiso   1.00
C112   C     0.15193   0.40179   0.24983   0.00000  Uiso   1.00
C113   C     0.25009   0.49831   0.10202   0.00000  Uiso   1.00
C114   C     0.25017   0.49884   0.89764   0.00000  Uiso   1.00
C115   C     0.49714   0.25060   0.10197   0.00000  Uiso   1.00
C116   C     0.49741   0.25006   0.89757   0.00000  Uiso   1.00
C117   C     0.00071   0.25045   0.60224   0.00000  Uiso   1.00
C118   C     0.00043   0.25089   0.39785   0.00000  Uiso   1.00
C119   C     0.24964   0.00080   0.60209   0.00000  Uiso   1.00
C120   C     0.25163   0.49948   0.39791   0.00000  Uiso   1.00
O121   O     0.25000  -0.00000   0.25000   0.00000  Uiso   1.00
O122   O     0.25000  -0.00000   0.75000   0.00000  Uiso   1.00
O123   O     0.00000   0.25000   0.25000   0.00000  Uiso   1.00
O124   O     0.00000   0.25000   0.75000   0.00000  Uiso   1.00
O125   O     0.25000   0.46964   0.33683   0.00000  Uiso   1.00
O126   O     0.25000   0.03036   0.66317   0.00000  Uiso   1.00
O127   O     0.03036   0.25000   0.33683   0.00000  Uiso   1.00
O128   O     0.46964   0.25000   0.66317   0.00000  Uiso   1.00
O129   O     0.25000   0.03036   0.33683   0.00000  Uiso   1.00
O130   O     0.25000   0.46964   0.66317   0.00000  Uiso   1.00
O131   O     0.46964   0.25000   0.33683   0.00000  Uiso   1.00
O132   O     0.03036   0.25000   0.66317   0.00000  Uiso   1.00
O133   O     0.00000   0.21964   0.83683   0.00000  Uiso   1.00
O134   O     0.00000   0.28036   0.16317   0.00000  Uiso   1.00
O135   O     0.28036  -0.00000   0.83683   0.00000  Uiso   1.00
O136   O     0.21964  -0.00000   0.16317   0.00000  Uiso   1.00
O137   O     0.00000   0.28036   0.83683   0.00000  Uiso   1.00
O138   O     0.00000   0.21964   0.16317   0.00000  Uiso   1.00
O139   O     0.21964  -0.00000   0.83683   0.00000  Uiso   1.00
O140   O     0.28036  -0.00000   0.16317   0.00000  Uiso   1.00
O141   O     0.20726   0.07307   0.27282   0.00000  Uiso   1.00
O142   O     0.29275   0.42693   0.72718   0.00000  Uiso   1.00
O143   O     0.42693   0.20725   0.27282   0.00000  Uiso   1.00
O144   O     0.07307   0.29274   0.72718   0.00000  Uiso   1.00
O145   O     0.29275   0.42693   0.27282   0.00000  Uiso   1.00
O146   O     0.20726   0.07307   0.72718   0.00000  Uiso   1.00
O147   O     0.07307   0.29274   0.27282   0.00000  Uiso   1.00
O148   O     0.42693   0.20725   0.72718   0.00000  Uiso   1.00
O149   O     0.20726   0.42693   0.72718   0.00000  Uiso   1.00
O150   O     0.29275   0.07307   0.27282   0.00000  Uiso   1.00
O151   O     0.42693   0.29274   0.72718   0.00000  Uiso   1.00
O152   O     0.07307   0.20725   0.27282   0.00000  Uiso   1.00
O153   O     0.29275   0.07307   0.72718   0.00000  Uiso   1.00
O154   O     0.20726   0.42693   0.27282   0.00000  Uiso   1.00
O155   O     0.07307   0.20725   0.72718   0.00000  Uiso   1.00
O156   O     0.42693   0.29274   0.27282   0.00000  Uiso   1.00
O157   O     0.45726   0.32307   0.77282   0.00000  Uiso   1.00
O158   O     0.04275   0.17693   0.22718   0.00000  Uiso   1.00
O159   O     0.17693   0.45725   0.77282   0.00000  Uiso   1.00
O160   O     0.32307   0.04274   0.22718   0.00000  Uiso   1.00
O161   O     0.04275   0.17693   0.77282   0.00000  Uiso   1.00
O162   O     0.45726   0.32307   0.22718   0.00000  Uiso   1.00
O163   O     0.32307   0.04274   0.77282   0.00000  Uiso   1.00
O164   O     0.17693   0.45725   0.22718   0.00000  Uiso   1.00
O165   O     0.45726   0.17693   0.22718   0.00000  Uiso   1.00
O166   O     0.04275   0.32307   0.77282   0.00000  Uiso   1.00
O167   O     0.17693   0.04274   0.22718   0.00000  Uiso   1.00
O168   O     0.32307   0.45725   0.77282   0.00000  Uiso   1.00
O169   O     0.04275   0.32307   0.22718   0.00000  Uiso   1.00
O170   O     0.45726   0.17693   0.77282   0.00000  Uiso   1.00
O171   O     0.32307   0.45725   0.22718   0.00000  Uiso   1.00
O172   O     0.17693   0.04274   0.77282   0.00000  Uiso   1.00
Zn173  Zn    0.20660  -0.00000   0.21760   0.00000  Uiso   1.00
Zn174  Zn    0.29340  -0.00000   0.78240   0.00000  Uiso   1.00
Zn175  Zn    0.00000   0.20660   0.21760   0.00000  Uiso   1.00
Zn176  Zn    0.00000   0.29340   0.78240   0.00000  Uiso   1.00
Zn177  Zn    0.29340  -0.00000   0.21760   0.00000  Uiso   1.00
Zn178  Zn    0.20660  -0.00000   0.78240   0.00000  Uiso   1.00
Zn179  Zn    0.00000   0.29340   0.21760   0.00000  Uiso   1.00
Zn180  Zn    0.00000   0.20660   0.78240   0.00000  Uiso   1.00
Zn181  Zn    0.45660   0.25000   0.71760   0.00000  Uiso   1.00
Zn182  Zn    0.04340   0.25000   0.28240   0.00000  Uiso   1.00
Zn183  Zn    0.25000   0.45660   0.71760   0.00000  Uiso   1.00
Zn184  Zn    0.25000   0.04340   0.28240   0.00000  Uiso   1.00
Zn185  Zn    0.04340   0.25000   0.71760   0.00000  Uiso   1.00
Zn186  Zn    0.45660   0.25000   0.28240   0.00000  Uiso   1.00
Zn187  Zn    0.25000   0.04340   0.71760   0.00000  Uiso   1.00
Zn188  Zn    0.25000   0.45660   0.28240   0.00000  Uiso   1.00
O189   O     0.18594   0.01364   0.02079   0.00000  Uiso   1.00
C190   C     0.18470   0.05130   0.01080   0.00000  Uiso   1.00
H191   H     0.20066   0.05587   0.98400   0.00000  Uiso   1.00
H192   H     0.19589   0.06943   0.03390   0.00000  Uiso   1.00
C193   C     0.14471   0.06215   0.00370   0.00000  Uiso   1.00
H194   H     0.13260   0.04395   0.98145   0.00000  Uiso   1.00
H195   H     0.12865   0.05845   0.03059   0.00000  Uiso   1.00
C196   C     0.14160   0.10206   0.99071   0.00000  Uiso   1.00
H197   H     0.15158   0.12064   0.01377   0.00000  Uiso   1.00
H198   H     0.11236   0.10849   0.98451   0.00000  Uiso   1.00
H199   H     0.15797   0.10683   0.96423   0.00000  Uiso   1.00
O200   O     0.30026   0.04144   0.97880   0.00000  Uiso   1.00
C201   C     0.28347   0.07284   0.99531   0.00000  Uiso   1.00
H202   H     0.30381   0.08544   0.01512   0.00000  Uiso   1.00
H203   H     0.25958   0.06565   0.01346   0.00000  Uiso   1.00
C204   C     0.27287   0.10193   0.96514   0.00000  Uiso   1.00
H205   H     0.29787   0.11085   0.94935   0.00000  Uiso   1.00
H206   H     0.25291   0.09031   0.94421   0.00000  Uiso   1.00
C207   C     0.25537   0.13545   0.98399   0.00000  Uiso   1.00
H208   H     0.22989   0.12742   0.99947   0.00000  Uiso   1.00
H209   H     0.24814   0.15597   0.96154   0.00000  Uiso   1.00
H210   H     0.27489   0.14827   0.00459   0.00000  Uiso   1.00
O211   O     0.47482   0.18733   0.02190   0.00000  Uiso   1.00
C212   C     0.43662   0.18747   0.01419   0.00000  Uiso   1.00
H213   H     0.43147   0.20275   0.98702   0.00000  Uiso   1.00
H214   H     0.42026   0.20017   0.03786   0.00000  Uiso   1.00
C215   C     0.42335   0.14789   0.00925   0.00000  Uiso   1.00
H216   H     0.44039   0.13383   0.98729   0.00000  Uiso   1.00
H217   H     0.42664   0.13283   0.03687   0.00000  Uiso   1.00
C218   C     0.38302   0.14649   0.99706   0.00000  Uiso   1.00
H219   H     0.36542   0.15962   0.01921   0.00000  Uiso   1.00
H220   H     0.37428   0.11742   0.99374   0.00000  Uiso   1.00
H221   H     0.37913   0.16086   0.96912   0.00000  Uiso   1.00
O222   O     0.44978   0.30130   0.97471   0.00000  Uiso   1.00
C223   C     0.41798   0.28565   0.99167   0.00000  Uiso   1.00
H224   H     0.40535   0.30711   0.01008   0.00000  Uiso   1.00
H225   H     0.42457   0.26266   0.01132   0.00000  Uiso   1.00
C226   C     0.38933   0.27389   0.96159   0.00000  Uiso   1.00
H227   H     0.38118   0.29809   0.94401   0.00000  Uiso   1.00
H228   H     0.40108   0.25266   0.94224   0.00000  Uiso   1.00
C229   C     0.35509   0.25805   0.98076   0.00000  Uiso   1.00
H230   H     0.36235   0.23350   0.99824   0.00000  Uiso   1.00
H231   H     0.33498   0.24972   0.95835   0.00000  Uiso   1.00
H232   H     0.34208   0.27897   0.99957   0.00000  Uiso   1.00
O233   O     0.31487   0.47707   0.02306   0.00000  Uiso   1.00
C234   C     0.31439   0.44237   0.00466   0.00000  Uiso   1.00
H235   H     0.33911   0.44118   0.98604   0.00000  Uiso   1.00
H236   H     0.29058   0.43921   0.98537   0.00000  Uiso   1.00
C237   C     0.31642   0.41002   0.03300   0.00000  Uiso   1.00
H238   H     0.34165   0.41246   0.05076   0.00000  Uiso   1.00
H239   H     0.29202   0.41019   0.05217   0.00000  Uiso   1.00
C240   C     0.31773   0.37333   0.01184   0.00000  Uiso   1.00
H241   H     0.29295   0.36995   0.99352   0.00000  Uiso   1.00
H242   H     0.31864   0.35050   0.03307   0.00000  Uiso   1.00
H243   H     0.34268   0.37180   0.99351   0.00000  Uiso   1.00
O244   O     0.20151   0.45063   0.97624   0.00000  Uiso   1.00
C245   C     0.21958   0.41675   0.98287   0.00000  Uiso   1.00
H246   H     0.23459   0.41818   0.01068   0.00000  Uiso   1.00
H247   H     0.23920   0.40953   0.95933   0.00000  Uiso   1.00
C248   C     0.19139   0.38572   0.98546   0.00000  Uiso   1.00
H249   H     0.17239   0.39084   0.00984   0.00000  Uiso   1.00
H250   H     0.17500   0.38473   0.95849   0.00000  Uiso   1.00
C251   C     0.21046   0.34871   0.99130   0.00000  Uiso   1.00
H252   H     0.23007   0.34337   0.96748   0.00000  Uiso   1.00
H253   H     0.18984   0.32628   0.99146   0.00000  Uiso   1.00
H254   H     0.22552   0.34841   0.01913   0.00000  Uiso   1.00
O255   O     0.01050   0.31638   0.02158   0.00000  Uiso   1.00
C256   C     0.04545   0.31687   0.00364   0.00000  Uiso   1.00
H257   H     0.04558   0.34055   0.98347   0.00000  Uiso   1.00
H258   H     0.05035   0.29223   0.98595   0.00000  Uiso   1.00
C259   C     0.07709   0.32231   0.03232   0.00000  Uiso   1.00
H260   H     0.07361   0.34898   0.04734   0.00000  Uiso   1.00
H261   H     0.07724   0.29976   0.05390   0.00000  Uiso   1.00
C262   C     0.11413   0.32258   0.01196   0.00000  Uiso   1.00
H263   H     0.11888   0.29599   0.99717   0.00000  Uiso   1.00
H264   H     0.13624   0.32680   0.03355   0.00000  Uiso   1.00
H265   H     0.11522   0.34524   0.99053   0.00000  Uiso   1.00
O266   O     0.03976   0.20184   0.97998   0.00000  Uiso   1.00
C267   C     0.07244   0.22024   0.99076   0.00000  Uiso   1.00
H268   H     0.06713   0.23758   0.01640   0.00000  Uiso   1.00
H269   H     0.08363   0.23757   0.96693   0.00000  Uiso   1.00
C270   C     0.10164   0.19200   0.00159   0.00000  Uiso   1.00
H271   H     0.09068   0.17361   0.02436   0.00000  Uiso   1.00
H272   H     0.10842   0.17527   0.97588   0.00000  Uiso   1.00
C273   C     0.13655   0.21055   0.01635   0.00000  Uiso   1.00
H274   H     0.14858   0.22836   0.99361   0.00000  Uiso   1.00
H275   H     0.15708   0.18933   0.02446   0.00000  Uiso   1.00
H276   H     0.13038   0.22748   0.04210   0.00000  Uiso   1.00
O277   O     0.44515   0.28723   0.52197   0.00000  Uiso   1.00
C278   C     0.45678   0.32210   0.50897   0.00000  Uiso   1.00
H279   H     0.47944   0.31938   0.48798   0.00000  Uiso   1.00
H280   H     0.46577   0.33969   0.53345   0.00000  Uiso   1.00
C281   C     0.42500   0.34070   0.48805   0.00000  Uiso   1.00
H282   H     0.41434   0.32166   0.46575   0.00000  Uiso   1.00
H283   H     0.40253   0.34677   0.50872   0.00000  Uiso   1.00
C284   C     0.43744   0.37621   0.46866   0.00000  Uiso   1.00
H285   H     0.44716   0.39621   0.49051   0.00000  Uiso   1.00
H286   H     0.41403   0.38828   0.45258   0.00000  Uiso   1.00
H287   H     0.45998   0.37065   0.44795   0.00000  Uiso   1.00
O288   O     0.06297   0.27858   0.47687   0.00000  Uiso   1.00
C289   C     0.05786   0.31329   0.49457   0.00000  Uiso   1.00
H290   H     0.08309   0.31896   0.51150   0.00000  Uiso   1.00
H291   H     0.03509   0.31303   0.51562   0.00000  Uiso   1.00
C292   C     0.05354   0.34505   0.46565   0.00000  Uiso   1.00
H293   H     0.07884   0.34734   0.44797   0.00000  Uiso   1.00
H294   H     0.02976   0.34008   0.44629   0.00000  Uiso   1.00
C295   C     0.04759   0.38152   0.48630   0.00000  Uiso   1.00
H296   H     0.02198   0.38052   0.50362   0.00000  Uiso   1.00
H297   H     0.04508   0.40399   0.46478   0.00000  Uiso   1.00
H298   H     0.07124   0.38761   0.50552   0.00000  Uiso   1.00
O299   O     0.22200   0.44124   0.52088   0.00000  Uiso   1.00
C300   C     0.18970   0.45079   0.50022   0.00000  Uiso   1.00
H301   H     0.18543   0.42933   0.47805   0.00000  Uiso   1.00
H302   H     0.19218   0.47684   0.48414   0.00000  Uiso   1.00
C303   C     0.15562   0.45180   0.52609   0.00000  Uiso   1.00
H304   H     0.15161   0.42443   0.53967   0.00000  Uiso   1.00
H305   H     0.15937   0.47267   0.54904   0.00000  Uiso   1.00
C306   C     0.12124   0.46158   0.50302   0.00000  Uiso   1.00
H307   H     0.12408   0.48938   0.49010   0.00000  Uiso   1.00
H308   H     0.09694   0.46152   0.52232   0.00000  Uiso   1.00
H309   H     0.11663   0.44118   0.47978   0.00000  Uiso   1.00
O310   O     0.22701   0.05956   0.47958   0.00000  Uiso   1.00
C311   C     0.18998   0.05231   0.48944   0.00000  Uiso   1.00
H312   H     0.18900   0.03435   0.51532   0.00000  Uiso   1.00
H313   H     0.17450   0.03900   0.46545   0.00000  Uiso   1.00
C314   C     0.17089   0.08845   0.49905   0.00000  Uiso   1.00
H315   H     0.18561   0.10180   0.52328   0.00000  Uiso   1.00
H316   H     0.17201   0.10711   0.47373   0.00000  Uiso   1.00
C317   C     0.13077   0.08221   0.51013   0.00000  Uiso   1.00
H318   H     0.11560   0.06910   0.48603   0.00000  Uiso   1.00
H319   H     0.11756   0.10897   0.51660   0.00000  Uiso   1.00
H320   H     0.12895   0.06434   0.53601   0.00000  Uiso   1.00
O321   O     0.05727   0.21355   0.52257   0.00000  Uiso   1.00
C322   C     0.04557   0.18011   0.50558   0.00000  Uiso   1.00
H323   H     0.06808   0.17058   0.48653   0.00000  Uiso   1.00
H324   H     0.02148   0.18383   0.48656   0.00000  Uiso   1.00
C325   C     0.03843   0.14971   0.53541   0.00000  Uiso   1.00
H326   H     0.06414   0.14410   0.55166   0.00000  Uiso   1.00
H327   H     0.01680   0.15845   0.55596   0.00000  Uiso   1.00
C328   C     0.02584   0.11425   0.51610   0.00000  Uiso   1.00
H329   H     0.49961   0.11881   0.50042   0.00000  Uiso   1.00
H330   H     0.02137   0.09273   0.53831   0.00000  Uiso   1.00
H331   H     0.04702   0.10440   0.49558   0.00000  Uiso   1.00
O332   O     0.44032   0.22440   0.47894   0.00000  Uiso   1.00
C333   C     0.44532   0.18703   0.48867   0.00000  Uiso   1.00
H334   H     0.46255   0.18493   0.51500   0.00000  Uiso   1.00
H335   H     0.45827   0.17103   0.46489   0.00000  Uiso   1.00
C336   C     0.40788   0.17010   0.49725   0.00000  Uiso   1.00
H337   H     0.39463   0.18572   0.52086   0.00000  Uiso   1.00
H338   H     0.39010   0.17209   0.47130   0.00000  Uiso   1.00
C339   C     0.41147   0.12986   0.50891   0.00000  Uiso   1.00
H340   H     0.42421   0.11374   0.48535   0.00000  Uiso   1.00
H341   H     0.38374   0.11852   0.51474   0.00000  Uiso   1.00
H342   H     0.42847   0.12716   0.53534   0.00000  Uiso   1.00
O343   O     0.28902   0.05803   0.52435   0.00000  Uiso   1.00
C344   C     0.32639   0.04964   0.51679   0.00000  Uiso   1.00
H345   H     0.33697   0.07113   0.49699   0.00000  Uiso   1.00
H346   H     0.32937   0.02371   0.50076   0.00000  Uiso   1.00
C347   C     0.35042   0.05039   0.55337   0.00000  Uiso   1.00
H348   H     0.35093   0.07885   0.56480   0.00000  Uiso   1.00
H349   H     0.33902   0.03190   0.57581   0.00000  Uiso   1.00
C350   C     0.38983   0.03817   0.54569   0.00000  Uiso   1.00
H351   H     0.39099   0.00778   0.54353   0.00000  Uiso   1.00
H352   H     0.40768   0.04662   0.57005   0.00000  Uiso   1.00
H353   H     0.40063   0.05068   0.51883   0.00000  Uiso   1.00
O354   O     0.28402   0.43836   0.47631   0.00000  Uiso   1.00
C355   C     0.32022   0.44373   0.49021   0.00000  Uiso   1.00
H356   H     0.32762   0.41905   0.50737   0.00000  Uiso   1.00
H357   H     0.32165   0.46684   0.51060   0.00000  Uiso   1.00
C358   C     0.34877   0.44732   0.45778   0.00000  Uiso   1.00
H359   H     0.35159   0.42033   0.44319   0.00000  Uiso   1.00
H360   H     0.33995   0.46808   0.43624   0.00000  Uiso   1.00
C361   C     0.38618   0.45923   0.47306   0.00000  Uiso   1.00
H362   H     0.38528   0.48868   0.48092   0.00000  Uiso   1.00
H363   H     0.40724   0.45595   0.45024   0.00000  Uiso   1.00
H364   H     0.39424   0.44255   0.49850   0.00000  Uiso   1.00
O365   O     0.16449   0.38992   0.18272   0.00000  Uiso   1.00
C366   C     0.14347   0.40854   0.15456   0.00000  Uiso   1.00
H367   H     0.13412   0.43570   0.16558   0.00000  Uiso   1.00
H368   H     0.11902   0.39224   0.14579   0.00000  Uiso   1.00
C369   C     0.16744   0.41478   0.11902   0.00000  Uiso   1.00
H370   H     0.18945   0.43488   0.12602   0.00000  Uiso   1.00
H371   H     0.18065   0.38848   0.11057   0.00000  Uiso   1.00
C372   C     0.14488   0.42898   0.08505   0.00000  Uiso   1.00
H373   H     0.12607   0.40713   0.07450   0.00000  Uiso   1.00
H374   H     0.16360   0.43712   0.06131   0.00000  Uiso   1.00
H375   H     0.12834   0.45325   0.09357   0.00000  Uiso   1.00
O376   O     0.33281   0.11300   0.81582   0.00000  Uiso   1.00
C377   C     0.30202   0.13659   0.81312   0.00000  Uiso   1.00
H378   H     0.28524   0.13008   0.78715   0.00000  Uiso   1.00
H379   H     0.31098   0.16575   0.81155   0.00000  Uiso   1.00
C380   C     0.27782   0.13170   0.84867   0.00000  Uiso   1.00
H381   H     0.26685   0.10320   0.84936   0.00000  Uiso   1.00
H382   H     0.29452   0.13635   0.87503   0.00000  Uiso   1.00
C383   C     0.24563   0.15857   0.84838   0.00000  Uiso   1.00
H384   H     0.25582   0.18734   0.84914   0.00000  Uiso   1.00
H385   H     0.22809   0.15374   0.87402   0.00000  Uiso   1.00
H386   H     0.22873   0.15456   0.82210   0.00000  Uiso   1.00
O387   O     0.10437   0.15860   0.18097   0.00000  Uiso   1.00
C388   C     0.08475   0.13400   0.15693   0.00000  Uiso   1.00
H389   H     0.05488   0.13983   0.15966   0.00000  Uiso   1.00
H390   H     0.08896   0.10435   0.16415   0.00000  Uiso   1.00
C391   C     0.09634   0.14021   0.11515   0.00000  Uiso   1.00
H392   H     0.08872   0.16852   0.10609   0.00000  Uiso   1.00
H393   H     0.12666   0.13728   0.11273   0.00000  Uiso   1.00
C394   C     0.07799   0.11252   0.08834   0.00000  Uiso   1.00
H395   H     0.08537   0.08402   0.09687   0.00000  Uiso   1.00
H396   H     0.08753   0.11706   0.05843   0.00000  Uiso   1.00
H397   H     0.04765   0.11574   0.08918   0.00000  Uiso   1.00
O398   O     0.38122   0.32661   0.81190   0.00000  Uiso   1.00
C399   C     0.35789   0.29616   0.80595   0.00000  Uiso   1.00
H400   H     0.36670   0.28041   0.78010   0.00000  Uiso   1.00
H401   H     0.32888   0.30516   0.80202   0.00000  Uiso   1.00
C402   C     0.35996   0.27089   0.84104   0.00000  Uiso   1.00
H403   H     0.38844   0.26019   0.84411   0.00000  Uiso   1.00
H404   H     0.35290   0.28663   0.86739   0.00000  Uiso   1.00
C405   C     0.33356   0.23859   0.83707   0.00000  Uiso   1.00
H406   H     0.30468   0.24848   0.83634   0.00000  Uiso   1.00
H407   H     0.33693   0.21966   0.86193   0.00000  Uiso   1.00
H408   H     0.33953   0.22339   0.81015   0.00000  Uiso   1.00
O409   O     0.33751   0.10848   0.18198   0.00000  Uiso   1.00
C410   C     0.36030   0.08956   0.15572   0.00000  Uiso   1.00
H411   H     0.36811   0.06218   0.16758   0.00000  Uiso   1.00
H412   H     0.38581   0.10524   0.14923   0.00000  Uiso   1.00
C413   C     0.33930   0.08394   0.11806   0.00000  Uiso   1.00
H414   H     0.31629   0.06437   0.12291   0.00000  Uiso   1.00
H415   H     0.32756   0.11057   0.10830   0.00000  Uiso   1.00
C416   C     0.36447   0.06917   0.08656   0.00000  Uiso   1.00
H417   H     0.38484   0.09045   0.07813   0.00000  Uiso   1.00
H418   H     0.34791   0.06172   0.06092   0.00000  Uiso   1.00
H419   H     0.37937   0.04436   0.09670   0.00000  Uiso   1.00
O420   O     0.17217   0.38128   0.81306   0.00000  Uiso   1.00
C421   C     0.20105   0.35569   0.80852   0.00000  Uiso   1.00
H422   H     0.22022   0.36539   0.78570   0.00000  Uiso   1.00
H423   H     0.19061   0.32788   0.80062   0.00000  Uiso   1.00
C424   C     0.22207   0.35232   0.84643   0.00000  Uiso   1.00
H425   H     0.23448   0.37931   0.85373   0.00000  Uiso   1.00
H426   H     0.20276   0.34440   0.86979   0.00000  Uiso   1.00
C427   C     0.25248   0.32359   0.84379   0.00000  Uiso   1.00
H428   H     0.24063   0.29602   0.83803   0.00000  Uiso   1.00
H429   H     0.26794   0.32247   0.87133   0.00000  Uiso   1.00
H430   H     0.27176   0.33088   0.82031   0.00000  Uiso   1.00
O431   O     0.39410   0.33978   0.18106   0.00000  Uiso   1.00
C432   C     0.41124   0.36338   0.15407   0.00000  Uiso   1.00
H433   H     0.44151   0.36209   0.15828   0.00000  Uiso   1.00
H434   H     0.40284   0.39274   0.15665   0.00000  Uiso   1.00
C435   C     0.40188   0.35004   0.11350   0.00000  Uiso   1.00
H436   H     0.41507   0.32290   0.10850   0.00000  Uiso   1.00
H437   H     0.37162   0.34657   0.11084   0.00000  Uiso   1.00
C438   C     0.41474   0.37716   0.08279   0.00000  Uiso   1.00
H439   H     0.40090   0.40410   0.08660   0.00000  Uiso   1.00
H440   H     0.40776   0.36637   0.05383   0.00000  Uiso   1.00
H441   H     0.44492   0.38120   0.08455   0.00000  Uiso   1.00
O442   O     0.11528   0.16860   0.81516   0.00000  Uiso   1.00
C443   C     0.14157   0.19714   0.81245   0.00000  Uiso   1.00
H444   H     0.13495   0.21554   0.78773   0.00000  Uiso   1.00
H445   H     0.16983   0.18590   0.80861   0.00000  Uiso   1.00
C446   C     0.14108   0.21981   0.84937   0.00000  Uiso   1.00
H447   H     0.11384   0.23325   0.85244   0.00000  Uiso   1.00
H448   H     0.14562   0.20142   0.87452   0.00000  Uiso   1.00
C449   C     0.17091   0.24931   0.84891   0.00000  Uiso   1.00
H450   H     0.19852   0.23649   0.84654   0.00000  Uiso   1.00
H451   H     0.16987   0.26538   0.87599   0.00000  Uiso   1.00
H452   H     0.16661   0.26829   0.82427   0.00000  Uiso   1.00
O453   O     0.16629   0.11155   0.81610   0.00000  Uiso   1.00
C454   C     0.14627   0.09028   0.84279   0.00000  Uiso   1.00
H455   H     0.13394   0.06559   0.82880   0.00000  Uiso   1.00
H456   H     0.12391   0.10694   0.85593   0.00000  Uiso   1.00
C457   C     0.17239   0.07756   0.87457   0.00000  Uiso   1.00
H458   H     0.19763   0.06579   0.86156   0.00000  Uiso   1.00
H459   H     0.18057   0.10147   0.89249   0.00000  Uiso   1.00
C460   C     0.15436   0.04853   0.89993   0.00000  Uiso   1.00
H461   H     0.12909   0.05979   0.91336   0.00000  Uiso   1.00
H462   H     0.17384   0.03996   0.92279   0.00000  Uiso   1.00
H463   H     0.14701   0.02399   0.88262   0.00000  Uiso   1.00
O464   O     0.33843   0.39338   0.18141   0.00000  Uiso   1.00
C465   C     0.30918   0.36844   0.17587   0.00000  Uiso   1.00
H466   H     0.28941   0.36983   0.20031   0.00000  Uiso   1.00
H467   H     0.31974   0.33981   0.17311   0.00000  Uiso   1.00
C468   C     0.28894   0.37870   0.13882   0.00000  Uiso   1.00
H469   H     0.27775   0.40702   0.14136   0.00000  Uiso   1.00
H470   H     0.30860   0.37810   0.11441   0.00000  Uiso   1.00
C471   C     0.25742   0.35223   0.13044   0.00000  Uiso   1.00
H472   H     0.26793   0.32369   0.12777   0.00000  Uiso   1.00
H473   H     0.24400   0.36009   0.10291   0.00000  Uiso   1.00
H474   H     0.23665   0.35336   0.15381   0.00000  Uiso   1.00
O475   O     0.11762   0.32752   0.81235   0.00000  Uiso   1.00
C476   C     0.09798   0.34387   0.84277   0.00000  Uiso   1.00
H477   H     0.07267   0.35807   0.83226   0.00000  Uiso   1.00
H478   H     0.11569   0.36406   0.85809   0.00000  Uiso   1.00
C479   C     0.08664   0.31368   0.87087   0.00000  Uiso   1.00
H480   H     0.07214   0.29153   0.85497   0.00000  Uiso   1.00
H481   H     0.11154   0.30168   0.88453   0.00000  Uiso   1.00
C482   C     0.06135   0.32842   0.90204   0.00000  Uiso   1.00
H483   H     0.07588   0.34944   0.91950   0.00000  Uiso   1.00
H484   H     0.05295   0.30536   0.92089   0.00000  Uiso   1.00
H485   H     0.03624   0.34069   0.88912   0.00000  Uiso   1.00
O486   O     0.39092   0.16410   0.18270   0.00000  Uiso   1.00
C487   C     0.36748   0.19493   0.18035   0.00000  Uiso   1.00
H488   H     0.36877   0.21167   0.20717   0.00000  Uiso   1.00
H489   H     0.33860   0.18590   0.17533   0.00000  Uiso   1.00
C490   C     0.37978   0.21903   0.14665   0.00000  Uiso   1.00
H491   H     0.40883   0.22758   0.15111   0.00000  Uiso   1.00
H492   H     0.37819   0.20296   0.11953   0.00000  Uiso   1.00
C493   C     0.35586   0.25331   0.14281   0.00000  Uiso   1.00
H494   H     0.32670   0.24549   0.13793   0.00000  Uiso   1.00
H495   H     0.36537   0.26997   0.11794   0.00000  Uiso   1.00
H496   H     0.35785   0.27031   0.16923   0.00000  Uiso   1.00
O497   O     0.32641   0.38023   0.81139   0.00000  Uiso   1.00
C498   C     0.34259   0.39942   0.84230   0.00000  Uiso   1.00
H499   H     0.35699   0.42482   0.83237   0.00000  Uiso   1.00
H500   H     0.36259   0.38142   0.85760   0.00000  Uiso   1.00
C501   C     0.31230   0.41052   0.87024   0.00000  Uiso   1.00
H502   H     0.29065   0.42598   0.85446   0.00000  Uiso   1.00
H503   H     0.29964   0.38550   0.88295   0.00000  Uiso   1.00
C504   C     0.32736   0.43451   0.90239   0.00000  Uiso   1.00
H505   H     0.34781   0.41895   0.91969   0.00000  Uiso   1.00
H506   H     0.30435   0.44299   0.92114   0.00000  Uiso   1.00
H507   H     0.34046   0.45961   0.89042   0.00000  Uiso   1.00
O508   O     0.16069   0.10645   0.18164   0.00000  Uiso   1.00
C509   C     0.19067   0.13060   0.17638   0.00000  Uiso   1.00
H510   H     0.20897   0.13081   0.20217   0.00000  Uiso   1.00
H511   H     0.18055   0.15900   0.17070   0.00000  Uiso   1.00
C512   C     0.21317   0.11772   0.14184   0.00000  Uiso   1.00
H513   H     0.22326   0.08933   0.14720   0.00000  Uiso   1.00
H514   H     0.19543   0.11740   0.11577   0.00000  Uiso   1.00
C515   C     0.24607   0.14279   0.13453   0.00000  Uiso   1.00
H516   H     0.23673   0.17140   0.12911   0.00000  Uiso   1.00
H517   H     0.26126   0.13299   0.10884   0.00000  Uiso   1.00
H518   H     0.26499   0.14243   0.15965   0.00000  Uiso   1.00
O519   O     0.38826   0.16591   0.81604   0.00000  Uiso   1.00
C520   C     0.40902   0.14635   0.84358   0.00000  Uiso   1.00
H521   H     0.43465   0.13501   0.83062   0.00000  Uiso   1.00
H522   H     0.39258   0.12338   0.85594   0.00000  Uiso   1.00
C523   C     0.41957   0.17263   0.87599   0.00000  Uiso   1.00
H524   H     0.43311   0.19736   0.86367   0.00000  Uiso   1.00
H525   H     0.39437   0.18166   0.89137   0.00000  Uiso   1.00
C526   C     0.44570   0.15437   0.90449   0.00000  Uiso   1.00
H527   H     0.43243   0.12989   0.91760   0.00000  Uiso   1.00
H528   H     0.45294   0.17415   0.92751   0.00000  Uiso   1.00
H529   H     0.47138   0.14579   0.88979   0.00000  Uiso   1.00
O530   O     0.10876   0.33630   0.18251   0.00000  Uiso   1.00
C531   C     0.13124   0.30477   0.18034   0.00000  Uiso   1.00
H532   H     0.12971   0.28818   0.20732   0.00000  Uiso   1.00
H533   H     0.16032   0.31293   0.17505   0.00000  Uiso   1.00
C534   C     0.11790   0.28093   0.14693   0.00000  Uiso   1.00
H535   H     0.08853   0.27363   0.15147   0.00000  Uiso   1.00
H536   H     0.12009   0.29672   0.11960   0.00000  Uiso   1.00
C537   C     0.14037   0.24566   0.14356   0.00000  Uiso   1.00
H538   H     0.16973   0.25224   0.13812   0.00000  Uiso   1.00
H539   H     0.12979   0.22897   0.11924   0.00000  Uiso   1.00
H540   H     0.13812   0.22918   0.17039   0.00000  Uiso   1.00
O541   O     0.41051   0.14296   0.68125   0.00000  Uiso   1.00
C542   C     0.38686   0.16504   0.65836   0.00000  Uiso   1.00
H543   H     0.39894   0.19302   0.65627   0.00000  Uiso   1.00
H544   H     0.35847   0.16833   0.67025   0.00000  Uiso   1.00
C545   C     0.38415   0.14894   0.61783   0.00000  Uiso   1.00
H546   H     0.41150   0.15028   0.60367   0.00000  Uiso   1.00
H547   H     0.37567   0.11970   0.61944   0.00000  Uiso   1.00
C548   C     0.35601   0.16977   0.59356   0.00000  Uiso   1.00
H549   H     0.32874   0.16972   0.60790   0.00000  Uiso   1.00
H550   H     0.35286   0.15614   0.56525   0.00000  Uiso   1.00
H551   H     0.36513   0.19859   0.58901   0.00000  Uiso   1.00
O552   O     0.08546   0.36009   0.31702   0.00000  Uiso   1.00
C553   C     0.05435   0.38331   0.31798   0.00000  Uiso   1.00
H554   H     0.03856   0.38208   0.29046   0.00000  Uiso   1.00
H555   H     0.06306   0.41220   0.32334   0.00000  Uiso   1.00
C556   C     0.02900   0.37086   0.35055   0.00000  Uiso   1.00
H557   H     0.02104   0.34169   0.34593   0.00000  Uiso   1.00
H558   H     0.04386   0.37284   0.37843   0.00000  Uiso   1.00
C559   C     0.49422   0.39425   0.35242   0.00000  Uiso   1.00
H560   H     0.00137   0.42346   0.35788   0.00000  Uiso   1.00
H561   H     0.47640   0.38428   0.37615   0.00000  Uiso   1.00
H562   H     0.47862   0.39224   0.32500   0.00000  Uiso   1.00
O563   O     0.37016   0.42519   0.68924   0.00000  Uiso   1.00
C564   C     0.35202   0.41015   0.65703   0.00000  Uiso   1.00
H565   H     0.32588   0.39620   0.66541   0.00000  Uiso   1.00
H566   H     0.37020   0.39008   0.64223   0.00000  Uiso   1.00
C567   C     0.34283   0.44135   0.62920   0.00000  Uiso   1.00
H568   H     0.32563   0.46212   0.64414   0.00000  Uiso   1.00
H569   H     0.36862   0.45489   0.61962   0.00000  Uiso   1.00
C570   C     0.32221   0.42728   0.59407   0.00000  Uiso   1.00
H571   H     0.33984   0.40815   0.57744   0.00000  Uiso   1.00
H572   H     0.31465   0.45094   0.57556   0.00000  Uiso   1.00
H573   H     0.29667   0.41285   0.60286   0.00000  Uiso   1.00
O574   O     0.14104   0.08628   0.31750   0.00000  Uiso   1.00
C575   C     0.11562   0.05700   0.31993   0.00000  Uiso   1.00
H576   H     0.11670   0.03955   0.29362   0.00000  Uiso   1.00
H577   H     0.08719   0.06782   0.32362   0.00000  Uiso   1.00
C578   C     0.12520   0.03304   0.35469   0.00000  Uiso   1.00
H579   H     0.15357   0.02214   0.35140   0.00000  Uiso   1.00
H580   H     0.12414   0.04998   0.38125   0.00000  Uiso   1.00
C581   C     0.09857   0.00084   0.35877   0.00000  Uiso   1.00
H582   H     0.06996   0.01101   0.36206   0.00000  Uiso   1.00
H583   H     0.10588   0.48447   0.38467   0.00000  Uiso   1.00
H584   H     0.10017   0.48274   0.33313   0.00000  Uiso   1.00
O585   O     0.07997   0.36645   0.68562   0.00000  Uiso   1.00
C586   C     0.09890   0.34742   0.65639   0.00000  Uiso   1.00
H587   H     0.11352   0.32278   0.66800   0.00000  Uiso   1.00
H588   H     0.11917   0.36588   0.64219   0.00000  Uiso   1.00
C589   C     0.07115   0.33454   0.62639   0.00000  Uiso   1.00
H590   H     0.04996   0.31724   0.64056   0.00000  Uiso   1.00
H591   H     0.05722   0.35868   0.61323   0.00000  Uiso   1.00
C592   C     0.08989   0.31237   0.59492   0.00000  Uiso   1.00
H593   H     0.10856   0.33028   0.57794   0.00000  Uiso   1.00
H594   H     0.06866   0.30067   0.57566   0.00000  Uiso   1.00
H595   H     0.10598   0.28940   0.60755   0.00000  Uiso   1.00
O596   O     0.41500   0.13954   0.31698   0.00000  Uiso   1.00
C597   C     0.44552   0.11557   0.31795   0.00000  Uiso   1.00
H598   H     0.46161   0.11714   0.29068   0.00000  Uiso   1.00
H599   H     0.43614   0.08675   0.32258   0.00000  Uiso   1.00
C600   C     0.47074   0.12666   0.35116   0.00000  Uiso   1.00
H601   H     0.47974   0.15562   0.34710   0.00000  Uiso   1.00
H602   H     0.45537   0.12474   0.37872   0.00000  Uiso   1.00
C603   C     0.00463   0.10202   0.35335   0.00000  Uiso   1.00
H604   H     0.49637   0.07292   0.35773   0.00000  Uiso   1.00
H605   H     0.02213   0.11060   0.37793   0.00000  Uiso   1.00
H606   H     0.02096   0.10434   0.32648   0.00000  Uiso   1.00
O607   O     0.14237   0.08929   0.68141   0.00000  Uiso   1.00
C608   C     0.16372   0.11309   0.65801   0.00000  Uiso   1.00
H609   H     0.19203   0.10176   0.65612   0.00000  Uiso   1.00
H610   H     0.16627   0.14177   0.66926   0.00000  Uiso   1.00
C611   C     0.14732   0.11459   0.61750   0.00000  Uiso   1.00
H612   H     0.14970   0.08714   0.60377   0.00000  Uiso   1.00
H613   H     0.11773   0.12183   0.61913   0.00000  Uiso   1.00
C614   C     0.16690   0.14320   0.59273   0.00000  Uiso   1.00
H615   H     0.16569   0.17066   0.60655   0.00000  Uiso   1.00
H616   H     0.15315   0.14526   0.56432   0.00000  Uiso   1.00
H617   H     0.19610   0.13529   0.58845   0.00000  Uiso   1.00
O618   O     0.35808   0.41178   0.31758   0.00000  Uiso   1.00
C619   C     0.38245   0.44194   0.32007   0.00000  Uiso   1.00
H620   H     0.37868   0.46089   0.29512   0.00000  Uiso   1.00
H621   H     0.41155   0.43230   0.32094   0.00000  Uiso   1.00
C622   C     0.37453   0.46316   0.35695   0.00000  Uiso   1.00
H623   H     0.34542   0.47247   0.35696   0.00000  Uiso   1.00
H624   H     0.37895   0.44464   0.38191   0.00000  Uiso   1.00
C625   C     0.39964   0.49652   0.36103   0.00000  Uiso   1.00
H626   H     0.42892   0.48787   0.36113   0.00000  Uiso   1.00
H627   H     0.39367   0.01065   0.38859   0.00000  Uiso   1.00
H628   H     0.39490   0.01612   0.33698   0.00000  Uiso   1.00
O629   O     0.40744   0.35338   0.31878   0.00000  Uiso   1.00
C630   C     0.38216   0.33315   0.34153   0.00000  Uiso   1.00
H631   H     0.39025   0.30371   0.34098   0.00000  Uiso   1.00
H632   H     0.35299   0.33477   0.33143   0.00000  Uiso   1.00
C633   C     0.38396   0.34686   0.38299   0.00000  Uiso   1.00
H634   H     0.41193   0.34178   0.39472   0.00000  Uiso   1.00
H635   H     0.37865   0.37688   0.38358   0.00000  Uiso   1.00
C636   C     0.35553   0.32761   0.40826   0.00000  Uiso   1.00
H637   H     0.32748   0.33137   0.39622   0.00000  Uiso   1.00
H638   H     0.35600   0.33967   0.43755   0.00000  Uiso   1.00
H639   H     0.36178   0.29779   0.41034   0.00000  Uiso   1.00
O640   O     0.08461   0.13954   0.68333   0.00000  Uiso   1.00
C641   C     0.05413   0.11552   0.68220   0.00000  Uiso   1.00
H642   H     0.03696   0.11848   0.70857   0.00000  Uiso   1.00
H643   H     0.06351   0.08650   0.67964   0.00000  Uiso   1.00
C644   C     0.03047   0.12499   0.64720   0.00000  Uiso   1.00
H645   H     0.02153   0.15413   0.64908   0.00000  Uiso   1.00
H646   H     0.04691   0.12136   0.62057   0.00000  Uiso   1.00
C647   C     0.49641   0.10072   0.64497   0.00000  Uiso   1.00
H648   H     0.00437   0.07131   0.64311   0.00000  Uiso   1.00
H649   H     0.48011   0.10807   0.61903   0.00000  Uiso   1.00
H650   H     0.47912   0.10509   0.67081   0.00000  Uiso   1.00
O651   O     0.35969   0.08571   0.31719   0.00000  Uiso   1.00
C652   C     0.34084   0.10711   0.34468   0.00000  Uiso   1.00
H653   H     0.31464   0.11798   0.33249   0.00000  Uiso   1.00
H654   H     0.35805   0.13051   0.35463   0.00000  Uiso   1.00
C655   C     0.33188   0.08292   0.37944   0.00000  Uiso   1.00
H656   H     0.31272   0.06072   0.37054   0.00000  Uiso   1.00
H657   H     0.35752   0.07000   0.39042   0.00000  Uiso   1.00
C658   C     0.31444   0.10516   0.41179   0.00000  Uiso   1.00
H659   H     0.33459   0.12515   0.42357   0.00000  Uiso   1.00
H660   H     0.30569   0.08636   0.43524   0.00000  Uiso   1.00
H661   H     0.28996   0.12027   0.40108   0.00000  Uiso   1.00
O662   O     0.13504   0.42027   0.68571   0.00000  Uiso   1.00
C663   C     0.11304   0.45203   0.68899   0.00000  Uiso   1.00
H664   H     0.11897   0.46700   0.71625   0.00000  Uiso   1.00
H665   H     0.08344   0.44449   0.68819   0.00000  Uiso   1.00
C666   C     0.12130   0.47768   0.65522   0.00000  Uiso   1.00
H667   H     0.15066   0.48614   0.65635   0.00000  Uiso   1.00
H668   H     0.11645   0.46293   0.62769   0.00000  Uiso   1.00
C669   C     0.09708   0.01190   0.65636   0.00000  Uiso   1.00
H670   H     0.06766   0.00418   0.65340   0.00000  Uiso   1.00
H671   H     0.10453   0.03056   0.63228   0.00000  Uiso   1.00
H672   H     0.10108   0.02672   0.68394   0.00000  Uiso   1.00
O673   O     0.08965   0.14374   0.31853   0.00000  Uiso   1.00
C674   C     0.11346   0.16277   0.34372   0.00000  Uiso   1.00
H675   H     0.12390   0.18839   0.32987   0.00000  Uiso   1.00
H676   H     0.13723   0.14536   0.35233   0.00000  Uiso   1.00
C677   C     0.09226   0.17319   0.38002   0.00000  Uiso   1.00
H678   H     0.06996   0.19275   0.37238   0.00000  Uiso   1.00
H679   H     0.07954   0.14820   0.39276   0.00000  Uiso   1.00
C680   C     0.11751   0.19074   0.40990   0.00000  Uiso   1.00
H681   H     0.13764   0.17022   0.42078   0.00000  Uiso   1.00
H682   H     0.10091   0.20089   0.43443   0.00000  Uiso   1.00
H683   H     0.13262   0.21432   0.39718   0.00000  Uiso   1.00
O684   O     0.42370   0.36965   0.68800   0.00000  Uiso   1.00
C685   C     0.45242   0.39526   0.69318   0.00000  Uiso   1.00
H686   H     0.46757   0.38956   0.72047   0.00000  Uiso   1.00
H687   H     0.44151   0.42386   0.69388   0.00000  Uiso   1.00
C688   C     0.47930   0.39212   0.65965   0.00000  Uiso   1.00
H689   H     0.49187   0.36426   0.65972   0.00000  Uiso   1.00
H690   H     0.46429   0.39599   0.63205   0.00000  Uiso   1.00
C691   C     0.00958   0.42096   0.66268   0.00000  Uiso   1.00
H692   H     0.49772   0.44903   0.66061   0.00000  Uiso   1.00
H693   H     0.02960   0.41730   0.63893   0.00000  Uiso   1.00
H694   H     0.02417   0.41805   0.69058   0.00000  Uiso   1.00
O695   O     0.14101   0.41337   0.31736   0.00000  Uiso   1.00
C696   C     0.15811   0.39099   0.34559   0.00000  Uiso   1.00
H697   H     0.18818   0.39644   0.34513   0.00000  Uiso   1.00
H698   H     0.15413   0.36085   0.34115   0.00000  Uiso   1.00
C699   C     0.14297   0.40121   0.38518   0.00000  Uiso   1.00
H700   H     0.14991   0.43030   0.39164   0.00000  Uiso   1.00
H701   H     0.11255   0.39836   0.38501   0.00000  Uiso   1.00
C702   C     0.15876   0.37658   0.41671   0.00000  Uiso   1.00
H703   H     0.15235   0.34730   0.41073   0.00000  Uiso   1.00
H704   H     0.14630   0.38399   0.44477   0.00000  Uiso   1.00
H705   H     0.18904   0.38018   0.41863   0.00000  Uiso   1.00
O706   O     0.35910   0.08675   0.68195   0.00000  Uiso   1.00
C707   C     0.37450   0.05099   0.68171   0.00000  Uiso   1.00
H708   H     0.35848   0.03439   0.66076   0.00000  Uiso   1.00
H709   H     0.37228   0.03660   0.70992   0.00000  Uiso   1.00
C710   C     0.41473   0.05195   0.66882   0.00000  Uiso   1.00
H711   H     0.41726   0.06837   0.64196   0.00000  Uiso   1.00
H712   H     0.43154   0.06509   0.69164   0.00000  Uiso   1.00
C713   C     0.42956   0.01335   0.66163   0.00000  Uiso   1.00
H714   H     0.42658   0.49609   0.68784   0.00000  Uiso   1.00
H715   H     0.45915   0.01493   0.65400   0.00000  Uiso   1.00
H716   H     0.41455   0.00033   0.63742   0.00000  Uiso   1.00
I717   I     0.16798   0.02822   0.10648   0.00000  Uiso   1.00
I718   I     0.32062   0.04897   0.89247   0.00000  Uiso   1.00
I719   I     0.47278   0.16658   0.10763   0.00000  Uiso   1.00
I720   I     0.44429   0.31766   0.88727   0.00000  Uiso   1.00
I721   I     0.33355   0.47231   0.10879   0.00000  Uiso   1.00
I722   I     0.18463   0.44308   0.88869   0.00000  Uiso   1.00
I723   I     0.01495   0.33642   0.10691   0.00000  Uiso   1.00
I724   I     0.05354   0.18454   0.89358   0.00000  Uiso   1.00
I725   I     0.43040   0.30074   0.60874   0.00000  Uiso   1.00
I726   I     0.08041   0.28554   0.39066   0.00000  Uiso   1.00
I727   I     0.20892   0.42422   0.60709   0.00000  Uiso   1.00
I728   I     0.21337   0.07767   0.39375   0.00000  Uiso   1.00
I729   I     0.07636   0.20770   0.60887   0.00000  Uiso   1.00
I730   I     0.42086   0.21505   0.39318   0.00000  Uiso   1.00
I731   I     0.27725   0.08371   0.60779   0.00000  Uiso   1.00
I732   I     0.28032   0.41697   0.39138   0.00000  Uiso   1.00
C733   C     0.71807   0.00608   0.04076   0.00000  Uiso   1.00
C734   C     0.77471   0.02020   0.95907   0.00000  Uiso   1.00
C735   C     0.98448   0.21917   0.04132   0.00000  Uiso   1.00
C736   C     0.97140   0.27478   0.95698   0.00000  Uiso   1.00
C737   C     0.78184   0.48457   0.04155   0.00000  Uiso   1.00
C738   C     0.72538   0.47446   0.95756   0.00000  Uiso   1.00
C739   C     0.50433   0.28341   0.04076   0.00000  Uiso   1.00
C740   C     0.51746   0.22574   0.95937   0.00000  Uiso   1.00
C741   C     0.97366   0.27004   0.54143   0.00000  Uiso   1.00
C742   C     0.53131   0.26645   0.45835   0.00000  Uiso   1.00
C743   C     0.73660   0.47116   0.54052   0.00000  Uiso   1.00
C744   C     0.74123   0.03001   0.45934   0.00000  Uiso   1.00
C745   C     0.52856   0.23105   0.54154   0.00000  Uiso   1.00
C746   C     0.97076   0.23708   0.45901   0.00000  Uiso   1.00
C747   C     0.77158   0.02878   0.54256   0.00000  Uiso   1.00
C748   C     0.77082   0.46968   0.45793   0.00000  Uiso   1.00
C749   C     0.71794   0.00781   0.08096   0.00000  Uiso   1.00
C750   C     0.77651   0.01916   0.91882   0.00000  Uiso   1.00
C751   C     0.98708   0.21832   0.08146   0.00000  Uiso   1.00
C752   C     0.97484   0.27589   0.91682   0.00000  Uiso   1.00
C753   C     0.78218   0.48700   0.08178   0.00000  Uiso   1.00
C754   C     0.72432   0.47677   0.91740   0.00000  Uiso   1.00
C755   C     0.50414   0.28363   0.08107   0.00000  Uiso   1.00
C756   C     0.51809   0.22447   0.91920   0.00000  Uiso   1.00
C757   C     0.97290   0.26925   0.58162   0.00000  Uiso   1.00
C758   C     0.53150   0.26482   0.41807   0.00000  Uiso   1.00
C759   C     0.73547   0.47071   0.58084   0.00000  Uiso   1.00
C760   C     0.73932   0.03034   0.41914   0.00000  Uiso   1.00
C761   C     0.52945   0.23266   0.58180   0.00000  Uiso   1.00
C762   C     0.96978   0.23753   0.41885   0.00000  Uiso   1.00
C763   C     0.76474   0.03131   0.58205   0.00000  Uiso   1.00
C764   C     0.76578   0.46839   0.41798   0.00000  Uiso   1.00
C765   C     0.74990   0.49490   0.02096   0.00000  Uiso   1.00
C766   C     0.74998   0.49671   0.97856   0.00000  Uiso   1.00
C767   C     0.99399   0.25122   0.02085   0.00000  Uiso   1.00
C768   C     0.99365   0.25031   0.97842   0.00000  Uiso   1.00
C769   C     0.50119   0.25066   0.52128   0.00000  Uiso   1.00
C770   C     0.50125   0.25155   0.47887   0.00000  Uiso   1.00
C771   C     0.75637   0.49937   0.52134   0.00000  Uiso   1.00
C772   C     0.75780   0.00025   0.47886   0.00000  Uiso   1.00
C773   C     0.75003   0.49987   0.35541   0.00000  Uiso   1.00
C774   C     0.74943   0.00017   0.64460   0.00000  Uiso   1.00
C775   C     0.50009   0.25018   0.35538   0.00000  Uiso   1.00
C776   C     0.50012   0.25004   0.64465   0.00000  Uiso   1.00
C777   C     0.99954   0.25000   0.85529   0.00000  Uiso   1.00
C778   C     0.99939   0.25011   0.14454   0.00000  Uiso   1.00
C779   C     0.75006   0.49990   0.85531   0.00000  Uiso   1.00
C780   C     0.75002   0.49981   0.14456   0.00000  Uiso   1.00
C781   C     0.67997   0.06991   0.25001   0.00000  Uiso   1.00
C782   C     0.82002   0.42999   0.75003   0.00000  Uiso   1.00
C783   C     0.93007   0.18001   0.25007   0.00000  Uiso   1.00
C784   C     0.56985   0.32019   0.74972   0.00000  Uiso   1.00
C785   C     0.81987   0.42992   0.24982   0.00000  Uiso   1.00
C786   C     0.67992   0.06998   0.74981   0.00000  Uiso   1.00
C787   C     0.56993   0.32002   0.25003   0.00000  Uiso   1.00
C788   C     0.93000   0.17989   0.74985   0.00000  Uiso   1.00
C789   C     0.68028   0.42982   0.75032   0.00000  Uiso   1.00
C790   C     0.82001   0.07005   0.24992   0.00000  Uiso   1.00
C791   C     0.93012   0.32008   0.74979   0.00000  Uiso   1.00
C792   C     0.57005   0.17998   0.25001   0.00000  Uiso   1.00
C793   C     0.81983   0.07007   0.75018   0.00000  Uiso   1.00
C794   C     0.68003   0.42989   0.24989   0.00000  Uiso   1.00
C795   C     0.57010   0.18015   0.75020   0.00000  Uiso   1.00
C796   C     0.92987   0.31992   0.24981   0.00000  Uiso   1.00
C797   C     0.64329   0.38369   0.21521   0.00000  Uiso   1.00
C798   C     0.85450   0.11814   0.78354   0.00000  Uiso   1.00
C799   C     0.61419   0.14123   0.21500   0.00000  Uiso   1.00
C800   C     0.87780   0.35033   0.78096   0.00000  Uiso   1.00
C801   C     0.85718   0.11601   0.21523   0.00000  Uiso   1.00
C802   C     0.64858   0.37841   0.78197   0.00000  Uiso   1.00
C803   C     0.88558   0.35864   0.21451   0.00000  Uiso   1.00
C804   C     0.61915   0.14610   0.78337   0.00000  Uiso   1.00
C805   C     0.64472   0.11743   0.78389   0.00000  Uiso   1.00
C806   C     0.85676   0.38426   0.21503   0.00000  Uiso   1.00
C807   C     0.62039   0.35230   0.78231   0.00000  Uiso   1.00
C808   C     0.88292   0.14462   0.21591   0.00000  Uiso   1.00
C809   C     0.85137   0.37820   0.78156   0.00000  Uiso   1.00
C810   C     0.64287   0.11562   0.21544   0.00000  Uiso   1.00
C811   C     0.88290   0.14403   0.78403   0.00000  Uiso   1.00
C812   C     0.61709   0.35545   0.21577   0.00000  Uiso   1.00
C813   C     0.89305   0.13361   0.71530   0.00000  Uiso   1.00
C814   C     0.60527   0.36741   0.28388   0.00000  Uiso   1.00
C815   C     0.87174   0.39912   0.71822   0.00000  Uiso   1.00
C816   C     0.63372   0.10624   0.28441   0.00000  Uiso   1.00
C817   C     0.60301   0.37041   0.71701   0.00000  Uiso   1.00
C818   C     0.89475   0.13257   0.28406   0.00000  Uiso   1.00
C819   C     0.63344   0.10684   0.71545   0.00000  Uiso   1.00
C820   C     0.86572   0.39284   0.28407   0.00000  Uiso   1.00
C821   C     0.89094   0.36392   0.28455   0.00000  Uiso   1.00
C822   C     0.60467   0.13228   0.71631   0.00000  Uiso   1.00
C823   C     0.86630   0.10663   0.28455   0.00000  Uiso   1.00
C824   C     0.62952   0.39828   0.71773   0.00000  Uiso   1.00
C825   C     0.60833   0.13516   0.28501   0.00000  Uiso   1.00
C826   C     0.89960   0.37255   0.71859   0.00000  Uiso   1.00
C827   C     0.63379   0.39322   0.28439   0.00000  Uiso   1.00
C828   C     0.86764   0.10479   0.71591   0.00000  Uiso   1.00
C829   C     0.59790   0.34807   0.24991   0.00000  Uiso   1.00
C830   C     0.90181   0.15183   0.74976   0.00000  Uiso   1.00
C831   C     0.65186   0.09781   0.24998   0.00000  Uiso   1.00
C832   C     0.84816   0.40198   0.74995   0.00000  Uiso   1.00
C833   C     0.90203   0.15204   0.25006   0.00000  Uiso   1.00
C834   C     0.59802   0.34825   0.74972   0.00000  Uiso   1.00
C835   C     0.84787   0.40190   0.24962   0.00000  Uiso   1.00
C836   C     0.65203   0.09824   0.74975   0.00000  Uiso   1.00
C837   C     0.59810   0.15214   0.75013   0.00000  Uiso   1.00
C838   C     0.90170   0.34793   0.24960   0.00000  Uiso   1.00
C839   C     0.65222   0.40189   0.75015   0.00000  Uiso   1.00
C840   C     0.84821   0.09809   0.24990   0.00000  Uiso   1.00
C841   C     0.90201   0.34802   0.74971   0.00000  Uiso   1.00
C842   C     0.59812   0.15185   0.25004   0.00000  Uiso   1.00
C843   C     0.84807   0.09776   0.74996   0.00000  Uiso   1.00
C844   C     0.65193   0.40179   0.24983   0.00000  Uiso   1.00
C845   C     0.75009   0.49831   0.10202   0.00000  Uiso   1.00
C846   C     0.75017   0.49884   0.89764   0.00000  Uiso   1.00
C847   C     0.99714   0.25060   0.10197   0.00000  Uiso   1.00
C848   C     0.99741   0.25006   0.89757   0.00000  Uiso   1.00
C849   C     0.50071   0.25045   0.60224   0.00000  Uiso   1.00
C850   C     0.50043   0.25089   0.39785   0.00000  Uiso   1.00
C851   C     0.74964   0.00080   0.60209   0.00000  Uiso   1.00
C852   C     0.75163   0.49948   0.39791   0.00000  Uiso   1.00
O853   O     0.75000  -0.00000   0.25000   0.00000  Uiso   1.00
O854   O     0.75000  -0.00000   0.75000   0.00000  Uiso   1.00
O855   O     0.50000   0.25000   0.25000   0.00000  Uiso   1.00
O856   O     0.50000   0.25000   0.75000   0.00000  Uiso   1.00
O857   O     0.75000   0.46964   0.33683   0.00000  Uiso   1.00
O858   O     0.75000   0.03036   0.66317   0.00000  Uiso   1.00
O859   O     0.53036   0.25000   0.33683   0.00000  Uiso   1.00
O860   O     0.96964   0.25000   0.66317   0.00000  Uiso   1.00
O861   O     0.75000   0.03036   0.33683   0.00000  Uiso   1.00
O862   O     0.75000   0.46964   0.66317   0.00000  Uiso   1.00
O863   O     0.96964   0.25000   0.33683   0.00000  Uiso   1.00
O864   O     0.53036   0.25000   0.66317   0.00000  Uiso   1.00
O865   O     0.50000   0.21964   0.83683   0.00000  Uiso   1.00
O866   O     0.50000   0.28036   0.16317   0.00000  Uiso   1.00
O867   O     0.78036  -0.00000   0.83683   0.00000  Uiso   1.00
O868   O     0.71964  -0.00000   0.16317   0.00000  Uiso   1.00
O869   O     0.50000   0.28036   0.83683   0.00000  Uiso   1.00
O870   O     0.50000   0.21964   0.16317   0.00000  Uiso   1.00
O871   O     0.71964  -0.00000   0.83683   0.00000  Uiso   1.00
O872   O     0.78036  -0.00000   0.16317   0.00000  Uiso   1.00
O873   O     0.70726   0.07307   0.27282   0.00000  Uiso   1.00
O874   O     0.79275   0.42693   0.72718   0.00000  Uiso   1.00
O875   O     0.92693   0.20725   0.27282   0.00000  Uiso   1.00
O876   O     0.57307   0.29274   0.72718   0.00000  Uiso   1.00
O877   O     0.79275   0.42693   0.27282   0.00000  Uiso   1.00
O878   O     0.70726   0.07307   0.72718   0.00000  Uiso   1.00
O879   O     0.57307   0.29274   0.27282   0.00000  Uiso   1.00
O880   O     0.92693   0.20725   0.72718   0.00000  Uiso   1.00
O881   O     0.70726   0.42693   0.72718   0.00000  Uiso   1.00
O882   O     0.79275   0.07307   0.27282   0.00000  Uiso   1.00
O883   O     0.92693   0.29274   0.72718   0.00000  Uiso   1.00
O884   O     0.57307   0.20725   0.27282   0.00000  Uiso   1.00
O885   O     0.79275   0.07307   0.72718   0.00000  Uiso   1.00
O886   O     0.70726   0.42693   0.27282   0.00000  Uiso   1.00
O887   O     0.57307   0.20725   0.72718   0.00000  Uiso   1.00
O888   O     0.92693   0.29274   0.27282   0.00000  Uiso   1.00
O889   O     0.95726   0.32307   0.77282   0.00000  Uiso   1.00
O890   O     0.54275   0.17693   0.22718   0.00000  Uiso   1.00
O891   O     0.67693   0.45725   0.77282   0.00000  Uiso   1.00
O892   O     0.82307   0.04274   0.22718   0.00000  Uiso   1.00
O893   O     0.54275   0.17693   0.77282   0.00000  Uiso   1.00
O894   O     0.95726   0.32307   0.22718   0.00000  Uiso   1.00
O895   O     0.82307   0.04274   0.77282   0.00000  Uiso   1.00
O896   O     0.67693   0.45725   0.22718   0.00000  Uiso   1.00
O897   O     0.95726   0.17693   0.22718   0.00000  Uiso   1.00
O898   O     0.54275   0.32307   0.77282   0.00000  Uiso   1.00
O899   O     0.67693   0.04274   0.22718   0.00000  Uiso   1.00
O900   O     0.82307   0.45725   0.77282   0.00000  Uiso   1.00
O901   O     0.54275   0.32307   0.22718   0.00000  Uiso   1.00
O902   O     0.95726   0.17693   0.77282   0.00000  Uiso   1.00
O903   O     0.82307   0.45725   0.22718   0.00000  Uiso   1.00
O904   O     0.67693   0.04274   0.77282   0.00000  Uiso   1.00
Zn905  Zn    0.70660  -0.00000   0.21760   0.00000  Uiso   1.00
Zn906  Zn    0.79340  -0.00000   0.78240   0.00000  Uiso   1.00
Zn907  Zn    0.50000   0.20660   0.21760   0.00000  Uiso   1.00
Zn908  Zn    0.50000   0.29340   0.78240   0.00000  Uiso   1.00
Zn909  Zn    0.79340  -0.00000   0.21760   0.00000  Uiso   1.00
Zn910  Zn    0.70660  -0.00000   0.78240   0.00000  Uiso   1.00
Zn911  Zn    0.50000   0.29340   0.21760   0.00000  Uiso   1.00
Zn912  Zn    0.50000   0.20660   0.78240   0.00000  Uiso   1.00
Zn913  Zn    0.95660   0.25000   0.71760   0.00000  Uiso   1.00
Zn914  Zn    0.54340   0.25000   0.28240   0.00000  Uiso   1.00
Zn915  Zn    0.75000   0.45660   0.71760   0.00000  Uiso   1.00
Zn916  Zn    0.75000   0.04340   0.28240   0.00000  Uiso   1.00
Zn917  Zn    0.54340   0.25000   0.71760   0.00000  Uiso   1.00
Zn918  Zn    0.95660   0.25000   0.28240   0.00000  Uiso   1.00
Zn919  Zn    0.75000   0.04340   0.71760   0.00000  Uiso   1.00
Zn920  Zn    0.75000   0.45660   0.28240   0.00000  Uiso   1.00
O921   O     0.68594   0.01364   0.02079   0.00000  Uiso   1.00
C922   C     0.68470   0.05130   0.01080   0.00000  Uiso   1.00
H923   H     0.70066   0.05587   0.98400   0.00000  Uiso   1.00
H924   H     0.69589   0.06943   0.03390   0.00000  Uiso   1.00
C925   C     0.64471   0.06215   0.00370   0.00000  Uiso   1.00
H926   H     0.63260   0.04395   0.98145   0.00000  Uiso   1.00
H927   H     0.62865   0.05845   0.03059   0.00000  Uiso   1.00
C928   C     0.64160   0.10206   0.99071   0.00000  Uiso   1.00
H929   H     0.65158   0.12064   0.01377   0.00000  Uiso   1.00
H930   H     0.61236   0.10849   0.98451   0.00000  Uiso   1.00
H931   H     0.65797   0.10683   0.96423   0.00000  Uiso   1.00
O932   O     0.80026   0.04144   0.97880   0.00000  Uiso   1.00
C933   C     0.78347   0.07284   0.99531   0.00000  Uiso   1.00
H934   H     0.80381   0.08544   0.01512   0.00000  Uiso   1.00
H935   H     0.75958   0.06565   0.01346   0.00000  Uiso   1.00
C936   C     0.77287   0.10193   0.96514   0.00000  Uiso   1.00
H937   H     0.79787   0.11085   0.94935   0.00000  Uiso   1.00
H938   H     0.75291   0.09031   0.94421   0.00000  Uiso   1.00
C939   C     0.75537   0.13545   0.98399   0.00000  Uiso   1.00
H940   H     0.72989   0.12742   0.99947   0.00000  Uiso   1.00
H941   H     0.74814   0.15597   0.96154   0.00000  Uiso   1.00
H942   H     0.77489   0.14827   0.00459   0.00000  Uiso   1.00
O943   O     0.97482   0.18733   0.02190   0.00000  Uiso   1.00
C944   C     0.93662   0.18747   0.01419   0.00000  Uiso   1.00
H945   H     0.93147   0.20275   0.98702   0.00000  Uiso   1.00
H946   H     0.92026   0.20017   0.03786   0.00000  Uiso   1.00
C947   C     0.92335   0.14789   0.00925   0.00000  Uiso   1.00
H948   H     0.94039   0.13383   0.98729   0.00000  Uiso   1.00
H949   H     0.92664   0.13283   0.03687   0.00000  Uiso   1.00
C950   C     0.88302   0.14649   0.99706   0.00000  Uiso   1.00
H951   H     0.86542   0.15962   0.01921   0.00000  Uiso   1.00
H952   H     0.87428   0.11742   0.99374   0.00000  Uiso   1.00
H953   H     0.87913   0.16086   0.96912   0.00000  Uiso   1.00
O954   O     0.94978   0.30130   0.97471   0.00000  Uiso   1.00
C955   C     0.91798   0.28565   0.99167   0.00000  Uiso   1.00
H956   H     0.90535   0.30711   0.01008   0.00000  Uiso   1.00
H957   H     0.92457   0.26266   0.01132   0.00000  Uiso   1.00
C958   C     0.88933   0.27389   0.96159   0.00000  Uiso   1.00
H959   H     0.88118   0.29809   0.94401   0.00000  Uiso   1.00
H960   H     0.90108   0.25266   0.94224   0.00000  Uiso   1.00
C961   C     0.85509   0.25805   0.98076   0.00000  Uiso   1.00
H962   H     0.86235   0.23350   0.99824   0.00000  Uiso   1.00
H963   H     0.83498   0.24972   0.95835   0.00000  Uiso   1.00
H964   H     0.84208   0.27897   0.99957   0.00000  Uiso   1.00
O965   O     0.81487   0.47707   0.02306   0.00000  Uiso   1.00
C966   C     0.81439   0.44237   0.00466   0.00000  Uiso   1.00
H967   H     0.83911   0.44118   0.98604   0.00000  Uiso   1.00
H968   H     0.79058   0.43921   0.98537   0.00000  Uiso   1.00
C969   C     0.81642   0.41002   0.03300   0.00000  Uiso   1.00
H970   H     0.84165   0.41246   0.05076   0.00000  Uiso   1.00
H971   H     0.79202   0.41019   0.05217   0.00000  Uiso   1.00
C972   C     0.81773   0.37333   0.01184   0.00000  Uiso   1.00
H973   H     0.79295   0.36995   0.99352   0.00000  Uiso   1.00
H974   H     0.81864   0.35050   0.03307   0.00000  Uiso   1.00
H975   H     0.84268   0.37180   0.99351   0.00000  Uiso   1.00
O976   O     0.70151   0.45063   0.97624   0.00000  Uiso   1.00
C977   C     0.71958   0.41675   0.98287   0.00000  Uiso   1.00
H978   H     0.73459   0.41818   0.01068   0.00000  Uiso   1.00
H979   H     0.73920   0.40953   0.95933   0.00000  Uiso   1.00
C980   C     0.69139   0.38572   0.98546   0.00000  Uiso   1.00
H981   H     0.67239   0.39084   0.00984   0.00000  Uiso   1.00
H982   H     0.67500   0.38473   0.95849   0.00000  Uiso   1.00
C983   C     0.71046   0.34871   0.99130   0.00000  Uiso   1.00
H984   H     0.73007   0.34337   0.96748   0.00000  Uiso   1.00
H985   H     0.68984   0.32628   0.99146   0.00000  Uiso   1.00
H986   H     0.72552   0.34841   0.01913   0.00000  Uiso   1.00
O987   O     0.51050   0.31638   0.02158   0.00000  Uiso   1.00
C988   C     0.54545   0.31687   0.00364   0.00000  Uiso   1.00
H989   H     0.54558   0.34055   0.98347   0.00000  Uiso   1.00
H990   H     0.55035   0.29223   0.98595   0.00000  Uiso   1.00
C991   C     0.57709   0.32231   0.03232   0.00000  Uiso   1.00
H992   H     0.57361   0.34898   0.04734   0.00000  Uiso   1.00
H993   H     0.57724   0.29976   0.05390   0.00000  Uiso   1.00
C994   C     0.61413   0.32258   0.01196   0.00000  Uiso   1.00
H995   H     0.61888   0.29599   0.99717   0.00000  Uiso   1.00
H996   H     0.63624   0.32680   0.03355   0.00000  Uiso   1.00
H997   H     0.61522   0.34524   0.99053   0.00000  Uiso   1.00
O998   O     0.53976   0.20184   0.97998   0.00000  Uiso   1.00
C999   C     0.57244   0.22024   0.99076   0.00000  Uiso   1.00
H1000  H     0.56713   0.23758   0.01640   0.00000  Uiso   1.00
H1001  H     0.58363   0.23757   0.96693   0.00000  Uiso   1.00
C1002  C     0.60164   0.19200   0.00159   0.00000  Uiso   1.00
H1003  H     0.59068   0.17361   0.02436   0.00000  Uiso   1.00
H1004  H     0.60842   0.17527   0.97588   0.00000  Uiso   1.00
C1005  C     0.63655   0.21055   0.01635   0.00000  Uiso   1.00
H1006  H     0.64858   0.22836   0.99361   0.00000  Uiso   1.00
H1007  H     0.65708   0.18933   0.02446   0.00000  Uiso   1.00
H1008  H     0.63038   0.22748   0.04210   0.00000  Uiso   1.00
O1009  O     0.94515   0.28723   0.52197   0.00000  Uiso   1.00
C1010  C     0.95678   0.32210   0.50897   0.00000  Uiso   1.00
H1011  H     0.97944   0.31938   0.48798   0.00000  Uiso   1.00
H1012  H     0.96577   0.33969   0.53345   0.00000  Uiso   1.00
C1013  C     0.92500   0.34070   0.48805   0.00000  Uiso   1.00
H1014  H     0.91434   0.32166   0.46575   0.00000  Uiso   1.00
H1015  H     0.90253   0.34677   0.50872   0.00000  Uiso   1.00
C1016  C     0.93744   0.37621   0.46866   0.00000  Uiso   1.00
H1017  H     0.94716   0.39621   0.49051   0.00000  Uiso   1.00
H1018  H     0.91403   0.38828   0.45258   0.00000  Uiso   1.00
H1019  H     0.95998   0.37065   0.44795   0.00000  Uiso   1.00
O1020  O     0.56297   0.27858   0.47687   0.00000  Uiso   1.00
C1021  C     0.55786   0.31329   0.49457   0.00000  Uiso   1.00
H1022  H     0.58309   0.31896   0.51150   0.00000  Uiso   1.00
H1023  H     0.53509   0.31303   0.51562   0.00000  Uiso   1.00
C1024  C     0.55354   0.34505   0.46565   0.00000  Uiso   1.00
H1025  H     0.57884   0.34734   0.44797   0.00000  Uiso   1.00
H1026  H     0.52976   0.34008   0.44629   0.00000  Uiso   1.00
C1027  C     0.54759   0.38152   0.48630   0.00000  Uiso   1.00
H1028  H     0.52198   0.38052   0.50362   0.00000  Uiso   1.00
H1029  H     0.54508   0.40399   0.46478   0.00000  Uiso   1.00
H1030  H     0.57124   0.38761   0.50552   0.00000  Uiso   1.00
O1031  O     0.72200   0.44124   0.52088   0.00000  Uiso   1.00
C1032  C     0.68970   0.45079   0.50022   0.00000  Uiso   1.00
H1033  H     0.68543   0.42933   0.47805   0.00000  Uiso   1.00
H1034  H     0.69218   0.47684   0.48414   0.00000  Uiso   1.00
C1035  C     0.65562   0.45180   0.52609   0.00000  Uiso   1.00
H1036  H     0.65161   0.42443   0.53967   0.00000  Uiso   1.00
H1037  H     0.65937   0.47267   0.54904   0.00000  Uiso   1.00
C1038  C     0.62124   0.46158   0.50302   0.00000  Uiso   1.00
H1039  H     0.62408   0.48938   0.49010   0.00000  Uiso   1.00
H1040  H     0.59694   0.46152   0.52232   0.00000  Uiso   1.00
H1041  H     0.61663   0.44118   0.47978   0.00000  Uiso   1.00
O1042  O     0.72701   0.05956   0.47958   0.00000  Uiso   1.00
C1043  C     0.68998   0.05231   0.48944   0.00000  Uiso   1.00
H1044  H     0.68900   0.03435   0.51532   0.00000  Uiso   1.00
H1045  H     0.67450   0.03900   0.46545   0.00000  Uiso   1.00
C1046  C     0.67089   0.08845   0.49905   0.00000  Uiso   1.00
H1047  H     0.68561   0.10180   0.52328   0.00000  Uiso   1.00
H1048  H     0.67201   0.10711   0.47373   0.00000  Uiso   1.00
C1049  C     0.63077   0.08221   0.51013   0.00000  Uiso   1.00
H1050  H     0.61560   0.06910   0.48603   0.00000  Uiso   1.00
H1051  H     0.61756   0.10897   0.51660   0.00000  Uiso   1.00
H1052  H     0.62895   0.06434   0.53601   0.00000  Uiso   1.00
O1053  O     0.55727   0.21355   0.52257   0.00000  Uiso   1.00
C1054  C     0.54557   0.18011   0.50558   0.00000  Uiso   1.00
H1055  H     0.56808   0.17058   0.48653   0.00000  Uiso   1.00
H1056  H     0.52148   0.18383   0.48656   0.00000  Uiso   1.00
C1057  C     0.53843   0.14971   0.53541   0.00000  Uiso   1.00
H1058  H     0.56414   0.14410   0.55166   0.00000  Uiso   1.00
H1059  H     0.51680   0.15845   0.55596   0.00000  Uiso   1.00
C1060  C     0.52584   0.11425   0.51610   0.00000  Uiso   1.00
H1061  H     0.99961   0.11881   0.50042   0.00000  Uiso   1.00
H1062  H     0.52137   0.09273   0.53831   0.00000  Uiso   1.00
H1063  H     0.54702   0.10440   0.49558   0.00000  Uiso   1.00
O1064  O     0.94032   0.22440   0.47894   0.00000  Uiso   1.00
C1065  C     0.94532   0.18703   0.48867   0.00000  Uiso   1.00
H1066  H     0.96255   0.18493   0.51500   0.00000  Uiso   1.00
H1067  H     0.95827   0.17103   0.46489   0.00000  Uiso   1.00
C1068  C     0.90788   0.17010   0.49725   0.00000  Uiso   1.00
H1069  H     0.89463   0.18572   0.52086   0.00000  Uiso   1.00
H1070  H     0.89010   0.17209   0.47130   0.00000  Uiso   1.00
C1071  C     0.91147   0.12986   0.50891   0.00000  Uiso   1.00
H1072  H     0.92421   0.11374   0.48535   0.00000  Uiso   1.00
H1073  H     0.88374   0.11852   0.51474   0.00000  Uiso   1.00
H1074  H     0.92847   0.12716   0.53534   0.00000  Uiso   1.00
O1075  O     0.78902   0.05803   0.52435   0.00000  Uiso   1.00
C1076  C     0.82639   0.04964   0.51679   0.00000  Uiso   1.00
H1077  H     0.83697   0.07113   0.49699   0.00000  Uiso   1.00
H1078  H     0.82937   0.02371   0.50076   0.00000  Uiso   1.00
C1079  C     0.85042   0.05039   0.55337   0.00000  Uiso   1.00
H1080  H     0.85093   0.07885   0.56480   0.00000  Uiso   1.00
H1081  H     0.83902   0.03190   0.57581   0.00000  Uiso   1.00
C1082  C     0.88983   0.03817   0.54569   0.00000  Uiso   1.00
H1083  H     0.89099   0.00778   0.54353   0.00000  Uiso   1.00
H1084  H     0.90768   0.04662   0.57005   0.00000  Uiso   1.00
H1085  H     0.90063   0.05068   0.51883   0.00000  Uiso   1.00
O1086  O     0.78402   0.43836   0.47631   0.00000  Uiso   1.00
C1087  C     0.82022   0.44373   0.49021   0.00000  Uiso   1.00
H1088  H     0.82762   0.41905   0.50737   0.00000  Uiso   1.00
H1089  H     0.82165   0.46684   0.51060   0.00000  Uiso   1.00
C1090  C     0.84877   0.44732   0.45778   0.00000  Uiso   1.00
H1091  H     0.85159   0.42033   0.44319   0.00000  Uiso   1.00
H1092  H     0.83995   0.46808   0.43624   0.00000  Uiso   1.00
C1093  C     0.88618   0.45923   0.47306   0.00000  Uiso   1.00
H1094  H     0.88528   0.48868   0.48092   0.00000  Uiso   1.00
H1095  H     0.90724   0.45595   0.45024   0.00000  Uiso   1.00
H1096  H     0.89424   0.44255   0.49850   0.00000  Uiso   1.00
O1097  O     0.66449   0.38992   0.18272   0.00000  Uiso   1.00
C1098  C     0.64347   0.40854   0.15456   0.00000  Uiso   1.00
H1099  H     0.63412   0.43570   0.16558   0.00000  Uiso   1.00
H1100  H     0.61902   0.39224   0.14579   0.00000  Uiso   1.00
C1101  C     0.66744   0.41478   0.11902   0.00000  Uiso   1.00
H1102  H     0.68945   0.43488   0.12602   0.00000  Uiso   1.00
H1103  H     0.68065   0.38848   0.11057   0.00000  Uiso   1.00
C1104  C     0.64488   0.42898   0.08505   0.00000  Uiso   1.00
H1105  H     0.62607   0.40713   0.07450   0.00000  Uiso   1.00
H1106  H     0.66360   0.43712   0.06131   0.00000  Uiso   1.00
H1107  H     0.62834   0.45325   0.09357   0.00000  Uiso   1.00
O1108  O     0.83281   0.11300   0.81582   0.00000  Uiso   1.00
C1109  C     0.80202   0.13659   0.81312   0.00000  Uiso   1.00
H1110  H     0.78524   0.13008   0.78715   0.00000  Uiso   1.00
H1111  H     0.81098   0.16575   0.81155   0.00000  Uiso   1.00
C1112  C     0.77782   0.13170   0.84867   0.00000  Uiso   1.00
H1113  H     0.76685   0.10320   0.84936   0.00000  Uiso   1.00
H1114  H     0.79452   0.13635   0.87503   0.00000  Uiso   1.00
C1115  C     0.74563   0.15857   0.84838   0.00000  Uiso   1.00
H1116  H     0.75582   0.18734   0.84914   0.00000  Uiso   1.00
H1117  H     0.72809   0.15374   0.87402   0.00000  Uiso   1.00
H1118  H     0.72873   0.15456   0.82210   0.00000  Uiso   1.00
O1119  O     0.60437   0.15860   0.18097   0.00000  Uiso   1.00
C1120  C     0.58475   0.13400   0.15693   0.00000  Uiso   1.00
H1121  H     0.55488   0.13983   0.15966   0.00000  Uiso   1.00
H1122  H     0.58896   0.10435   0.16415   0.00000  Uiso   1.00
C1123  C     0.59634   0.14021   0.11515   0.00000  Uiso   1.00
H1124  H     0.58872   0.16852   0.10609   0.00000  Uiso   1.00
H1125  H     0.62666   0.13728   0.11273   0.00000  Uiso   1.00
C1126  C     0.57799   0.11252   0.08834   0.00000  Uiso   1.00
H1127  H     0.58537   0.08402   0.09687   0.00000  Uiso   1.00
H1128  H     0.58753   0.11706   0.05843   0.00000  Uiso   1.00
H1129  H     0.54765   0.11574   0.08918   0.00000  Uiso   1.00
O1130  O     0.88122   0.32661   0.81190   0.00000  Uiso   1.00
C1131  C     0.85789   0.29616   0.80595   0.00000  Uiso   1.00
H1132  H     0.86670   0.28041   0.78010   0.00000  Uiso   1.00
H1133  H     0.82888   0.30516   0.80202   0.00000  Uiso   1.00
C1134  C     0.85996   0.27089   0.84104   0.00000  Uiso   1.00
H1135  H     0.88844   0.26019   0.84411   0.00000  Uiso   1.00
H1136  H     0.85290   0.28663   0.86739   0.00000  Uiso   1.00
C1137  C     0.83356   0.23859   0.83707   0.00000  Uiso   1.00
H1138  H     0.80468   0.24848   0.83634   0.00000  Uiso   1.00
H1139  H     0.83693   0.21966   0.86193   0.00000  Uiso   1.00
H1140  H     0.83953   0.22339   0.81015   0.00000  Uiso   1.00
O1141  O     0.83751   0.10848   0.18198   0.00000  Uiso   1.00
C1142  C     0.86030   0.08956   0.15572   0.00000  Uiso   1.00
H1143  H     0.86811   0.06218   0.16758   0.00000  Uiso   1.00
H1144  H     0.88581   0.10524   0.14923   0.00000  Uiso   1.00
C1145  C     0.83930   0.08394   0.11806   0.00000  Uiso   1.00
H1146  H     0.81629   0.06437   0.12291   0.00000  Uiso   1.00
H1147  H     0.82756   0.11057   0.10830   0.00000  Uiso   1.00
C1148  C     0.86447   0.06917   0.08656   0.00000  Uiso   1.00
H1149  H     0.88484   0.09045   0.07813   0.00000  Uiso   1.00
H1150  H     0.84791   0.06172   0.06092   0.00000  Uiso   1.00
H1151  H     0.87937   0.04436   0.09670   0.00000  Uiso   1.00
O1152  O     0.67217   0.38128   0.81306   0.00000  Uiso   1.00
C1153  C     0.70105   0.35569   0.80852   0.00000  Uiso   1.00
H1154  H     0.72022   0.36539   0.78570   0.00000  Uiso   1.00
H1155  H     0.69061   0.32788   0.80062   0.00000  Uiso   1.00
C1156  C     0.72207   0.35232   0.84643   0.00000  Uiso   1.00
H1157  H     0.73448   0.37931   0.85373   0.00000  Uiso   1.00
H1158  H     0.70276   0.34440   0.86979   0.00000  Uiso   1.00
C1159  C     0.75248   0.32359   0.84379   0.00000  Uiso   1.00
H1160  H     0.74063   0.29602   0.83803   0.00000  Uiso   1.00
H1161  H     0.76794   0.32247   0.87133   0.00000  Uiso   1.00
H1162  H     0.77176   0.33088   0.82031   0.00000  Uiso   1.00
O1163  O     0.89410   0.33978   0.18106   0.00000  Uiso   1.00
C1164  C     0.91124   0.36338   0.15407   0.00000  Uiso   1.00
H1165  H     0.94151   0.36209   0.15828   0.00000  Uiso   1.00
H1166  H     0.90284   0.39274   0.15665   0.00000  Uiso   1.00
C1167  C     0.90188   0.35004   0.11350   0.00000  Uiso   1.00
H1168  H     0.91507   0.32290   0.10850   0.00000  Uiso   1.00
H1169  H     0.87162   0.34657   0.11084   0.00000  Uiso   1.00
C1170  C     0.91474   0.37716   0.08279   0.00000  Uiso   1.00
H1171  H     0.90090   0.40410   0.08660   0.00000  Uiso   1.00
H1172  H     0.90776   0.36637   0.05383   0.00000  Uiso   1.00
H1173  H     0.94492   0.38120   0.08455   0.00000  Uiso   1.00
O1174  O     0.61528   0.16860   0.81516   0.00000  Uiso   1.00
C1175  C     0.64157   0.19714   0.81245   0.00000  Uiso   1.00
H1176  H     0.63495   0.21554   0.78773   0.00000  Uiso   1.00
H1177  H     0.66983   0.18590   0.80861   0.00000  Uiso   1.00
C1178  C     0.64108   0.21981   0.84937   0.00000  Uiso   1.00
H1179  H     0.61384   0.23325   0.85244   0.00000  Uiso   1.00
H1180  H     0.64562   0.20142   0.87452   0.00000  Uiso   1.00
C1181  C     0.67091   0.24931   0.84891   0.00000  Uiso   1.00
H1182  H     0.69852   0.23649   0.84654   0.00000  Uiso   1.00
H1183  H     0.66987   0.26538   0.87599   0.00000  Uiso   1.00
H1184  H     0.66661   0.26829   0.82427   0.00000  Uiso   1.00
O1185  O     0.66629   0.11155   0.81610   0.00000  Uiso   1.00
C1186  C     0.64627   0.09028   0.84279   0.00000  Uiso   1.00
H1187  H     0.63394   0.06559   0.82880   0.00000  Uiso   1.00
H1188  H     0.62391   0.10694   0.85593   0.00000  Uiso   1.00
C1189  C     0.67239   0.07756   0.87457   0.00000  Uiso   1.00
H1190  H     0.69763   0.06579   0.86156   0.00000  Uiso   1.00
H1191  H     0.68057   0.10147   0.89249   0.00000  Uiso   1.00
C1192  C     0.65436   0.04853   0.89993   0.00000  Uiso   1.00
H1193  H     0.62909   0.05979   0.91336   0.00000  Uiso   1.00
H1194  H     0.67384   0.03996   0.92279   0.00000  Uiso   1.00
H1195  H     0.64701   0.02399   0.88262   0.00000  Uiso   1.00
O1196  O     0.83843   0.39338   0.18141   0.00000  Uiso   1.00
C1197  C     0.80918   0.36844   0.17587   0.00000  Uiso   1.00
H1198  H     0.78941   0.36983   0.20031   0.00000  Uiso   1.00
H1199  H     0.81974   0.33981   0.17311   0.00000  Uiso   1.00
C1200  C     0.78894   0.37870   0.13882   0.00000  Uiso   1.00
H1201  H     0.77775   0.40702   0.14136   0.00000  Uiso   1.00
H1202  H     0.80860   0.37810   0.11441   0.00000  Uiso   1.00
C1203  C     0.75742   0.35223   0.13044   0.00000  Uiso   1.00
H1204  H     0.76793   0.32369   0.12777   0.00000  Uiso   1.00
H1205  H     0.74400   0.36009   0.10291   0.00000  Uiso   1.00
H1206  H     0.73665   0.35336   0.15381   0.00000  Uiso   1.00
O1207  O     0.61762   0.32752   0.81235   0.00000  Uiso   1.00
C1208  C     0.59798   0.34387   0.84277   0.00000  Uiso   1.00
H1209  H     0.57267   0.35807   0.83226   0.00000  Uiso   1.00
H1210  H     0.61569   0.36406   0.85809   0.00000  Uiso   1.00
C1211  C     0.58664   0.31368   0.87087   0.00000  Uiso   1.00
H1212  H     0.57214   0.29153   0.85497   0.00000  Uiso   1.00
H1213  H     0.61154   0.30168   0.88453   0.00000  Uiso   1.00
C1214  C     0.56135   0.32842   0.90204   0.00000  Uiso   1.00
H1215  H     0.57588   0.34944   0.91950   0.00000  Uiso   1.00
H1216  H     0.55295   0.30536   0.92089   0.00000  Uiso   1.00
H1217  H     0.53624   0.34069   0.88912   0.00000  Uiso   1.00
O1218  O     0.89092   0.16410   0.18270   0.00000  Uiso   1.00
C1219  C     0.86748   0.19493   0.18035   0.00000  Uiso   1.00
H1220  H     0.86877   0.21167   0.20717   0.00000  Uiso   1.00
H1221  H     0.83860   0.18590   0.17533   0.00000  Uiso   1.00
C1222  C     0.87978   0.21903   0.14665   0.00000  Uiso   1.00
H1223  H     0.90883   0.22758   0.15111   0.00000  Uiso   1.00
H1224  H     0.87819   0.20296   0.11953   0.00000  Uiso   1.00
C1225  C     0.85586   0.25331   0.14281   0.00000  Uiso   1.00
H1226  H     0.82670   0.24549   0.13793   0.00000  Uiso   1.00
H1227  H     0.86537   0.26997   0.11794   0.00000  Uiso   1.00
H1228  H     0.85785   0.27031   0.16923   0.00000  Uiso   1.00
O1229  O     0.82641   0.38023   0.81139   0.00000  Uiso   1.00
C1230  C     0.84259   0.39942   0.84230   0.00000  Uiso   1.00
H1231  H     0.85699   0.42482   0.83237   0.00000  Uiso   1.00
H1232  H     0.86259   0.38142   0.85760   0.00000  Uiso   1.00
C1233  C     0.81230   0.41052   0.87024   0.00000  Uiso   1.00
H1234  H     0.79065   0.42598   0.85446   0.00000  Uiso   1.00
H1235  H     0.79964   0.38550   0.88295   0.00000  Uiso   1.00
C1236  C     0.82736   0.43451   0.90239   0.00000  Uiso   1.00
H1237  H     0.84781   0.41895   0.91969   0.00000  Uiso   1.00
H1238  H     0.80435   0.44299   0.92114   0.00000  Uiso   1.00
H1239  H     0.84046   0.45961   0.89042   0.00000  Uiso   1.00
O1240  O     0.66069   0.10645   0.18164   0.00000  Uiso   1.00
C1241  C     0.69067   0.13060   0.17638   0.00000  Uiso   1.00
H1242  H     0.70897   0.13081   0.20217   0.00000  Uiso   1.00
H1243  H     0.68055   0.15900   0.17070   0.00000  Uiso   1.00
C1244  C     0.71317   0.11772   0.14184   0.00000  Uiso   1.00
H1245  H     0.72326   0.08933   0.14720   0.00000  Uiso   1.00
H1246  H     0.69543   0.11740   0.11577   0.00000  Uiso   1.00
C1247  C     0.74607   0.14279   0.13453   0.00000  Uiso   1.00
H1248  H     0.73673   0.17140   0.12911   0.00000  Uiso   1.00
H1249  H     0.76126   0.13299   0.10884   0.00000  Uiso   1.00
H1250  H     0.76499   0.14243   0.15965   0.00000  Uiso   1.00
O1251  O     0.88826   0.16591   0.81604   0.00000  Uiso   1.00
C1252  C     0.90902   0.14635   0.84358   0.00000  Uiso   1.00
H1253  H     0.93465   0.13501   0.83062   0.00000  Uiso   1.00
H1254  H     0.89258   0.12338   0.85594   0.00000  Uiso   1.00
C1255  C     0.91957   0.17263   0.87599   0.00000  Uiso   1.00
H1256  H     0.93311   0.19736   0.86367   0.00000  Uiso   1.00
H1257  H     0.89437   0.18166   0.89137   0.00000  Uiso   1.00
C1258  C     0.94570   0.15437   0.90449   0.00000  Uiso   1.00
H1259  H     0.93243   0.12989   0.91760   0.00000  Uiso   1.00
H1260  H     0.95294   0.17415   0.92751   0.00000  Uiso   1.00
H1261  H     0.97138   0.14579   0.88979   0.00000  Uiso   1.00
O1262  O     0.60876   0.33630   0.18251   0.00000  Uiso   1.00
C1263  C     0.63124   0.30477   0.18034   0.00000  Uiso   1.00
H1264  H     0.62971   0.28818   0.20732   0.00000  Uiso   1.00
H1265  H     0.66032   0.31293   0.17505   0.00000  Uiso   1.00
C1266  C     0.61790   0.28093   0.14693   0.00000  Uiso   1.00
H1267  H     0.58853   0.27363   0.15147   0.00000  Uiso   1.00
H1268  H     0.62009   0.29672   0.11960   0.00000  Uiso   1.00
C1269  C     0.64037   0.24566   0.14356   0.00000  Uiso   1.00
H1270  H     0.66973   0.25224   0.13812   0.00000  Uiso   1.00
H1271  H     0.62979   0.22897   0.11924   0.00000  Uiso   1.00
H1272  H     0.63812   0.22918   0.17039   0.00000  Uiso   1.00
O1273  O     0.91051   0.14296   0.68125   0.00000  Uiso   1.00
C1274  C     0.88686   0.16504   0.65836   0.00000  Uiso   1.00
H1275  H     0.89894   0.19302   0.65627   0.00000  Uiso   1.00
H1276  H     0.85847   0.16833   0.67025   0.00000  Uiso   1.00
C1277  C     0.88415   0.14894   0.61783   0.00000  Uiso   1.00
H1278  H     0.91150   0.15028   0.60367   0.00000  Uiso   1.00
H1279  H     0.87567   0.11970   0.61944   0.00000  Uiso   1.00
C1280  C     0.85601   0.16977   0.59356   0.00000  Uiso   1.00
H1281  H     0.82874   0.16972   0.60790   0.00000  Uiso   1.00
H1282  H     0.85286   0.15614   0.56525   0.00000  Uiso   1.00
H1283  H     0.86513   0.19859   0.58901   0.00000  Uiso   1.00
O1284  O     0.58546   0.36009   0.31702   0.00000  Uiso   1.00
C1285  C     0.55435   0.38331   0.31798   0.00000  Uiso   1.00
H1286  H     0.53856   0.38208   0.29046   0.00000  Uiso   1.00
H1287  H     0.56306   0.41220   0.32334   0.00000  Uiso   1.00
C1288  C     0.52900   0.37086   0.35055   0.00000  Uiso   1.00
H1289  H     0.52104   0.34169   0.34593   0.00000  Uiso   1.00
H1290  H     0.54386   0.37284   0.37843   0.00000  Uiso   1.00
C1291  C     0.99422   0.39425   0.35242   0.00000  Uiso   1.00
H1292  H     0.50137   0.42346   0.35788   0.00000  Uiso   1.00
H1293  H     0.97640   0.38428   0.37615   0.00000  Uiso   1.00
H1294  H     0.97862   0.39224   0.32500   0.00000  Uiso   1.00
O1295  O     0.87016   0.42519   0.68924   0.00000  Uiso   1.00
C1296  C     0.85202   0.41015   0.65703   0.00000  Uiso   1.00
H1297  H     0.82588   0.39620   0.66541   0.00000  Uiso   1.00
H1298  H     0.87020   0.39008   0.64223   0.00000  Uiso   1.00
C1299  C     0.84283   0.44135   0.62920   0.00000  Uiso   1.00
H1300  H     0.82563   0.46212   0.64414   0.00000  Uiso   1.00
H1301  H     0.86862   0.45489   0.61962   0.00000  Uiso   1.00
C1302  C     0.82221   0.42728   0.59407   0.00000  Uiso   1.00
H1303  H     0.83984   0.40815   0.57744   0.00000  Uiso   1.00
H1304  H     0.81465   0.45094   0.57556   0.00000  Uiso   1.00
H1305  H     0.79667   0.41285   0.60286   0.00000  Uiso   1.00
O1306  O     0.64104   0.08628   0.31750   0.00000  Uiso   1.00
C1307  C     0.61562   0.05700   0.31993   0.00000  Uiso   1.00
H1308  H     0.61670   0.03955   0.29362   0.00000  Uiso   1.00
H1309  H     0.58719   0.06782   0.32362   0.00000  Uiso   1.00
C1310  C     0.62520   0.03304   0.35469   0.00000  Uiso   1.00
H1311  H     0.65357   0.02214   0.35140   0.00000  Uiso   1.00
H1312  H     0.62414   0.04998   0.38125   0.00000  Uiso   1.00
C1313  C     0.59857   0.00084   0.35877   0.00000  Uiso   1.00
H1314  H     0.56996   0.01101   0.36206   0.00000  Uiso   1.00
H1315  H     0.60588   0.48447   0.38467   0.00000  Uiso   1.00
H1316  H     0.60017   0.48274   0.33313   0.00000  Uiso   1.00
O1317  O     0.57997   0.36645   0.68562   0.00000  Uiso   1.00
C1318  C     0.59890   0.34742   0.65639   0.00000  Uiso   1.00
H1319  H     0.61352   0.32278   0.66800   0.00000  Uiso   1.00
H1320  H     0.61917   0.36588   0.64219   0.00000  Uiso   1.00
C1321  C     0.57115   0.33454   0.62639   0.00000  Uiso   1.00
H1322  H     0.54996   0.31724   0.64056   0.00000  Uiso   1.00
H1323  H     0.55722   0.35868   0.61323   0.00000  Uiso   1.00
C1324  C     0.58989   0.31237   0.59492   0.00000  Uiso   1.00
H1325  H     0.60856   0.33028   0.57794   0.00000  Uiso   1.00
H1326  H     0.56866   0.30067   0.57566   0.00000  Uiso   1.00
H1327  H     0.60598   0.28940   0.60755   0.00000  Uiso   1.00
O1328  O     0.91500   0.13954   0.31698   0.00000  Uiso   1.00
C1329  C     0.94552   0.11557   0.31795   0.00000  Uiso   1.00
H1330  H     0.96161   0.11714   0.29068   0.00000  Uiso   1.00
H1331  H     0.93614   0.08675   0.32258   0.00000  Uiso   1.00
C1332  C     0.97074   0.12666   0.35116   0.00000  Uiso   1.00
H1333  H     0.97974   0.15562   0.34710   0.00000  Uiso   1.00
H1334  H     0.95537   0.12474   0.37872   0.00000  Uiso   1.00
C1335  C     0.50463   0.10202   0.35335   0.00000  Uiso   1.00
H1336  H     0.99637   0.07292   0.35773   0.00000  Uiso   1.00
H1337  H     0.52213   0.11060   0.37793   0.00000  Uiso   1.00
H1338  H     0.52096   0.10434   0.32648   0.00000  Uiso   1.00
O1339  O     0.64237   0.08929   0.68141   0.00000  Uiso   1.00
C1340  C     0.66372   0.11309   0.65801   0.00000  Uiso   1.00
H1341  H     0.69203   0.10176   0.65612   0.00000  Uiso   1.00
H1342  H     0.66627   0.14177   0.66926   0.00000  Uiso   1.00
C1343  C     0.64732   0.11459   0.61750   0.00000  Uiso   1.00
H1344  H     0.64970   0.08714   0.60377   0.00000  Uiso   1.00
H1345  H     0.61773   0.12183   0.61913   0.00000  Uiso   1.00
C1346  C     0.66690   0.14320   0.59273   0.00000  Uiso   1.00
H1347  H     0.66569   0.17066   0.60655   0.00000  Uiso   1.00
H1348  H     0.65315   0.14526   0.56432   0.00000  Uiso   1.00
H1349  H     0.69610   0.13529   0.58845   0.00000  Uiso   1.00
O1350  O     0.85808   0.41178   0.31758   0.00000  Uiso   1.00
C1351  C     0.88245   0.44194   0.32007   0.00000  Uiso   1.00
H1352  H     0.87868   0.46089   0.29512   0.00000  Uiso   1.00
H1353  H     0.91155   0.43230   0.32094   0.00000  Uiso   1.00
C1354  C     0.87453   0.46316   0.35695   0.00000  Uiso   1.00
H1355  H     0.84542   0.47247   0.35696   0.00000  Uiso   1.00
H1356  H     0.87895   0.44464   0.38191   0.00000  Uiso   1.00
C1357  C     0.89964   0.49652   0.36103   0.00000  Uiso   1.00
H1358  H     0.92892   0.48787   0.36113   0.00000  Uiso   1.00
H1359  H     0.89367   0.01065   0.38859   0.00000  Uiso   1.00
H1360  H     0.89490   0.01612   0.33698   0.00000  Uiso   1.00
O1361  O     0.90744   0.35338   0.31878   0.00000  Uiso   1.00
C1362  C     0.88216   0.33315   0.34153   0.00000  Uiso   1.00
H1363  H     0.89025   0.30371   0.34098   0.00000  Uiso   1.00
H1364  H     0.85299   0.33477   0.33143   0.00000  Uiso   1.00
C1365  C     0.88396   0.34686   0.38299   0.00000  Uiso   1.00
H1366  H     0.91193   0.34178   0.39472   0.00000  Uiso   1.00
H1367  H     0.87865   0.37688   0.38358   0.00000  Uiso   1.00
C1368  C     0.85553   0.32761   0.40826   0.00000  Uiso   1.00
H1369  H     0.82748   0.33137   0.39622   0.00000  Uiso   1.00
H1370  H     0.85600   0.33967   0.43755   0.00000  Uiso   1.00
H1371  H     0.86178   0.29779   0.41034   0.00000  Uiso   1.00
O1372  O     0.58461   0.13954   0.68333   0.00000  Uiso   1.00
C1373  C     0.55413   0.11552   0.68220   0.00000  Uiso   1.00
H1374  H     0.53696   0.11848   0.70857   0.00000  Uiso   1.00
H1375  H     0.56351   0.08650   0.67964   0.00000  Uiso   1.00
C1376  C     0.53047   0.12499   0.64720   0.00000  Uiso   1.00
H1377  H     0.52153   0.15413   0.64908   0.00000  Uiso   1.00
H1378  H     0.54691   0.12136   0.62057   0.00000  Uiso   1.00
C1379  C     0.99641   0.10072   0.64497   0.00000  Uiso   1.00
H1380  H     0.50437   0.07131   0.64311   0.00000  Uiso   1.00
H1381  H     0.98011   0.10807   0.61903   0.00000  Uiso   1.00
H1382  H     0.97912   0.10509   0.67081   0.00000  Uiso   1.00
O1383  O     0.85969   0.08571   0.31719   0.00000  Uiso   1.00
C1384  C     0.84084   0.10711   0.34468   0.00000  Uiso   1.00
H1385  H     0.81464   0.11798   0.33249   0.00000  Uiso   1.00
H1386  H     0.85805   0.13051   0.35463   0.00000  Uiso   1.00
C1387  C     0.83188   0.08292   0.37944   0.00000  Uiso   1.00
H1388  H     0.81272   0.06072   0.37054   0.00000  Uiso   1.00
H1389  H     0.85752   0.07000   0.39042   0.00000  Uiso   1.00
C1390  C     0.81444   0.10516   0.41179   0.00000  Uiso   1.00
H1391  H     0.83459   0.12515   0.42357   0.00000  Uiso   1.00
H1392  H     0.80569   0.08636   0.43524   0.00000  Uiso   1.00
H1393  H     0.78996   0.12027   0.40108   0.00000  Uiso   1.00
O1394  O     0.63504   0.42027   0.68571   0.00000  Uiso   1.00
C1395  C     0.61304   0.45203   0.68899   0.00000  Uiso   1.00
H1396  H     0.61897   0.46700   0.71625   0.00000  Uiso   1.00
H1397  H     0.58344   0.44449   0.68819   0.00000  Uiso   1.00
C1398  C     0.62130   0.47768   0.65522   0.00000  Uiso   1.00
H1399  H     0.65066   0.48614   0.65635   0.00000  Uiso   1.00
H1400  H     0.61645   0.46293   0.62769   0.00000  Uiso   1.00
C1401  C     0.59708   0.01190   0.65636   0.00000  Uiso   1.00
H1402  H     0.56766   0.00418   0.65340   0.00000  Uiso   1.00
H1403  H     0.60453   0.03056   0.63228   0.00000  Uiso   1.00
H1404  H     0.60108   0.02672   0.68394   0.00000  Uiso   1.00
O1405  O     0.58965   0.14374   0.31853   0.00000  Uiso   1.00
C1406  C     0.61346   0.16277   0.34372   0.00000  Uiso   1.00
H1407  H     0.62390   0.18839   0.32987   0.00000  Uiso   1.00
H1408  H     0.63723   0.14536   0.35233   0.00000  Uiso   1.00
C1409  C     0.59226   0.17319   0.38002   0.00000  Uiso   1.00
H1410  H     0.56996   0.19275   0.37238   0.00000  Uiso   1.00
H1411  H     0.57954   0.14820   0.39276   0.00000  Uiso   1.00
C1412  C     0.61751   0.19074   0.40990   0.00000  Uiso   1.00
H1413  H     0.63764   0.17022   0.42078   0.00000  Uiso   1.00
H1414  H     0.60091   0.20089   0.43443   0.00000  Uiso   1.00
H1415  H     0.63262   0.21432   0.39718   0.00000  Uiso   1.00
O1416  O     0.92370   0.36965   0.68800   0.00000  Uiso   1.00
C1417  C     0.95242   0.39526   0.69318   0.00000  Uiso   1.00
H1418  H     0.96757   0.38956   0.72047   0.00000  Uiso   1.00
H1419  H     0.94151   0.42386   0.69388   0.00000  Uiso   1.00
C1420  C     0.97930   0.39212   0.65965   0.00000  Uiso   1.00
H1421  H     0.99187   0.36426   0.65972   0.00000  Uiso   1.00
H1422  H     0.96429   0.39599   0.63205   0.00000  Uiso   1.00
C1423  C     0.50958   0.42096   0.66268   0.00000  Uiso   1.00
H1424  H     0.99772   0.44903   0.66061   0.00000  Uiso   1.00
H1425  H     0.52960   0.41730   0.63893   0.00000  Uiso   1.00
H1426  H     0.52417   0.41805   0.69058   0.00000  Uiso   1.00
O1427  O     0.64101   0.41337   0.31736   0.00000  Uiso   1.00
C1428  C     0.65811   0.39099   0.34559   0.00000  Uiso   1.00
H1429  H     0.68818   0.39644   0.34513   0.00000  Uiso   1.00
H1430  H     0.65413   0.36085   0.34115   0.00000  Uiso   1.00
C1431  C     0.64297   0.40121   0.38518   0.00000  Uiso   1.00
H1432  H     0.64991   0.43030   0.39164   0.00000  Uiso   1.00
H1433  H     0.61255   0.39836   0.38501   0.00000  Uiso   1.00
C1434  C     0.65876   0.37658   0.41671   0.00000  Uiso   1.00
H1435  H     0.65235   0.34730   0.41073   0.00000  Uiso   1.00
H1436  H     0.64630   0.38399   0.44477   0.00000  Uiso   1.00
H1437  H     0.68904   0.38018   0.41863   0.00000  Uiso   1.00
O1438  O     0.85910   0.08675   0.68195   0.00000  Uiso   1.00
C1439  C     0.87450   0.05099   0.68171   0.00000  Uiso   1.00
H1440  H     0.85848   0.03439   0.66076   0.00000  Uiso   1.00
H1441  H     0.87228   0.03660   0.70992   0.00000  Uiso   1.00
C1442  C     0.91473   0.05195   0.66882   0.00000  Uiso   1.00
H1443  H     0.91726   0.06837   0.64196   0.00000  Uiso   1.00
H1444  H     0.93154   0.06509   0.69164   0.00000  Uiso   1.00
C1445  C     0.92956   0.01335   0.66163   0.00000  Uiso   1.00
H1446  H     0.92658   0.49609   0.68784   0.00000  Uiso   1.00
H1447  H     0.95915   0.01493   0.65400   0.00000  Uiso   1.00
H1448  H     0.91455   0.00033   0.63742   0.00000  Uiso   1.00
I1449  I     0.66798   0.02822   0.10648   0.00000  Uiso   1.00
I1450  I     0.82062   0.04897   0.89247   0.00000  Uiso   1.00
I1451  I     0.97278   0.16658   0.10763   0.00000  Uiso   1.00
I1452  I     0.94429   0.31766   0.88727   0.00000  Uiso   1.00
I1453  I     0.83355   0.47231   0.10879   0.00000  Uiso   1.00
I1454  I     0.68463   0.44308   0.88869   0.00000  Uiso   1.00
I1455  I     0.51495   0.33642   0.10691   0.00000  Uiso   1.00
I1456  I     0.55354   0.18454   0.89358   0.00000  Uiso   1.00
I1457  I     0.93040   0.30074   0.60874   0.00000  Uiso   1.00
I1458  I     0.58041   0.28554   0.39066   0.00000  Uiso   1.00
I1459  I     0.70892   0.42422   0.60709   0.00000  Uiso   1.00
I1460  I     0.71337   0.07767   0.39375   0.00000  Uiso   1.00
I1461  I     0.57636   0.20770   0.60887   0.00000  Uiso   1.00
I1462  I     0.92086   0.21505   0.39318   0.00000  Uiso   1.00
I1463  I     0.77725   0.08371   0.60779   0.00000  Uiso   1.00
I1464  I     0.78032   0.41697   0.39138   0.00000  Uiso   1.00
C1465  C     0.21807   0.50608   0.04076   0.00000  Uiso   1.00
C1466  C     0.27471   0.52020   0.95907   0.00000  Uiso   1.00
C1467  C     0.48448   0.71917   0.04132   0.00000  Uiso   1.00
C1468  C     0.47140   0.77478   0.95698   0.00000  Uiso   1.00
C1469  C     0.28184   0.98457   0.04155   0.00000  Uiso   1.00
C1470  C     0.22538   0.97446   0.95756   0.00000  Uiso   1.00
C1471  C     0.00433   0.78341   0.04076   0.00000  Uiso   1.00
C1472  C     0.01746   0.72574   0.95937   0.00000  Uiso   1.00
C1473  C     0.47366   0.77004   0.54143   0.00000  Uiso   1.00
C1474  C     0.03131   0.76645   0.45835   0.00000  Uiso   1.00
C1475  C     0.23660   0.97116   0.54052   0.00000  Uiso   1.00
C1476  C     0.24123   0.53001   0.45934   0.00000  Uiso   1.00
C1477  C     0.02856   0.73105   0.54154   0.00000  Uiso   1.00
C1478  C     0.47076   0.73708   0.45901   0.00000  Uiso   1.00
C1479  C     0.27158   0.52878   0.54256   0.00000  Uiso   1.00
C1480  C     0.27082   0.96968   0.45793   0.00000  Uiso   1.00
C1481  C     0.21794   0.50781   0.08096   0.00000  Uiso   1.00
C1482  C     0.27651   0.51916   0.91882   0.00000  Uiso   1.00
C1483  C     0.48708   0.71832   0.08146   0.00000  Uiso   1.00
C1484  C     0.47484   0.77589   0.91682   0.00000  Uiso   1.00
C1485  C     0.28218   0.98700   0.08178   0.00000  Uiso   1.00
C1486  C     0.22432   0.97677   0.91740   0.00000  Uiso   1.00
C1487  C     0.00414   0.78363   0.08107   0.00000  Uiso   1.00
C1488  C     0.01809   0.72447   0.91920   0.00000  Uiso   1.00
C1489  C     0.47290   0.76925   0.58162   0.00000  Uiso   1.00
C1490  C     0.03150   0.76482   0.41807   0.00000  Uiso   1.00
C1491  C     0.23547   0.97071   0.58084   0.00000  Uiso   1.00
C1492  C     0.23932   0.53034   0.41914   0.00000  Uiso   1.00
C1493  C     0.02945   0.73266   0.58180   0.00000  Uiso   1.00
C1494  C     0.46978   0.73753   0.41885   0.00000  Uiso   1.00
C1495  C     0.26474   0.53131   0.58205   0.00000  Uiso   1.00
C1496  C     0.26578   0.96839   0.41798   0.00000  Uiso   1.00
C1497  C     0.24990   0.99490   0.02096   0.00000  Uiso   1.00
C1498  C     0.24998   0.99671   0.97856   0.00000  Uiso   1.00
C1499  C     0.49399   0.75122   0.02085   0.00000  Uiso   1.00
C1500  C     0.49365   0.75031   0.97842   0.00000  Uiso   1.00
C1501  C     0.00119   0.75066   0.52128   0.00000  Uiso   1.00
C1502  C     0.00125   0.75155   0.47887   0.00000  Uiso   1.00
C1503  C     0.25637   0.99937   0.52134   0.00000  Uiso   1.00
C1504  C     0.25780   0.50025   0.47886   0.00000  Uiso   1.00
C1505  C     0.25003   0.99987   0.35541   0.00000  Uiso   1.00
C1506  C     0.24943   0.50017   0.64460   0.00000  Uiso   1.00
C1507  C     0.00009   0.75018   0.35538   0.00000  Uiso   1.00
C1508  C     0.00012   0.75004   0.64465   0.00000  Uiso   1.00
C1509  C     0.49954   0.75000   0.85529   0.00000  Uiso   1.00
C1510  C     0.49939   0.75011   0.14454   0.00000  Uiso   1.00
C1511  C     0.25006   0.99990   0.85531   0.00000  Uiso   1.00
C1512  C     0.25002   0.99981   0.14456   0.00000  Uiso   1.00
C1513  C     0.17997   0.56991   0.25001   0.00000  Uiso   1.00
C1514  C     0.32002   0.92999   0.75003   0.00000  Uiso   1.00
C1515  C     0.43007   0.68001   0.25007   0.00000  Uiso   1.00
C1516  C     0.06985   0.82019   0.74972   0.00000  Uiso   1.00
C1517  C     0.31987   0.92992   0.24982   0.00000  Uiso   1.00
C1518  C     0.17992   0.56998   0.74981   0.00000  Uiso   1.00
C1519  C     0.06993   0.82002   0.25003   0.00000  Uiso   1.00
C1520  C     0.43000   0.67989   0.74985   0.00000  Uiso   1.00
C1521  C     0.18028   0.92982   0.75032   0.00000  Uiso   1.00
C1522  C     0.32001   0.57005   0.24992   0.00000  Uiso   1.00
C1523  C     0.43012   0.82008   0.74979   0.00000  Uiso   1.00
C1524  C     0.07005   0.67998   0.25001   0.00000  Uiso   1.00
C1525  C     0.31983   0.57007   0.75018   0.00000  Uiso   1.00
C1526  C     0.18003   0.92989   0.24989   0.00000  Uiso   1.00
C1527  C     0.07010   0.68015   0.75020   0.00000  Uiso   1.00
C1528  C     0.42987   0.81992   0.24981   0.00000  Uiso   1.00
C1529  C     0.14329   0.88369   0.21521   0.00000  Uiso   1.00
C1530  C     0.35450   0.61814   0.78354   0.00000  Uiso   1.00
C1531  C     0.11419   0.64123   0.21500   0.00000  Uiso   1.00
C1532  C     0.37780   0.85033   0.78096   0.00000  Uiso   1.00
C1533  C     0.35718   0.61601   0.21523   0.00000  Uiso   1.00
C1534  C     0.14858   0.87841   0.78197   0.00000  Uiso   1.00
C1535  C     0.38558   0.85864   0.21451   0.00000  Uiso   1.00
C1536  C     0.11915   0.64610   0.78337   0.00000  Uiso   1.00
C1537  C     0.14472   0.61743   0.78389   0.00000  Uiso   1.00
C1538  C     0.35676   0.88426   0.21503   0.00000  Uiso   1.00
C1539  C     0.12039   0.85230   0.78231   0.00000  Uiso   1.00
C1540  C     0.38292   0.64462   0.21591   0.00000  Uiso   1.00
C1541  C     0.35137   0.87820   0.78156   0.00000  Uiso   1.00
C1542  C     0.14287   0.61562   0.21544   0.00000  Uiso   1.00
C1543  C     0.38290   0.64403   0.78403   0.00000  Uiso   1.00
C1544  C     0.11709   0.85545   0.21577   0.00000  Uiso   1.00
C1545  C     0.39305   0.63361   0.71530   0.00000  Uiso   1.00
C1546  C     0.10527   0.86741   0.28388   0.00000  Uiso   1.00
C1547  C     0.37174   0.89912   0.71822   0.00000  Uiso   1.00
C1548  C     0.13372   0.60624   0.28441   0.00000  Uiso   1.00
C1549  C     0.10301   0.87041   0.71701   0.00000  Uiso   1.00
C1550  C     0.39475   0.63257   0.28406   0.00000  Uiso   1.00
C1551  C     0.13344   0.60684   0.71545   0.00000  Uiso   1.00
C1552  C     0.36572   0.89284   0.28407   0.00000  Uiso   1.00
C1553  C     0.39094   0.86392   0.28455   0.00000  Uiso   1.00
C1554  C     0.10467   0.63228   0.71631   0.00000  Uiso   1.00
C1555  C     0.36630   0.60663   0.28455   0.00000  Uiso   1.00
C1556  C     0.12952   0.89828   0.71773   0.00000  Uiso   1.00
C1557  C     0.10833   0.63516   0.28501   0.00000  Uiso   1.00
C1558  C     0.39960   0.87255   0.71859   0.00000  Uiso   1.00
C1559  C     0.13379   0.89322   0.28439   0.00000  Uiso   1.00
C1560  C     0.36764   0.60479   0.71591   0.00000  Uiso   1.00
C1561  C     0.09790   0.84807   0.24991   0.00000  Uiso   1.00
C1562  C     0.40181   0.65183   0.74976   0.00000  Uiso   1.00
C1563  C     0.15186   0.59781   0.24998   0.00000  Uiso   1.00
C1564  C     0.34816   0.90198   0.74995   0.00000  Uiso   1.00
C1565  C     0.40203   0.65204   0.25006   0.00000  Uiso   1.00
C1566  C     0.09802   0.84825   0.74972   0.00000  Uiso   1.00
C1567  C     0.34787   0.90190   0.24962   0.00000  Uiso   1.00
C1568  C     0.15203   0.59824   0.74975   0.00000  Uiso   1.00
C1569  C     0.09810   0.65214   0.75013   0.00000  Uiso   1.00
C1570  C     0.40170   0.84793   0.24960   0.00000  Uiso   1.00
C1571  C     0.15222   0.90189   0.75015   0.00000  Uiso   1.00
C1572  C     0.34821   0.59809   0.24990   0.00000  Uiso   1.00
C1573  C     0.40201   0.84802   0.74971   0.00000  Uiso   1.00
C1574  C     0.09812   0.65185   0.25004   0.00000  Uiso   1.00
C1575  C     0.34807   0.59776   0.74996   0.00000  Uiso   1.00
C1576  C     0.15193   0.90179   0.24983   0.00000  Uiso   1.00
C1577  C     0.25009   0.99831   0.10202   0.00000  Uiso   1.00
C1578  C     0.25017   0.99884   0.89764   0.00000  Uiso   1.00
C1579  C     0.49714   0.75060   0.10197   0.00000  Uiso   1.00
C1580  C     0.49741   0.75006   0.89757   0.00000  Uiso   1.00
C1581  C     0.00071   0.75045   0.60224   0.00000  Uiso   1.00
C1582  C     0.00043   0.75089   0.39785   0.00000  Uiso   1.00
C1583  C     0.24964   0.50080   0.60209   0.00000  Uiso   1.00
C1584  C     0.25163   0.99948   0.39791   0.00000  Uiso   1.00
O1585  O     0.25000   0.50000   0.25000   0.00000  Uiso   1.00
O1586  O     0.25000   0.50000   0.75000   0.00000  Uiso   1.00
O1587  O     0.00000   0.75000   0.25000   0.00000  Uiso   1.00
O1588  O     0.00000   0.75000   0.75000   0.00000  Uiso   1.00
O1589  O     0.25000   0.96964   0.33683   0.00000  Uiso   1.00
O1590  O     0.25000   0.53036   0.66317   0.00000  Uiso   1.00
O1591  O     0.03036   0.75000   0.33683   0.00000  Uiso   1.00
O1592  O     0.46964   0.75000   0.66317   0.00000  Uiso   1.00
O1593  O     0.25000   0.53036   0.33683   0.00000  Uiso   1.00
O1594  O     0.25000   0.96964   0.66317   0.00000  Uiso   1.00
O1595  O     0.46964   0.75000   0.33683   0.00000  Uiso   1.00
O1596  O     0.03036   0.75000   0.66317   0.00000  Uiso   1.00
O1597  O     0.00000   0.71964   0.83683   0.00000  Uiso   1.00
O1598  O     0.00000   0.78036   0.16317   0.00000  Uiso   1.00
O1599  O     0.28036   0.50000   0.83683   0.00000  Uiso   1.00
O1600  O     0.21964   0.50000   0.16317   0.00000  Uiso   1.00
O1601  O     0.00000   0.78036   0.83683   0.00000  Uiso   1.00
O1602  O     0.00000   0.71964   0.16317   0.00000  Uiso   1.00
O1603  O     0.21964   0.50000   0.83683   0.00000  Uiso   1.00
O1604  O     0.28036   0.50000   0.16317   0.00000  Uiso   1.00
O1605  O     0.20726   0.57307   0.27282   0.00000  Uiso   1.00
O1606  O     0.29275   0.92693   0.72718   0.00000  Uiso   1.00
O1607  O     0.42693   0.70725   0.27282   0.00000  Uiso   1.00
O1608  O     0.07307   0.79274   0.72718   0.00000  Uiso   1.00
O1609  O     0.29275   0.92693   0.27282   0.00000  Uiso   1.00
O1610  O     0.20726   0.57307   0.72718   0.00000  Uiso   1.00
O1611  O     0.07307   0.79274   0.27282   0.00000  Uiso   1.00
O1612  O     0.42693   0.70725   0.72718   0.00000  Uiso   1.00
O1613  O     0.20726   0.92693   0.72718   0.00000  Uiso   1.00
O1614  O     0.29275   0.57307   0.27282   0.00000  Uiso   1.00
O1615  O     0.42693   0.79274   0.72718   0.00000  Uiso   1.00
O1616  O     0.07307   0.70725   0.27282   0.00000  Uiso   1.00
O1617  O     0.29275   0.57307   0.72718   0.00000  Uiso   1.00
O1618  O     0.20726   0.92693   0.27282   0.00000  Uiso   1.00
O1619  O     0.07307   0.70725   0.72718   0.00000  Uiso   1.00
O1620  O     0.42693   0.79274   0.27282   0.00000  Uiso   1.00
O1621  O     0.45726   0.82307   0.77282   0.00000  Uiso   1.00
O1622  O     0.04275   0.67693   0.22718   0.00000  Uiso   1.00
O1623  O     0.17693   0.95725   0.77282   0.00000  Uiso   1.00
O1624  O     0.32307   0.54274   0.22718   0.00000  Uiso   1.00
O1625  O     0.04275   0.67693   0.77282   0.00000  Uiso   1.00
O1626  O     0.45726   0.82307   0.22718   0.00000  Uiso   1.00
O1627  O     0.32307   0.54274   0.77282   0.00000  Uiso   1.00
O1628  O     0.17693   0.95725   0.22718   0.00000  Uiso   1.00
O1629  O     0.45726   0.67693   0.22718   0.00000  Uiso   1.00
O1630  O     0.04275   0.82307   0.77282   0.00000  Uiso   1.00
O1631  O     0.17693   0.54274   0.22718   0.00000  Uiso   1.00
O1632  O     0.32307   0.95725   0.77282   0.00000  Uiso   1.00
O1633  O     0.04275   0.82307   0.22718   0.00000  Uiso   1.00
O1634  O     0.45726   0.67693   0.77282   0.00000  Uiso   1.00
O1635  O     0.32307   0.95725   0.22718   0.00000  Uiso   1.00
O1636  O     0.17693   0.54274   0.77282   0.00000  Uiso   1.00
Zn1637 Zn    0.20660   0.50000   0.21760   0.00000  Uiso   1.00
Zn1638 Zn    0.29340   0.50000   0.78240   0.00000  Uiso   1.00
Zn1639 Zn    0.00000   0.70660   0.21760   0.00000  Uiso   1.00
Zn1640 Zn    0.00000   0.79340   0.78240   0.00000  Uiso   1.00
Zn1641 Zn    0.29340   0.50000   0.21760   0.00000  Uiso   1.00
Zn1642 Zn    0.20660   0.50000   0.78240   0.00000  Uiso   1.00
Zn1643 Zn    0.00000   0.79340   0.21760   0.00000  Uiso   1.00
Zn1644 Zn    0.00000   0.70660   0.78240   0.00000  Uiso   1.00
Zn1645 Zn    0.45660   0.75000   0.71760   0.00000  Uiso   1.00
Zn1646 Zn    0.04340   0.75000   0.28240   0.00000  Uiso   1.00
Zn1647 Zn    0.25000   0.95660   0.71760   0.00000  Uiso   1.00
Zn1648 Zn    0.25000   0.54340   0.28240   0.00000  Uiso   1.00
Zn1649 Zn    0.04340   0.75000   0.71760   0.00000  Uiso   1.00
Zn1650 Zn    0.45660   0.75000   0.28240   0.00000  Uiso   1.00
Zn1651 Zn    0.25000   0.54340   0.71760   0.00000  Uiso   1.00
Zn1652 Zn    0.25000   0.95660   0.28240   0.00000  Uiso   1.00
O1653  O     0.18594   0.51364   0.02079   0.00000  Uiso   1.00
C1654  C     0.18470   0.55130   0.01080   0.00000  Uiso   1.00
H1655  H     0.20066   0.55587   0.98400   0.00000  Uiso   1.00
H1656  H     0.19589   0.56943   0.03390   0.00000  Uiso   1.00
C1657  C     0.14471   0.56215   0.00370   0.00000  Uiso   1.00
H1658  H     0.13260   0.54395   0.98145   0.00000  Uiso   1.00
H1659  H     0.12865   0.55845   0.03059   0.00000  Uiso   1.00
C1660  C     0.14160   0.60206   0.99071   0.00000  Uiso   1.00
H1661  H     0.15158   0.62064   0.01377   0.00000  Uiso   1.00
H1662  H     0.11236   0.60849   0.98451   0.00000  Uiso   1.00
H1663  H     0.15797   0.60683   0.96423   0.00000  Uiso   1.00
O1664  O     0.30026   0.54144   0.97880   0.00000  Uiso   1.00
C1665  C     0.28347   0.57284   0.99531   0.00000  Uiso   1.00
H1666  H     0.30381   0.58544   0.01512   0.00000  Uiso   1.00
H1667  H     0.25958   0.56565   0.01346   0.00000  Uiso   1.00
C1668  C     0.27287   0.60193   0.96514   0.00000  Uiso   1.00
H1669  H     0.29787   0.61085   0.94935   0.00000  Uiso   1.00
H1670  H     0.25291   0.59031   0.94421   0.00000  Uiso   1.00
C1671  C     0.25537   0.63545   0.98399   0.00000  Uiso   1.00
H1672  H     0.22989   0.62742   0.99947   0.00000  Uiso   1.00
H1673  H     0.24814   0.65597   0.96154   0.00000  Uiso   1.00
H1674  H     0.27489   0.64827   0.00459   0.00000  Uiso   1.00
O1675  O     0.47482   0.68733   0.02190   0.00000  Uiso   1.00
C1676  C     0.43662   0.68747   0.01419   0.00000  Uiso   1.00
H1677  H     0.43147   0.70275   0.98702   0.00000  Uiso   1.00
H1678  H     0.42026   0.70017   0.03786   0.00000  Uiso   1.00
C1679  C     0.42335   0.64789   0.00925   0.00000  Uiso   1.00
H1680  H     0.44039   0.63383   0.98729   0.00000  Uiso   1.00
H1681  H     0.42664   0.63283   0.03687   0.00000  Uiso   1.00
C1682  C     0.38302   0.64649   0.99706   0.00000  Uiso   1.00
H1683  H     0.36542   0.65962   0.01921   0.00000  Uiso   1.00
H1684  H     0.37428   0.61742   0.99374   0.00000  Uiso   1.00
H1685  H     0.37913   0.66086   0.96912   0.00000  Uiso   1.00
O1686  O     0.44978   0.80130   0.97471   0.00000  Uiso   1.00
C1687  C     0.41798   0.78565   0.99167   0.00000  Uiso   1.00
H1688  H     0.40535   0.80711   0.01008   0.00000  Uiso   1.00
H1689  H     0.42457   0.76266   0.01132   0.00000  Uiso   1.00
C1690  C     0.38933   0.77389   0.96159   0.00000  Uiso   1.00
H1691  H     0.38118   0.79809   0.94401   0.00000  Uiso   1.00
H1692  H     0.40108   0.75266   0.94224   0.00000  Uiso   1.00
C1693  C     0.35509   0.75805   0.98076   0.00000  Uiso   1.00
H1694  H     0.36235   0.73350   0.99824   0.00000  Uiso   1.00
H1695  H     0.33498   0.74972   0.95835   0.00000  Uiso   1.00
H1696  H     0.34208   0.77897   0.99957   0.00000  Uiso   1.00
O1697  O     0.31487   0.97707   0.02306   0.00000  Uiso   1.00
C1698  C     0.31439   0.94237   0.00466   0.00000  Uiso   1.00
H1699  H     0.33911   0.94118   0.98604   0.00000  Uiso   1.00
H1700  H     0.29058   0.93921   0.98537   0.00000  Uiso   1.00
C1701  C     0.31642   0.91002   0.03300   0.00000  Uiso   1.00
H1702  H     0.34165   0.91246   0.05076   0.00000  Uiso   1.00
H1703  H     0.29202   0.91019   0.05217   0.00000  Uiso   1.00
C1704  C     0.31773   0.87333   0.01184   0.00000  Uiso   1.00
H1705  H     0.29295   0.86995   0.99352   0.00000  Uiso   1.00
H1706  H     0.31864   0.85050   0.03307   0.00000  Uiso   1.00
H1707  H     0.34268   0.87180   0.99351   0.00000  Uiso   1.00
O1708  O     0.20151   0.95063   0.97624   0.00000  Uiso   1.00
C1709  C     0.21958   0.91675   0.98287   0.00000  Uiso   1.00
H1710  H     0.23459   0.91818   0.01068   0.00000  Uiso   1.00
H1711  H     0.23920   0.90953   0.95933   0.00000  Uiso   1.00
C1712  C     0.19139   0.88572   0.98546   0.00000  Uiso   1.00
H1713  H     0.17239   0.89084   0.00984   0.00000  Uiso   1.00
H1714  H     0.17500   0.88473   0.95849   0.00000  Uiso   1.00
C1715  C     0.21046   0.84871   0.99130   0.00000  Uiso   1.00
H1716  H     0.23007   0.84337   0.96748   0.00000  Uiso   1.00
H1717  H     0.18984   0.82628   0.99146   0.00000  Uiso   1.00
H1718  H     0.22552   0.84841   0.01913   0.00000  Uiso   1.00
O1719  O     0.01050   0.81638   0.02158   0.00000  Uiso   1.00
C1720  C     0.04545   0.81687   0.00364   0.00000  Uiso   1.00
H1721  H     0.04558   0.84055   0.98347   0.00000  Uiso   1.00
H1722  H     0.05035   0.79223   0.98595   0.00000  Uiso   1.00
C1723  C     0.07709   0.82231   0.03232   0.00000  Uiso   1.00
H1724  H     0.07361   0.84898   0.04734   0.00000  Uiso   1.00
H1725  H     0.07724   0.79976   0.05390   0.00000  Uiso   1.00
C1726  C     0.11413   0.82258   0.01196   0.00000  Uiso   1.00
H1727  H     0.11888   0.79599   0.99717   0.00000  Uiso   1.00
H1728  H     0.13624   0.82680   0.03355   0.00000  Uiso   1.00
H1729  H     0.11522   0.84524   0.99053   0.00000  Uiso   1.00
O1730  O     0.03976   0.70184   0.97998   0.00000  Uiso   1.00
C1731  C     0.07244   0.72024   0.99076   0.00000  Uiso   1.00
H1732  H     0.06713   0.73758   0.01640   0.00000  Uiso   1.00
H1733  H     0.08363   0.73757   0.96693   0.00000  Uiso   1.00
C1734  C     0.10164   0.69200   0.00159   0.00000  Uiso   1.00
H1735  H     0.09068   0.67361   0.02436   0.00000  Uiso   1.00
H1736  H     0.10842   0.67527   0.97588   0.00000  Uiso   1.00
C1737  C     0.13655   0.71055   0.01635   0.00000  Uiso   1.00
H1738  H     0.14858   0.72836   0.99361   0.00000  Uiso   1.00
H1739  H     0.15708   0.68933   0.02446   0.00000  Uiso   1.00
H1740  H     0.13038   0.72748   0.04210   0.00000  Uiso   1.00
O1741  O     0.44515   0.78723   0.52197   0.00000  Uiso   1.00
C1742  C     0.45678   0.82210   0.50897   0.00000  Uiso   1.00
H1743  H     0.47944   0.81938   0.48798   0.00000  Uiso   1.00
H1744  H     0.46577   0.83969   0.53345   0.00000  Uiso   1.00
C1745  C     0.42500   0.84070   0.48805   0.00000  Uiso   1.00
H1746  H     0.41434   0.82166   0.46575   0.00000  Uiso   1.00
H1747  H     0.40253   0.84677   0.50872   0.00000  Uiso   1.00
C1748  C     0.43744   0.87621   0.46866   0.00000  Uiso   1.00
H1749  H     0.44716   0.89621   0.49051   0.00000  Uiso   1.00
H1750  H     0.41403   0.88828   0.45258   0.00000  Uiso   1.00
H1751  H     0.45998   0.87065   0.44795   0.00000  Uiso   1.00
O1752  O     0.06297   0.77858   0.47687   0.00000  Uiso   1.00
C1753  C     0.05786   0.81329   0.49457   0.00000  Uiso   1.00
H1754  H     0.08309   0.81896   0.51150   0.00000  Uiso   1.00
H1755  H     0.03509   0.81303   0.51562   0.00000  Uiso   1.00
C1756  C     0.05354   0.84505   0.46565   0.00000  Uiso   1.00
H1757  H     0.07884   0.84734   0.44797   0.00000  Uiso   1.00
H1758  H     0.02976   0.84008   0.44629   0.00000  Uiso   1.00
C1759  C     0.04759   0.88152   0.48630   0.00000  Uiso   1.00
H1760  H     0.02198   0.88052   0.50362   0.00000  Uiso   1.00
H1761  H     0.04508   0.90399   0.46478   0.00000  Uiso   1.00
H1762  H     0.07124   0.88761   0.50552   0.00000  Uiso   1.00
O1763  O     0.22200   0.94124   0.52088   0.00000  Uiso   1.00
C1764  C     0.18970   0.95079   0.50022   0.00000  Uiso   1.00
H1765  H     0.18543   0.92933   0.47805   0.00000  Uiso   1.00
H1766  H     0.19218   0.97684   0.48414   0.00000  Uiso   1.00
C1767  C     0.15562   0.95180   0.52609   0.00000  Uiso   1.00
H1768  H     0.15161   0.92443   0.53967   0.00000  Uiso   1.00
H1769  H     0.15937   0.97267   0.54904   0.00000  Uiso   1.00
C1770  C     0.12124   0.96158   0.50302   0.00000  Uiso   1.00
H1771  H     0.12408   0.98938   0.49010   0.00000  Uiso   1.00
H1772  H     0.09694   0.96152   0.52232   0.00000  Uiso   1.00
H1773  H     0.11663   0.94118   0.47978   0.00000  Uiso   1.00
O1774  O     0.22701   0.55956   0.47958   0.00000  Uiso   1.00
C1775  C     0.18998   0.55231   0.48944   0.00000  Uiso   1.00
H1776  H     0.18900   0.53435   0.51532   0.00000  Uiso   1.00
H1777  H     0.17450   0.53900   0.46545   0.00000  Uiso   1.00
C1778  C     0.17089   0.58845   0.49905   0.00000  Uiso   1.00
H1779  H     0.18561   0.60180   0.52328   0.00000  Uiso   1.00
H1780  H     0.17201   0.60711   0.47373   0.00000  Uiso   1.00
C1781  C     0.13077   0.58221   0.51013   0.00000  Uiso   1.00
H1782  H     0.11560   0.56910   0.48603   0.00000  Uiso   1.00
H1783  H     0.11756   0.60897   0.51660   0.00000  Uiso   1.00
H1784  H     0.12895   0.56434   0.53601   0.00000  Uiso   1.00
O1785  O     0.05727   0.71355   0.52257   0.00000  Uiso   1.00
C1786  C     0.04557   0.68011   0.50558   0.00000  Uiso   1.00
H1787  H     0.06808   0.67058   0.48653   0.00000  Uiso   1.00
H1788  H     0.02148   0.68383   0.48656   0.00000  Uiso   1.00
C1789  C     0.03843   0.64971   0.53541   0.00000  Uiso   1.00
H1790  H     0.06414   0.64410   0.55166   0.00000  Uiso   1.00
H1791  H     0.01680   0.65845   0.55596   0.00000  Uiso   1.00
C1792  C     0.02584   0.61425   0.51610   0.00000  Uiso   1.00
H1793  H     0.49961   0.61881   0.50042   0.00000  Uiso   1.00
H1794  H     0.02137   0.59273   0.53831   0.00000  Uiso   1.00
H1795  H     0.04702   0.60440   0.49558   0.00000  Uiso   1.00
O1796  O     0.44032   0.72440   0.47894   0.00000  Uiso   1.00
C1797  C     0.44532   0.68703   0.48867   0.00000  Uiso   1.00
H1798  H     0.46255   0.68493   0.51500   0.00000  Uiso   1.00
H1799  H     0.45827   0.67103   0.46489   0.00000  Uiso   1.00
C1800  C     0.40788   0.67010   0.49725   0.00000  Uiso   1.00
H1801  H     0.39463   0.68572   0.52086   0.00000  Uiso   1.00
H1802  H     0.39010   0.67209   0.47130   0.00000  Uiso   1.00
C1803  C     0.41147   0.62986   0.50891   0.00000  Uiso   1.00
H1804  H     0.42421   0.61374   0.48535   0.00000  Uiso   1.00
H1805  H     0.38374   0.61852   0.51474   0.00000  Uiso   1.00
H1806  H     0.42847   0.62716   0.53534   0.00000  Uiso   1.00
O1807  O     0.28902   0.55803   0.52435   0.00000  Uiso   1.00
C1808  C     0.32639   0.54964   0.51679   0.00000  Uiso   1.00
H1809  H     0.33697   0.57113   0.49699   0.00000  Uiso   1.00
H1810  H     0.32937   0.52371   0.50076   0.00000  Uiso   1.00
C1811  C     0.35042   0.55039   0.55337   0.00000  Uiso   1.00
H1812  H     0.35093   0.57885   0.56480   0.00000  Uiso   1.00
H1813  H     0.33902   0.53190   0.57581   0.00000  Uiso   1.00
C1814  C     0.38983   0.53817   0.54569   0.00000  Uiso   1.00
H1815  H     0.39099   0.50778   0.54353   0.00000  Uiso   1.00
H1816  H     0.40768   0.54662   0.57005   0.00000  Uiso   1.00
H1817  H     0.40063   0.55068   0.51883   0.00000  Uiso   1.00
O1818  O     0.28402   0.93836   0.47631   0.00000  Uiso   1.00
C1819  C     0.32022   0.94373   0.49021   0.00000  Uiso   1.00
H1820  H     0.32762   0.91905   0.50737   0.00000  Uiso   1.00
H1821  H     0.32165   0.96684   0.51060   0.00000  Uiso   1.00
C1822  C     0.34877   0.94732   0.45778   0.00000  Uiso   1.00
H1823  H     0.35159   0.92033   0.44319   0.00000  Uiso   1.00
H1824  H     0.33995   0.96808   0.43624   0.00000  Uiso   1.00
C1825  C     0.38618   0.95923   0.47306   0.00000  Uiso   1.00
H1826  H     0.38528   0.98868   0.48092   0.00000  Uiso   1.00
H1827  H     0.40724   0.95595   0.45024   0.00000  Uiso   1.00
H1828  H     0.39424   0.94255   0.49850   0.00000  Uiso   1.00
O1829  O     0.16449   0.88992   0.18272   0.00000  Uiso   1.00
C1830  C     0.14347   0.90854   0.15456   0.00000  Uiso   1.00
H1831  H     0.13412   0.93570   0.16558   0.00000  Uiso   1.00
H1832  H     0.11902   0.89224   0.14579   0.00000  Uiso   1.00
C1833  C     0.16744   0.91478   0.11902   0.00000  Uiso   1.00
H1834  H     0.18945   0.93488   0.12602   0.00000  Uiso   1.00
H1835  H     0.18065   0.88848   0.11057   0.00000  Uiso   1.00
C1836  C     0.14488   0.92898   0.08505   0.00000  Uiso   1.00
H1837  H     0.12607   0.90713   0.07450   0.00000  Uiso   1.00
H1838  H     0.16360   0.93712   0.06131   0.00000  Uiso   1.00
H1839  H     0.12834   0.95325   0.09357   0.00000  Uiso   1.00
O1840  O     0.33281   0.61300   0.81582   0.00000  Uiso   1.00
C1841  C     0.30202   0.63659   0.81312   0.00000  Uiso   1.00
H1842  H     0.28524   0.63008   0.78715   0.00000  Uiso   1.00
H1843  H     0.31098   0.66575   0.81155   0.00000  Uiso   1.00
C1844  C     0.27782   0.63170   0.84867   0.00000  Uiso   1.00
H1845  H     0.26685   0.60320   0.84936   0.00000  Uiso   1.00
H1846  H     0.29452   0.63635   0.87503   0.00000  Uiso   1.00
C1847  C     0.24563   0.65857   0.84838   0.00000  Uiso   1.00
H1848  H     0.25582   0.68734   0.84914   0.00000  Uiso   1.00
H1849  H     0.22809   0.65374   0.87402   0.00000  Uiso   1.00
H1850  H     0.22873   0.65456   0.82210   0.00000  Uiso   1.00
O1851  O     0.10437   0.65860   0.18097   0.00000  Uiso   1.00
C1852  C     0.08475   0.63400   0.15693   0.00000  Uiso   1.00
H1853  H     0.05488   0.63983   0.15966   0.00000  Uiso   1.00
H1854  H     0.08896   0.60435   0.16415   0.00000  Uiso   1.00
C1855  C     0.09634   0.64021   0.11515   0.00000  Uiso   1.00
H1856  H     0.08872   0.66852   0.10609   0.00000  Uiso   1.00
H1857  H     0.12666   0.63728   0.11273   0.00000  Uiso   1.00
C1858  C     0.07799   0.61252   0.08834   0.00000  Uiso   1.00
H1859  H     0.08537   0.58402   0.09687   0.00000  Uiso   1.00
H1860  H     0.08753   0.61706   0.05843   0.00000  Uiso   1.00
H1861  H     0.04765   0.61574   0.08918   0.00000  Uiso   1.00
O1862  O     0.38122   0.82661   0.81190   0.00000  Uiso   1.00
C1863  C     0.35789   0.79616   0.80595   0.00000  Uiso   1.00
H1864  H     0.36670   0.78041   0.78010   0.00000  Uiso   1.00
H1865  H     0.32888   0.80516   0.80202   0.00000  Uiso   1.00
C1866  C     0.35996   0.77089   0.84104   0.00000  Uiso   1.00
H1867  H     0.38844   0.76019   0.84411   0.00000  Uiso   1.00
H1868  H     0.35290   0.78663   0.86739   0.00000  Uiso   1.00
C1869  C     0.33356   0.73859   0.83707   0.00000  Uiso   1.00
H1870  H     0.30468   0.74848   0.83634   0.00000  Uiso   1.00
H1871  H     0.33693   0.71966   0.86193   0.00000  Uiso   1.00
H1872  H     0.33953   0.72339   0.81015   0.00000  Uiso   1.00
O1873  O     0.33751   0.60848   0.18198   0.00000  Uiso   1.00
C1874  C     0.36030   0.58956   0.15572   0.00000  Uiso   1.00
H1875  H     0.36811   0.56218   0.16758   0.00000  Uiso   1.00
H1876  H     0.38581   0.60524   0.14923   0.00000  Uiso   1.00
C1877  C     0.33930   0.58394   0.11806   0.00000  Uiso   1.00
H1878  H     0.31629   0.56437   0.12291   0.00000  Uiso   1.00
H1879  H     0.32756   0.61057   0.10830   0.00000  Uiso   1.00
C1880  C     0.36447   0.56917   0.08656   0.00000  Uiso   1.00
H1881  H     0.38484   0.59045   0.07813   0.00000  Uiso   1.00
H1882  H     0.34791   0.56172   0.06092   0.00000  Uiso   1.00
H1883  H     0.37937   0.54436   0.09670   0.00000  Uiso   1.00
O1884  O     0.17217   0.88128   0.81306   0.00000  Uiso   1.00
C1885  C     0.20105   0.85569   0.80852   0.00000  Uiso   1.00
H1886  H     0.22022   0.86539   0.78570   0.00000  Uiso   1.00
H1887  H     0.19061   0.82788   0.80062   0.00000  Uiso   1.00
C1888  C     0.22207   0.85232   0.84643   0.00000  Uiso   1.00
H1889  H     0.23448   0.87931   0.85373   0.00000  Uiso   1.00
H1890  H     0.20276   0.84440   0.86979   0.00000  Uiso   1.00
C1891  C     0.25248   0.82359   0.84379   0.00000  Uiso   1.00
H1892  H     0.24063   0.79602   0.83803   0.00000  Uiso   1.00
H1893  H     0.26794   0.82247   0.87133   0.00000  Uiso   1.00
H1894  H     0.27176   0.83088   0.82031   0.00000  Uiso   1.00
O1895  O     0.39410   0.83978   0.18106   0.00000  Uiso   1.00
C1896  C     0.41124   0.86338   0.15407   0.00000  Uiso   1.00
H1897  H     0.44151   0.86209   0.15828   0.00000  Uiso   1.00
H1898  H     0.40284   0.89274   0.15665   0.00000  Uiso   1.00
C1899  C     0.40188   0.85004   0.11350   0.00000  Uiso   1.00
H1900  H     0.41507   0.82290   0.10850   0.00000  Uiso   1.00
H1901  H     0.37162   0.84657   0.11084   0.00000  Uiso   1.00
C1902  C     0.41474   0.87716   0.08279   0.00000  Uiso   1.00
H1903  H     0.40090   0.90410   0.08660   0.00000  Uiso   1.00
H1904  H     0.40776   0.86637   0.05383   0.00000  Uiso   1.00
H1905  H     0.44492   0.88120   0.08455   0.00000  Uiso   1.00
O1906  O     0.11528   0.66860   0.81516   0.00000  Uiso   1.00
C1907  C     0.14157   0.69714   0.81245   0.00000  Uiso   1.00
H1908  H     0.13495   0.71554   0.78773   0.00000  Uiso   1.00
H1909  H     0.16983   0.68590   0.80861   0.00000  Uiso   1.00
C1910  C     0.14108   0.71981   0.84937   0.00000  Uiso   1.00
H1911  H     0.11384   0.73325   0.85244   0.00000  Uiso   1.00
H1912  H     0.14562   0.70142   0.87452   0.00000  Uiso   1.00
C1913  C     0.17091   0.74931   0.84891   0.00000  Uiso   1.00
H1914  H     0.19852   0.73649   0.84654   0.00000  Uiso   1.00
H1915  H     0.16987   0.76538   0.87599   0.00000  Uiso   1.00
H1916  H     0.16661   0.76829   0.82427   0.00000  Uiso   1.00
O1917  O     0.16629   0.61155   0.81610   0.00000  Uiso   1.00
C1918  C     0.14627   0.59028   0.84279   0.00000  Uiso   1.00
H1919  H     0.13394   0.56559   0.82880   0.00000  Uiso   1.00
H1920  H     0.12391   0.60694   0.85593   0.00000  Uiso   1.00
C1921  C     0.17239   0.57756   0.87457   0.00000  Uiso   1.00
H1922  H     0.19763   0.56579   0.86156   0.00000  Uiso   1.00
H1923  H     0.18057   0.60147   0.89249   0.00000  Uiso   1.00
C1924  C     0.15436   0.54853   0.89993   0.00000  Uiso   1.00
H1925  H     0.12909   0.55979   0.91336   0.00000  Uiso   1.00
H1926  H     0.17384   0.53996   0.92279   0.00000  Uiso   1.00
H1927  H     0.14701   0.52399   0.88262   0.00000  Uiso   1.00
O1928  O     0.33843   0.89338   0.18141   0.00000  Uiso   1.00
C1929  C     0.30918   0.86844   0.17587   0.00000  Uiso   1.00
H1930  H     0.28941   0.86983   0.20031   0.00000  Uiso   1.00
H1931  H     0.31974   0.83981   0.17311   0.00000  Uiso   1.00
C1932  C     0.28894   0.87870   0.13882   0.00000  Uiso   1.00
H1933  H     0.27775   0.90702   0.14136   0.00000  Uiso   1.00
H1934  H     0.30860   0.87810   0.11441   0.00000  Uiso   1.00
C1935  C     0.25742   0.85223   0.13044   0.00000  Uiso   1.00
H1936  H     0.26793   0.82369   0.12777   0.00000  Uiso   1.00
H1937  H     0.24400   0.86009   0.10291   0.00000  Uiso   1.00
H1938  H     0.23665   0.85336   0.15381   0.00000  Uiso   1.00
O1939  O     0.11762   0.82752   0.81235   0.00000  Uiso   1.00
C1940  C     0.09798   0.84387   0.84277   0.00000  Uiso   1.00
H1941  H     0.07267   0.85807   0.83226   0.00000  Uiso   1.00
H1942  H     0.11569   0.86406   0.85809   0.00000  Uiso   1.00
C1943  C     0.08664   0.81368   0.87087   0.00000  Uiso   1.00
H1944  H     0.07214   0.79153   0.85497   0.00000  Uiso   1.00
H1945  H     0.11154   0.80168   0.88453   0.00000  Uiso   1.00
C1946  C     0.06135   0.82842   0.90204   0.00000  Uiso   1.00
H1947  H     0.07588   0.84944   0.91950   0.00000  Uiso   1.00
H1948  H     0.05295   0.80536   0.92089   0.00000  Uiso   1.00
H1949  H     0.03624   0.84069   0.88912   0.00000  Uiso   1.00
O1950  O     0.39092   0.66410   0.18270   0.00000  Uiso   1.00
C1951  C     0.36748   0.69493   0.18035   0.00000  Uiso   1.00
H1952  H     0.36877   0.71167   0.20717   0.00000  Uiso   1.00
H1953  H     0.33860   0.68590   0.17533   0.00000  Uiso   1.00
C1954  C     0.37978   0.71903   0.14665   0.00000  Uiso   1.00
H1955  H     0.40883   0.72758   0.15111   0.00000  Uiso   1.00
H1956  H     0.37819   0.70296   0.11953   0.00000  Uiso   1.00
C1957  C     0.35586   0.75331   0.14281   0.00000  Uiso   1.00
H1958  H     0.32670   0.74549   0.13793   0.00000  Uiso   1.00
H1959  H     0.36537   0.76997   0.11794   0.00000  Uiso   1.00
H1960  H     0.35785   0.77031   0.16923   0.00000  Uiso   1.00
O1961  O     0.32641   0.88023   0.81139   0.00000  Uiso   1.00
C1962  C     0.34259   0.89942   0.84230   0.00000  Uiso   1.00
H1963  H     0.35699   0.92482   0.83237   0.00000  Uiso   1.00
H1964  H     0.36259   0.88142   0.85760   0.00000  Uiso   1.00
C1965  C     0.31230   0.91052   0.87024   0.00000  Uiso   1.00
H1966  H     0.29065   0.92598   0.85446   0.00000  Uiso   1.00
H1967  H     0.29964   0.88550   0.88295   0.00000  Uiso   1.00
C1968  C     0.32736   0.93451   0.90239   0.00000  Uiso   1.00
H1969  H     0.34781   0.91895   0.91969   0.00000  Uiso   1.00
H1970  H     0.30435   0.94299   0.92114   0.00000  Uiso   1.00
H1971  H     0.34046   0.95961   0.89042   0.00000  Uiso   1.00
O1972  O     0.16069   0.60645   0.18164   0.00000  Uiso   1.00
C1973  C     0.19067   0.63060   0.17638   0.00000  Uiso   1.00
H1974  H     0.20897   0.63081   0.20217   0.00000  Uiso   1.00
H1975  H     0.18055   0.65900   0.17070   0.00000  Uiso   1.00
C1976  C     0.21317   0.61772   0.14184   0.00000  Uiso   1.00
H1977  H     0.22326   0.58933   0.14720   0.00000  Uiso   1.00
H1978  H     0.19543   0.61740   0.11577   0.00000  Uiso   1.00
C1979  C     0.24607   0.64279   0.13453   0.00000  Uiso   1.00
H1980  H     0.23673   0.67140   0.12911   0.00000  Uiso   1.00
H1981  H     0.26126   0.63299   0.10884   0.00000  Uiso   1.00
H1982  H     0.26499   0.64243   0.15965   0.00000  Uiso   1.00
O1983  O     0.38826   0.66591   0.81604   0.00000  Uiso   1.00
C1984  C     0.40902   0.64635   0.84358   0.00000  Uiso   1.00
H1985  H     0.43465   0.63501   0.83062   0.00000  Uiso   1.00
H1986  H     0.39258   0.62338   0.85594   0.00000  Uiso   1.00
C1987  C     0.41957   0.67263   0.87599   0.00000  Uiso   1.00
H1988  H     0.43311   0.69736   0.86367   0.00000  Uiso   1.00
H1989  H     0.39437   0.68166   0.89137   0.00000  Uiso   1.00
C1990  C     0.44570   0.65437   0.90449   0.00000  Uiso   1.00
H1991  H     0.43243   0.62989   0.91760   0.00000  Uiso   1.00
H1992  H     0.45294   0.67415   0.92751   0.00000  Uiso   1.00
H1993  H     0.47138   0.64579   0.88979   0.00000  Uiso   1.00
O1994  O     0.10876   0.83630   0.18251   0.00000  Uiso   1.00
C1995  C     0.13124   0.80477   0.18034   0.00000  Uiso   1.00
H1996  H     0.12971   0.78818   0.20732   0.00000  Uiso   1.00
H1997  H     0.16032   0.81293   0.17505   0.00000  Uiso   1.00
C1998  C     0.11790   0.78093   0.14693   0.00000  Uiso   1.00
H1999  H     0.08853   0.77363   0.15147   0.00000  Uiso   1.00
H2000  H     0.12009   0.79672   0.11960   0.00000  Uiso   1.00
C2001  C     0.14037   0.74566   0.14356   0.00000  Uiso   1.00
H2002  H     0.16973   0.75224   0.13812   0.00000  Uiso   1.00
H2003  H     0.12979   0.72897   0.11924   0.00000  Uiso   1.00
H2004  H     0.13812   0.72918   0.17039   0.00000  Uiso   1.00
O2005  O     0.41051   0.64296   0.68125   0.00000  Uiso   1.00
C2006  C     0.38686   0.66504   0.65836   0.00000  Uiso   1.00
H2007  H     0.39894   0.69302   0.65627   0.00000  Uiso   1.00
H2008  H     0.35847   0.66833   0.67025   0.00000  Uiso   1.00
C2009  C     0.38415   0.64894   0.61783   0.00000  Uiso   1.00
H2010  H     0.41150   0.65028   0.60367   0.00000  Uiso   1.00
H2011  H     0.37567   0.61970   0.61944   0.00000  Uiso   1.00
C2012  C     0.35601   0.66977   0.59356   0.00000  Uiso   1.00
H2013  H     0.32874   0.66972   0.60790   0.00000  Uiso   1.00
H2014  H     0.35286   0.65614   0.56525   0.00000  Uiso   1.00
H2015  H     0.36513   0.69859   0.58901   0.00000  Uiso   1.00
O2016  O     0.08546   0.86009   0.31702   0.00000  Uiso   1.00
C2017  C     0.05435   0.88331   0.31798   0.00000  Uiso   1.00
H2018  H     0.03856   0.88208   0.29046   0.00000  Uiso   1.00
H2019  H     0.06306   0.91220   0.32334   0.00000  Uiso   1.00
C2020  C     0.02900   0.87086   0.35055   0.00000  Uiso   1.00
H2021  H     0.02104   0.84169   0.34593   0.00000  Uiso   1.00
H2022  H     0.04386   0.87284   0.37843   0.00000  Uiso   1.00
C2023  C     0.49422   0.89425   0.35242   0.00000  Uiso   1.00
H2024  H     0.00137   0.92346   0.35788   0.00000  Uiso   1.00
H2025  H     0.47640   0.88428   0.37615   0.00000  Uiso   1.00
H2026  H     0.47862   0.89224   0.32500   0.00000  Uiso   1.00
O2027  O     0.37016   0.92519   0.68924   0.00000  Uiso   1.00
C2028  C     0.35202   0.91015   0.65703   0.00000  Uiso   1.00
H2029  H     0.32588   0.89620   0.66541   0.00000  Uiso   1.00
H2030  H     0.37020   0.89008   0.64223   0.00000  Uiso   1.00
C2031  C     0.34283   0.94135   0.62920   0.00000  Uiso   1.00
H2032  H     0.32563   0.96212   0.64414   0.00000  Uiso   1.00
H2033  H     0.36862   0.95489   0.61962   0.00000  Uiso   1.00
C2034  C     0.32221   0.92728   0.59407   0.00000  Uiso   1.00
H2035  H     0.33984   0.90815   0.57744   0.00000  Uiso   1.00
H2036  H     0.31465   0.95094   0.57556   0.00000  Uiso   1.00
H2037  H     0.29667   0.91285   0.60286   0.00000  Uiso   1.00
O2038  O     0.14104   0.58628   0.31750   0.00000  Uiso   1.00
C2039  C     0.11562   0.55700   0.31993   0.00000  Uiso   1.00
H2040  H     0.11670   0.53955   0.29362   0.00000  Uiso   1.00
H2041  H     0.08719   0.56782   0.32362   0.00000  Uiso   1.00
C2042  C     0.12520   0.53304   0.35469   0.00000  Uiso   1.00
H2043  H     0.15357   0.52214   0.35140   0.00000  Uiso   1.00
H2044  H     0.12414   0.54998   0.38125   0.00000  Uiso   1.00
C2045  C     0.09857   0.50084   0.35877   0.00000  Uiso   1.00
H2046  H     0.06996   0.51101   0.36206   0.00000  Uiso   1.00
H2047  H     0.10588   0.98447   0.38467   0.00000  Uiso   1.00
H2048  H     0.10017   0.98274   0.33313   0.00000  Uiso   1.00
O2049  O     0.07997   0.86645   0.68562   0.00000  Uiso   1.00
C2050  C     0.09890   0.84742   0.65639   0.00000  Uiso   1.00
H2051  H     0.11352   0.82278   0.66800   0.00000  Uiso   1.00
H2052  H     0.11917   0.86588   0.64219   0.00000  Uiso   1.00
C2053  C     0.07115   0.83454   0.62639   0.00000  Uiso   1.00
H2054  H     0.04996   0.81724   0.64056   0.00000  Uiso   1.00
H2055  H     0.05722   0.85868   0.61323   0.00000  Uiso   1.00
C2056  C     0.08989   0.81237   0.59492   0.00000  Uiso   1.00
H2057  H     0.10856   0.83028   0.57794   0.00000  Uiso   1.00
H2058  H     0.06866   0.80067   0.57566   0.00000  Uiso   1.00
H2059  H     0.10598   0.78940   0.60755   0.00000  Uiso   1.00
O2060  O     0.41500   0.63954   0.31698   0.00000  Uiso   1.00
C2061  C     0.44552   0.61557   0.31795   0.00000  Uiso   1.00
H2062  H     0.46161   0.61714   0.29068   0.00000  Uiso   1.00
H2063  H     0.43614   0.58675   0.32258   0.00000  Uiso   1.00
C2064  C     0.47074   0.62666   0.35116   0.00000  Uiso   1.00
H2065  H     0.47974   0.65562   0.34710   0.00000  Uiso   1.00
H2066  H     0.45537   0.62474   0.37872   0.00000  Uiso   1.00
C2067  C     0.00463   0.60202   0.35335   0.00000  Uiso   1.00
H2068  H     0.49637   0.57292   0.35773   0.00000  Uiso   1.00
H2069  H     0.02213   0.61060   0.37793   0.00000  Uiso   1.00
H2070  H     0.02096   0.60434   0.32648   0.00000  Uiso   1.00
O2071  O     0.14237   0.58929   0.68141   0.00000  Uiso   1.00
C2072  C     0.16372   0.61309   0.65801   0.00000  Uiso   1.00
H2073  H     0.19203   0.60176   0.65612   0.00000  Uiso   1.00
H2074  H     0.16627   0.64177   0.66926   0.00000  Uiso   1.00
C2075  C     0.14732   0.61459   0.61750   0.00000  Uiso   1.00
H2076  H     0.14970   0.58714   0.60377   0.00000  Uiso   1.00
H2077  H     0.11773   0.62183   0.61913   0.00000  Uiso   1.00
C2078  C     0.16690   0.64320   0.59273   0.00000  Uiso   1.00
H2079  H     0.16569   0.67066   0.60655   0.00000  Uiso   1.00
H2080  H     0.15315   0.64526   0.56432   0.00000  Uiso   1.00
H2081  H     0.19610   0.63529   0.58845   0.00000  Uiso   1.00
O2082  O     0.35808   0.91178   0.31758   0.00000  Uiso   1.00
C2083  C     0.38245   0.94194   0.32007   0.00000  Uiso   1.00
H2084  H     0.37868   0.96089   0.29512   0.00000  Uiso   1.00
H2085  H     0.41155   0.93230   0.32094   0.00000  Uiso   1.00
C2086  C     0.37453   0.96316   0.35695   0.00000  Uiso   1.00
H2087  H     0.34542   0.97247   0.35696   0.00000  Uiso   1.00
H2088  H     0.37895   0.94464   0.38191   0.00000  Uiso   1.00
C2089  C     0.39964   0.99652   0.36103   0.00000  Uiso   1.00
H2090  H     0.42892   0.98787   0.36113   0.00000  Uiso   1.00
H2091  H     0.39367   0.51065   0.38859   0.00000  Uiso   1.00
H2092  H     0.39490   0.51612   0.33698   0.00000  Uiso   1.00
O2093  O     0.40744   0.85338   0.31878   0.00000  Uiso   1.00
C2094  C     0.38216   0.83315   0.34153   0.00000  Uiso   1.00
H2095  H     0.39025   0.80371   0.34098   0.00000  Uiso   1.00
H2096  H     0.35299   0.83477   0.33143   0.00000  Uiso   1.00
C2097  C     0.38396   0.84686   0.38299   0.00000  Uiso   1.00
H2098  H     0.41193   0.84178   0.39472   0.00000  Uiso   1.00
H2099  H     0.37865   0.87688   0.38358   0.00000  Uiso   1.00
C2100  C     0.35553   0.82761   0.40826   0.00000  Uiso   1.00
H2101  H     0.32748   0.83137   0.39622   0.00000  Uiso   1.00
H2102  H     0.35600   0.83967   0.43755   0.00000  Uiso   1.00
H2103  H     0.36178   0.79779   0.41034   0.00000  Uiso   1.00
O2104  O     0.08461   0.63954   0.68333   0.00000  Uiso   1.00
C2105  C     0.05413   0.61552   0.68220   0.00000  Uiso   1.00
H2106  H     0.03696   0.61848   0.70857   0.00000  Uiso   1.00
H2107  H     0.06351   0.58650   0.67964   0.00000  Uiso   1.00
C2108  C     0.03047   0.62499   0.64720   0.00000  Uiso   1.00
H2109  H     0.02153   0.65413   0.64908   0.00000  Uiso   1.00
H2110  H     0.04691   0.62136   0.62057   0.00000  Uiso   1.00
C2111  C     0.49641   0.60072   0.64497   0.00000  Uiso   1.00
H2112  H     0.00437   0.57131   0.64311   0.00000  Uiso   1.00
H2113  H     0.48011   0.60807   0.61903   0.00000  Uiso   1.00
H2114  H     0.47912   0.60509   0.67081   0.00000  Uiso   1.00
O2115  O     0.35969   0.58571   0.31719   0.00000  Uiso   1.00
C2116  C     0.34084   0.60711   0.34468   0.00000  Uiso   1.00
H2117  H     0.31464   0.61798   0.33249   0.00000  Uiso   1.00
H2118  H     0.35805   0.63051   0.35463   0.00000  Uiso   1.00
C2119  C     0.33188   0.58292   0.37944   0.00000  Uiso   1.00
H2120  H     0.31272   0.56072   0.37054   0.00000  Uiso   1.00
H2121  H     0.35752   0.57000   0.39042   0.00000  Uiso   1.00
C2122  C     0.31444   0.60516   0.41179   0.00000  Uiso   1.00
H2123  H     0.33459   0.62515   0.42357   0.00000  Uiso   1.00
H2124  H     0.30569   0.58636   0.43524   0.00000  Uiso   1.00
H2125  H     0.28996   0.62027   0.40108   0.00000  Uiso   1.00
O2126  O     0.13504   0.92027   0.68571   0.00000  Uiso   1.00
C2127  C     0.11304   0.95203   0.68899   0.00000  Uiso   1.00
H2128  H     0.11897   0.96700   0.71625   0.00000  Uiso   1.00
H2129  H     0.08344   0.94449   0.68819   0.00000  Uiso   1.00
C2130  C     0.12130   0.97768   0.65522   0.00000  Uiso   1.00
H2131  H     0.15066   0.98614   0.65635   0.00000  Uiso   1.00
H2132  H     0.11645   0.96293   0.62769   0.00000  Uiso   1.00
C2133  C     0.09708   0.51190   0.65636   0.00000  Uiso   1.00
H2134  H     0.06766   0.50418   0.65340   0.00000  Uiso   1.00
H2135  H     0.10453   0.53056   0.63228   0.00000  Uiso   1.00
H2136  H     0.10108   0.52672   0.68394   0.00000  Uiso   1.00
O2137  O     0.08965   0.64374   0.31853   0.00000  Uiso   1.00
C2138  C     0.11346   0.66277   0.34372   0.00000  Uiso   1.00
H2139  H     0.12390   0.68839   0.32987   0.00000  Uiso   1.00
H2140  H     0.13723   0.64536   0.35233   0.00000  Uiso   1.00
C2141  C     0.09226   0.67319   0.38002   0.00000  Uiso   1.00
H2142  H     0.06996   0.69275   0.37238   0.00000  Uiso   1.00
H2143  H     0.07954   0.64820   0.39276   0.00000  Uiso   1.00
C2144  C     0.11751   0.69074   0.40990   0.00000  Uiso   1.00
H2145  H     0.13764   0.67022   0.42078   0.00000  Uiso   1.00
H2146  H     0.10091   0.70089   0.43443   0.00000  Uiso   1.00
H2147  H     0.13262   0.71432   0.39718   0.00000  Uiso   1.00
O2148  O     0.42370   0.86965   0.68800   0.00000  Uiso   1.00
C2149  C     0.45242   0.89526   0.69318   0.00000  Uiso   1.00
H2150  H     0.46757   0.88956   0.72047   0.00000  Uiso   1.00
H2151  H     0.44151   0.92386   0.69388   0.00000  Uiso   1.00
C2152  C     0.47930   0.89212   0.65965   0.00000  Uiso   1.00
H2153  H     0.49187   0.86426   0.65972   0.00000  Uiso   1.00
H2154  H     0.46429   0.89599   0.63205   0.00000  Uiso   1.00
C2155  C     0.00958   0.92096   0.66268   0.00000  Uiso   1.00
H2156  H     0.49772   0.94903   0.66061   0.00000  Uiso   1.00
H2157  H     0.02960   0.91730   0.63893   0.00000  Uiso   1.00
H2158  H     0.02417   0.91805   0.69058   0.00000  Uiso   1.00
O2159  O     0.14101   0.91337   0.31736   0.00000  Uiso   1.00
C2160  C     0.15811   0.89099   0.34559   0.00000  Uiso   1.00
H2161  H     0.18818   0.89644   0.34513   0.00000  Uiso   1.00
H2162  H     0.15413   0.86085   0.34115   0.00000  Uiso   1.00
C2163  C     0.14297   0.90121   0.38518   0.00000  Uiso   1.00
H2164  H     0.14991   0.93030   0.39164   0.00000  Uiso   1.00
H2165  H     0.11255   0.89836   0.38501   0.00000  Uiso   1.00
C2166  C     0.15876   0.87658   0.41671   0.00000  Uiso   1.00
H2167  H     0.15235   0.84730   0.41073   0.00000  Uiso   1.00
H2168  H     0.14630   0.88399   0.44477   0.00000  Uiso   1.00
H2169  H     0.18904   0.88018   0.41863   0.00000  Uiso   1.00
O2170  O     0.35910   0.58675   0.68195   0.00000  Uiso   1.00
C2171  C     0.37450   0.55099   0.68171   0.00000  Uiso   1.00
H2172  H     0.35848   0.53439   0.66076   0.00000  Uiso   1.00
H2173  H     0.37228   0.53660   0.70992   0.00000  Uiso   1.00
C2174  C     0.41473   0.55195   0.66882   0.00000  Uiso   1.00
H2175  H     0.41726   0.56837   0.64196   0.00000  Uiso   1.00
H2176  H     0.43154   0.56509   0.69164   0.00000  Uiso   1.00
C2177  C     0.42956   0.51335   0.66163   0.00000  Uiso   1.00
H2178  H     0.42658   0.99609   0.68784   0.00000  Uiso   1.00
H2179  H     0.45915   0.51493   0.65400   0.00000  Uiso   1.00
H2180  H     0.41455   0.50033   0.63742   0.00000  Uiso   1.00
I2181  I     0.16798   0.52822   0.10648   0.00000  Uiso   1.00
I2182  I     0.32062   0.54897   0.89247   0.00000  Uiso   1.00
I2183  I     0.47278   0.66658   0.10763   0.00000  Uiso   1.00
I2184  I     0.44429   0.81766   0.88727   0.00000  Uiso   1.00
I2185  I     0.33355   0.97231   0.10879   0.00000  Uiso   1.00
I2186  I     0.18463   0.94308   0.88869   0.00000  Uiso   1.00
I2187  I     0.01495   0.83642   0.10691   0.00000  Uiso   1.00
I2188  I     0.05354   0.68454   0.89358   0.00000  Uiso   1.00
I2189  I     0.43040   0.80074   0.60874   0.00000  Uiso   1.00
I2190  I     0.08041   0.78554   0.39066   0.00000  Uiso   1.00
I2191  I     0.20892   0.92422   0.60709   0.00000  Uiso   1.00
I2192  I     0.21337   0.57767   0.39375   0.00000  Uiso   1.00
I2193  I     0.07636   0.70770   0.60887   0.00000  Uiso   1.00
I2194  I     0.42086   0.71505   0.39318   0.00000  Uiso   1.00
I2195  I     0.27725   0.58371   0.60779   0.00000  Uiso   1.00
I2196  I     0.28032   0.91697   0.39138   0.00000  Uiso   1.00
C2197  C     0.71807   0.50608   0.04076   0.00000  Uiso   1.00
C2198  C     0.77471   0.52020   0.95907   0.00000  Uiso   1.00
C2199  C     0.98448   0.71917   0.04132   0.00000  Uiso   1.00
C2200  C     0.97140   0.77478   0.95698   0.00000  Uiso   1.00
C2201  C     0.78184   0.98457   0.04155   0.00000  Uiso   1.00
C2202  C     0.72538   0.97446   0.95756   0.00000  Uiso   1.00
C2203  C     0.50433   0.78341   0.04076   0.00000  Uiso   1.00
C2204  C     0.51746   0.72574   0.95937   0.00000  Uiso   1.00
C2205  C     0.97366   0.77004   0.54143   0.00000  Uiso   1.00
C2206  C     0.53131   0.76645   0.45835   0.00000  Uiso   1.00
C2207  C     0.73660   0.97116   0.54052   0.00000  Uiso   1.00
C2208  C     0.74123   0.53001   0.45934   0.00000  Uiso   1.00
C2209  C     0.52856   0.73105   0.54154   0.00000  Uiso   1.00
C2210  C     0.97076   0.73708   0.45901   0.00000  Uiso   1.00
C2211  C     0.77158   0.52878   0.54256   0.00000  Uiso   1.00
C2212  C     0.77082   0.96968   0.45793   0.00000  Uiso   1.00
C2213  C     0.71794   0.50781   0.08096   0.00000  Uiso   1.00
C2214  C     0.77651   0.51916   0.91882   0.00000  Uiso   1.00
C2215  C     0.98708   0.71832   0.08146   0.00000  Uiso   1.00
C2216  C     0.97484   0.77589   0.91682   0.00000  Uiso   1.00
C2217  C     0.78218   0.98700   0.08178   0.00000  Uiso   1.00
C2218  C     0.72432   0.97677   0.91740   0.00000  Uiso   1.00
C2219  C     0.50414   0.78363   0.08107   0.00000  Uiso   1.00
C2220  C     0.51809   0.72447   0.91920   0.00000  Uiso   1.00
C2221  C     0.97290   0.76925   0.58162   0.00000  Uiso   1.00
C2222  C     0.53150   0.76482   0.41807   0.00000  Uiso   1.00
C2223  C     0.73547   0.97071   0.58084   0.00000  Uiso   1.00
C2224  C     0.73932   0.53034   0.41914   0.00000  Uiso   1.00
C2225  C     0.52945   0.73266   0.58180   0.00000  Uiso   1.00
C2226  C     0.96978   0.73753   0.41885   0.00000  Uiso   1.00
C2227  C     0.76474   0.53131   0.58205   0.00000  Uiso   1.00
C2228  C     0.76578   0.96839   0.41798   0.00000  Uiso   1.00
C2229  C     0.74990   0.99490   0.02096   0.00000  Uiso   1.00
C2230  C     0.74998   0.99671   0.97856   0.00000  Uiso   1.00
C2231  C     0.99399   0.75122   0.02085   0.00000  Uiso   1.00
C2232  C     0.99365   0.75031   0.97842   0.00000  Uiso   1.00
C2233  C     0.50119   0.75066   0.52128   0.00000  Uiso   1.00
C2234  C     0.50125   0.75155   0.47887   0.00000  Uiso   1.00
C2235  C     0.75637   0.99937   0.52134   0.00000  Uiso   1.00
C2236  C     0.75780   0.50025   0.47886   0.00000  Uiso   1.00
C2237  C     0.75003   0.99987   0.35541   0.00000  Uiso   1.00
C2238  C     0.74943   0.50017   0.64460   0.00000  Uiso   1.00
C2239  C     0.50009   0.75018   0.35538   0.00000  Uiso   1.00
C2240  C     0.50012   0.75004   0.64465   0.00000  Uiso   1.00
C2241  C     0.99954   0.75000   0.85529   0.00000  Uiso   1.00
C2242  C     0.99939   0.75011   0.14454   0.00000  Uiso   1.00
C2243  C     0.75006   0.99990   0.85531   0.00000  Uiso   1.00
C2244  C     0.75002   0.99981   0.14456   0.00000  Uiso   1.00
C2245  C     0.67997   0.56991   0.25001   0.00000  Uiso   1.00
C2246  C     0.82002   0.92999   0.75003   0.00000  Uiso   1.00
C2247  C     0.93007   0.68001   0.25007   0.00000  Uiso   1.00
C2248  C     0.56985   0.82019   0.74972   0.00000  Uiso   1.00
C2249  C     0.81987   0.92992   0.24982   0.00000  Uiso   1.00
C2250  C     0.67992   0.56998   0.74981   0.00000  Uiso   1.00
C2251  C     0.56993   0.82002   0.25003   0.00000  Uiso   1.00
C2252  C     0.93000   0.67989   0.74985   0.00000  Uiso   1.00
C2253  C     0.68028   0.92982   0.75032   0.00000  Uiso   1.00
C2254  C     0.82001   0.57005   0.24992   0.00000  Uiso   1.00
C2255  C     0.93012   0.82008   0.74979   0.00000  Uiso   1.00
C2256  C     0.57005   0.67998   0.25001   0.00000  Uiso   1.00
C2257  C     0.81983   0.57007   0.75018   0.00000  Uiso   1.00
C2258  C     0.68003   0.92989   0.24989   0.00000  Uiso   1.00
C2259  C     0.57010   0.68015   0.75020   0.00000  Uiso   1.00
C2260  C     0.92987   0.81992   0.24981   0.00000  Uiso   1.00
C2261  C     0.64329   0.88369   0.21521   0.00000  Uiso   1.00
C2262  C     0.85450   0.61814   0.78354   0.00000  Uiso   1.00
C2263  C     0.61419   0.64123   0.21500   0.00000  Uiso   1.00
C2264  C     0.87780   0.85033   0.78096   0.00000  Uiso   1.00
C2265  C     0.85718   0.61601   0.21523   0.00000  Uiso   1.00
C2266  C     0.64858   0.87841   0.78197   0.00000  Uiso   1.00
C2267  C     0.88558   0.85864   0.21451   0.00000  Uiso   1.00
C2268  C     0.61915   0.64610   0.78337   0.00000  Uiso   1.00
C2269  C     0.64472   0.61743   0.78389   0.00000  Uiso   1.00
C2270  C     0.85676   0.88426   0.21503   0.00000  Uiso   1.00
C2271  C     0.62039   0.85230   0.78231   0.00000  Uiso   1.00
C2272  C     0.88292   0.64462   0.21591   0.00000  Uiso   1.00
C2273  C     0.85137   0.87820   0.78156   0.00000  Uiso   1.00
C2274  C     0.64287   0.61562   0.21544   0.00000  Uiso   1.00
C2275  C     0.88290   0.64403   0.78403   0.00000  Uiso   1.00
C2276  C     0.61709   0.85545   0.21577   0.00000  Uiso   1.00
C2277  C     0.89305   0.63361   0.71530   0.00000  Uiso   1.00
C2278  C     0.60527   0.86741   0.28388   0.00000  Uiso   1.00
C2279  C     0.87174   0.89912   0.71822   0.00000  Uiso   1.00
C2280  C     0.63372   0.60624   0.28441   0.00000  Uiso   1.00
C2281  C     0.60301   0.87041   0.71701   0.00000  Uiso   1.00
C2282  C     0.89475   0.63257   0.28406   0.00000  Uiso   1.00
C2283  C     0.63344   0.60684   0.71545   0.00000  Uiso   1.00
C2284  C     0.86572   0.89284   0.28407   0.00000  Uiso   1.00
C2285  C     0.89094   0.86392   0.28455   0.00000  Uiso   1.00
C2286  C     0.60467   0.63228   0.71631   0.00000  Uiso   1.00
C2287  C     0.86630   0.60663   0.28455   0.00000  Uiso   1.00
C2288  C     0.62952   0.89828   0.71773   0.00000  Uiso   1.00
C2289  C     0.60833   0.63516   0.28501   0.00000  Uiso   1.00
C2290  C     0.89960   0.87255   0.71859   0.00000  Uiso   1.00
C2291  C     0.63379   0.89322   0.28439   0.00000  Uiso   1.00
C2292  C     0.86764   0.60479   0.71591   0.00000  Uiso   1.00
C2293  C     0.59790   0.84807   0.24991   0.00000  Uiso   1.00
C2294  C     0.90181   0.65183   0.74976   0.00000  Uiso   1.00
C2295  C     0.65186   0.59781   0.24998   0.00000  Uiso   1.00
C2296  C     0.84816   0.90198   0.74995   0.00000  Uiso   1.00
C2297  C     0.90203   0.65204   0.25006   0.00000  Uiso   1.00
C2298  C     0.59802   0.84825   0.74972   0.00000  Uiso   1.00
C2299  C     0.84787   0.90190   0.24962   0.00000  Uiso   1.00
C2300  C     0.65203   0.59824   0.74975   0.00000  Uiso   1.00
C2301  C     0.59810   0.65214   0.75013   0.00000  Uiso   1.00
C2302  C     0.90170   0.84793   0.24960   0.00000  Uiso   1.00
C2303  C     0.65222   0.90189   0.75015   0.00000  Uiso   1.00
C2304  C     0.84821   0.59809   0.24990   0.00000  Uiso   1.00
C2305  C     0.90201   0.84802   0.74971   0.00000  Uiso   1.00
C2306  C     0.59812   0.65185   0.25004   0.00000  Uiso   1.00
C2307  C     0.84807   0.59776   0.74996   0.00000  Uiso   1.00
C2308  C     0.65193   0.90179   0.24983   0.00000  Uiso   1.00
C2309  C     0.75009   0.99831   0.10202   0.00000  Uiso   1.00
C2310  C     0.75017   0.99884   0.89764   0.00000  Uiso   1.00
C2311  C     0.99714   0.75060   0.10197   0.00000  Uiso   1.00
C2312  C     0.99741   0.75006   0.89757   0.00000  Uiso   1.00
C2313  C     0.50071   0.75045   0.60224   0.00000  Uiso   1.00
C2314  C     0.50043   0.75089   0.39785   0.00000  Uiso   1.00
C2315  C     0.74964   0.50080   0.60209   0.00000  Uiso   1.00
C2316  C     0.75163   0.99948   0.39791   0.00000  Uiso   1.00
O2317  O     0.75000   0.50000   0.25000   0.00000  Uiso   1.00
O2318  O     0.75000   0.50000   0.75000   0.00000  Uiso   1.00
O2319  O     0.50000   0.75000   0.25000   0.00000  Uiso   1.00
O2320  O     0.50000   0.75000   0.75000   0.00000  Uiso   1.00
O2321  O     0.75000   0.96964   0.33683   0.00000  Uiso   1.00
O2322  O     0.75000   0.53036   0.66317   0.00000  Uiso   1.00
O2323  O     0.53036   0.75000   0.33683   0.00000  Uiso   1.00
O2324  O     0.96964   0.75000   0.66317   0.00000  Uiso   1.00
O2325  O     0.75000   0.53036   0.33683   0.00000  Uiso   1.00
O2326  O     0.75000   0.96964   0.66317   0.00000  Uiso   1.00
O2327  O     0.96964   0.75000   0.33683   0.00000  Uiso   1.00
O2328  O     0.53036   0.75000   0.66317   0.00000  Uiso   1.00
O2329  O     0.50000   0.71964   0.83683   0.00000  Uiso   1.00
O2330  O     0.50000   0.78036   0.16317   0.00000  Uiso   1.00
O2331  O     0.78036   0.50000   0.83683   0.00000  Uiso   1.00
O2332  O     0.71964   0.50000   0.16317   0.00000  Uiso   1.00
O2333  O     0.50000   0.78036   0.83683   0.00000  Uiso   1.00
O2334  O     0.50000   0.71964   0.16317   0.00000  Uiso   1.00
O2335  O     0.71964   0.50000   0.83683   0.00000  Uiso   1.00
O2336  O     0.78036   0.50000   0.16317   0.00000  Uiso   1.00
O2337  O     0.70726   0.57307   0.27282   0.00000  Uiso   1.00
O2338  O     0.79275   0.92693   0.72718   0.00000  Uiso   1.00
O2339  O     0.92693   0.70725   0.27282   0.00000  Uiso   1.00
O2340  O     0.57307   0.79274   0.72718   0.00000  Uiso   1.00
O2341  O     0.79275   0.92693   0.27282   0.00000  Uiso   1.00
O2342  O     0.70726   0.57307   0.72718   0.00000  Uiso   1.00
O2343  O     0.57307   0.79274   0.27282   0.00000  Uiso   1.00
O2344  O     0.92693   0.70725   0.72718   0.00000  Uiso   1.00
O2345  O     0.70726   0.92693   0.72718   0.00000  Uiso   1.00
O2346  O     0.79275   0.57307   0.27282   0.00000  Uiso   1.00
O2347  O     0.92693   0.79274   0.72718   0.00000  Uiso   1.00
O2348  O     0.57307   0.70725   0.27282   0.00000  Uiso   1.00
O2349  O     0.79275   0.57307   0.72718   0.00000  Uiso   1.00
O2350  O     0.70726   0.92693   0.27282   0.00000  Uiso   1.00
O2351  O     0.57307   0.70725   0.72718   0.00000  Uiso   1.00
O2352  O     0.92693   0.79274   0.27282   0.00000  Uiso   1.00
O2353  O     0.95726   0.82307   0.77282   0.00000  Uiso   1.00
O2354  O     0.54275   0.67693   0.22718   0.00000  Uiso   1.00
O2355  O     0.67693   0.95725   0.77282   0.00000  Uiso   1.00
O2356  O     0.82307   0.54274   0.22718   0.00000  Uiso   1.00
O2357  O     0.54275   0.67693   0.77282   0.00000  Uiso   1.00
O2358  O     0.95726   0.82307   0.22718   0.00000  Uiso   1.00
O2359  O     0.82307   0.54274   0.77282   0.00000  Uiso   1.00
O2360  O     0.67693   0.95725   0.22718   0.00000  Uiso   1.00
O2361  O     0.95726   0.67693   0.22718   0.00000  Uiso   1.00
O2362  O     0.54275   0.82307   0.77282   0.00000  Uiso   1.00
O2363  O     0.67693   0.54274   0.22718   0.00000  Uiso   1.00
O2364  O     0.82307   0.95725   0.77282   0.00000  Uiso   1.00
O2365  O     0.54275   0.82307   0.22718   0.00000  Uiso   1.00
O2366  O     0.95726   0.67693   0.77282   0.00000  Uiso   1.00
O2367  O     0.82307   0.95725   0.22718   0.00000  Uiso   1.00
O2368  O     0.67693   0.54274   0.77282   0.00000  Uiso   1.00
Zn2369 Zn    0.70660   0.50000   0.21760   0.00000  Uiso   1.00
Zn2370 Zn    0.79340   0.50000   0.78240   0.00000  Uiso   1.00
Zn2371 Zn    0.50000   0.70660   0.21760   0.00000  Uiso   1.00
Zn2372 Zn    0.50000   0.79340   0.78240   0.00000  Uiso   1.00
Zn2373 Zn    0.79340   0.50000   0.21760   0.00000  Uiso   1.00
Zn2374 Zn    0.70660   0.50000   0.78240   0.00000  Uiso   1.00
Zn2375 Zn    0.50000   0.79340   0.21760   0.00000  Uiso   1.00
Zn2376 Zn    0.50000   0.70660   0.78240   0.00000  Uiso   1.00
Zn2377 Zn    0.95660   0.75000   0.71760   0.00000  Uiso   1.00
Zn2378 Zn    0.54340   0.75000   0.28240   0.00000  Uiso   1.00
Zn2379 Zn    0.75000   0.95660   0.71760   0.00000  Uiso   1.00
Zn2380 Zn    0.75000   0.54340   0.28240   0.00000  Uiso   1.00
Zn2381 Zn    0.54340   0.75000   0.71760   0.00000  Uiso   1.00
Zn2382 Zn    0.95660   0.75000   0.28240   0.00000  Uiso   1.00
Zn2383 Zn    0.75000   0.54340   0.71760   0.00000  Uiso   1.00
Zn2384 Zn    0.75000   0.95660   0.28240   0.00000  Uiso   1.00
O2385  O     0.68594   0.51364   0.02079   0.00000  Uiso   1.00
C2386  C     0.68470   0.55130   0.01080   0.00000  Uiso   1.00
H2387  H     0.70066   0.55587   0.98400   0.00000  Uiso   1.00
H2388  H     0.69589   0.56943   0.03390   0.00000  Uiso   1.00
C2389  C     0.64471   0.56215   0.00370   0.00000  Uiso   1.00
H2390  H     0.63260   0.54395   0.98145   0.00000  Uiso   1.00
H2391  H     0.62865   0.55845   0.03059   0.00000  Uiso   1.00
C2392  C     0.64160   0.60206   0.99071   0.00000  Uiso   1.00
H2393  H     0.65158   0.62064   0.01377   0.00000  Uiso   1.00
H2394  H     0.61236   0.60849   0.98451   0.00000  Uiso   1.00
H2395  H     0.65797   0.60683   0.96423   0.00000  Uiso   1.00
O2396  O     0.80026   0.54144   0.97880   0.00000  Uiso   1.00
C2397  C     0.78347   0.57284   0.99531   0.00000  Uiso   1.00
H2398  H     0.80381   0.58544   0.01512   0.00000  Uiso   1.00
H2399  H     0.75958   0.56565   0.01346   0.00000  Uiso   1.00
C2400  C     0.77287   0.60193   0.96514   0.00000  Uiso   1.00
H2401  H     0.79787   0.61085   0.94935   0.00000  Uiso   1.00
H2402  H     0.75291   0.59031   0.94421   0.00000  Uiso   1.00
C2403  C     0.75537   0.63545   0.98399   0.00000  Uiso   1.00
H2404  H     0.72989   0.62742   0.99947   0.00000  Uiso   1.00
H2405  H     0.74814   0.65597   0.96154   0.00000  Uiso   1.00
H2406  H     0.77489   0.64827   0.00459   0.00000  Uiso   1.00
O2407  O     0.97482   0.68733   0.02190   0.00000  Uiso   1.00
C2408  C     0.93662   0.68747   0.01419   0.00000  Uiso   1.00
H2409  H     0.93147   0.70275   0.98702   0.00000  Uiso   1.00
H2410  H     0.92026   0.70017   0.03786   0.00000  Uiso   1.00
C2411  C     0.92335   0.64789   0.00925   0.00000  Uiso   1.00
H2412  H     0.94039   0.63383   0.98729   0.00000  Uiso   1.00
H2413  H     0.92664   0.63283   0.03687   0.00000  Uiso   1.00
C2414  C     0.88302   0.64649   0.99706   0.00000  Uiso   1.00
H2415  H     0.86542   0.65962   0.01921   0.00000  Uiso   1.00
H2416  H     0.87428   0.61742   0.99374   0.00000  Uiso   1.00
H2417  H     0.87913   0.66086   0.96912   0.00000  Uiso   1.00
O2418  O     0.94978   0.80130   0.97471   0.00000  Uiso   1.00
C2419  C     0.91798   0.78565   0.99167   0.00000  Uiso   1.00
H2420  H     0.90535   0.80711   0.01008   0.00000  Uiso   1.00
H2421  H     0.92457   0.76266   0.01132   0.00000  Uiso   1.00
C2422  C     0.88933   0.77389   0.96159   0.00000  Uiso   1.00
H2423  H     0.88118   0.79809   0.94401   0.00000  Uiso   1.00
H2424  H     0.90108   0.75266   0.94224   0.00000  Uiso   1.00
C2425  C     0.85509   0.75805   0.98076   0.00000  Uiso   1.00
H2426  H     0.86235   0.73350   0.99824   0.00000  Uiso   1.00
H2427  H     0.83498   0.74972   0.95835   0.00000  Uiso   1.00
H2428  H     0.84208   0.77897   0.99957   0.00000  Uiso   1.00
O2429  O     0.81487   0.97707   0.02306   0.00000  Uiso   1.00
C2430  C     0.81439   0.94237   0.00466   0.00000  Uiso   1.00
H2431  H     0.83911   0.94118   0.98604   0.00000  Uiso   1.00
H2432  H     0.79058   0.93921   0.98537   0.00000  Uiso   1.00
C2433  C     0.81642   0.91002   0.03300   0.00000  Uiso   1.00
H2434  H     0.84165   0.91246   0.05076   0.00000  Uiso   1.00
H2435  H     0.79202   0.91019   0.05217   0.00000  Uiso   1.00
C2436  C     0.81773   0.87333   0.01184   0.00000  Uiso   1.00
H2437  H     0.79295   0.86995   0.99352   0.00000  Uiso   1.00
H2438  H     0.81864   0.85050   0.03307   0.00000  Uiso   1.00
H2439  H     0.84268   0.87180   0.99351   0.00000  Uiso   1.00
O2440  O     0.70151   0.95063   0.97624   0.00000  Uiso   1.00
C2441  C     0.71958   0.91675   0.98287   0.00000  Uiso   1.00
H2442  H     0.73459   0.91818   0.01068   0.00000  Uiso   1.00
H2443  H     0.73920   0.90953   0.95933   0.00000  Uiso   1.00
C2444  C     0.69139   0.88572   0.98546   0.00000  Uiso   1.00
H2445  H     0.67239   0.89084   0.00984   0.00000  Uiso   1.00
H2446  H     0.67500   0.88473   0.95849   0.00000  Uiso   1.00
C2447  C     0.71046   0.84871   0.99130   0.00000  Uiso   1.00
H2448  H     0.73007   0.84337   0.96748   0.00000  Uiso   1.00
H2449  H     0.68984   0.82628   0.99146   0.00000  Uiso   1.00
H2450  H     0.72552   0.84841   0.01913   0.00000  Uiso   1.00
O2451  O     0.51050   0.81638   0.02158   0.00000  Uiso   1.00
C2452  C     0.54545   0.81687   0.00364   0.00000  Uiso   1.00
H2453  H     0.54558   0.84055   0.98347   0.00000  Uiso   1.00
H2454  H     0.55035   0.79223   0.98595   0.00000  Uiso   1.00
C2455  C     0.57709   0.82231   0.03232   0.00000  Uiso   1.00
H2456  H     0.57361   0.84898   0.04734   0.00000  Uiso   1.00
H2457  H     0.57724   0.79976   0.05390   0.00000  Uiso   1.00
C2458  C     0.61413   0.82258   0.01196   0.00000  Uiso   1.00
H2459  H     0.61888   0.79599   0.99717   0.00000  Uiso   1.00
H2460  H     0.63624   0.82680   0.03355   0.00000  Uiso   1.00
H2461  H     0.61522   0.84524   0.99053   0.00000  Uiso   1.00
O2462  O     0.53976   0.70184   0.97998   0.00000  Uiso   1.00
C2463  C     0.57244   0.72024   0.99076   0.00000  Uiso   1.00
H2464  H     0.56713   0.73758   0.01640   0.00000  Uiso   1.00
H2465  H     0.58363   0.73757   0.96693   0.00000  Uiso   1.00
C2466  C     0.60164   0.69200   0.00159   0.00000  Uiso   1.00
H2467  H     0.59068   0.67361   0.02436   0.00000  Uiso   1.00
H2468  H     0.60842   0.67527   0.97588   0.00000  Uiso   1.00
C2469  C     0.63655   0.71055   0.01635   0.00000  Uiso   1.00
H2470  H     0.64858   0.72836   0.99361   0.00000  Uiso   1.00
H2471  H     0.65708   0.68933   0.02446   0.00000  Uiso   1.00
H2472  H     0.63038   0.72748   0.04210   0.00000  Uiso   1.00
O2473  O     0.94515   0.78723   0.52197   0.00000  Uiso   1.00
C2474  C     0.95678   0.82210   0.50897   0.00000  Uiso   1.00
H2475  H     0.97944   0.81938   0.48798   0.00000  Uiso   1.00
H2476  H     0.96577   0.83969   0.53345   0.00000  Uiso   1.00
C2477  C     0.92500   0.84070   0.48805   0.00000  Uiso   1.00
H2478  H     0.91434   0.82166   0.46575   0.00000  Uiso   1.00
H2479  H     0.90253   0.84677   0.50872   0.00000  Uiso   1.00
C2480  C     0.93744   0.87621   0.46866   0.00000  Uiso   1.00
H2481  H     0.94716   0.89621   0.49051   0.00000  Uiso   1.00
H2482  H     0.91403   0.88828   0.45258   0.00000  Uiso   1.00
H2483  H     0.95998   0.87065   0.44795   0.00000  Uiso   1.00
O2484  O     0.56297   0.77858   0.47687   0.00000  Uiso   1.00
C2485  C     0.55786   0.81329   0.49457   0.00000  Uiso   1.00
H2486  H     0.58309   0.81896   0.51150   0.00000  Uiso   1.00
H2487  H     0.53509   0.81303   0.51562   0.00000  Uiso   1.00
C2488  C     0.55354   0.84505   0.46565   0.00000  Uiso   1.00
H2489  H     0.57884   0.84734   0.44797   0.00000  Uiso   1.00
H2490  H     0.52976   0.84008   0.44629   0.00000  Uiso   1.00
C2491  C     0.54759   0.88152   0.48630   0.00000  Uiso   1.00
H2492  H     0.52198   0.88052   0.50362   0.00000  Uiso   1.00
H2493  H     0.54508   0.90399   0.46478   0.00000  Uiso   1.00
H2494  H     0.57124   0.88761   0.50552   0.00000  Uiso   1.00
O2495  O     0.72200   0.94124   0.52088   0.00000  Uiso   1.00
C2496  C     0.68970   0.95079   0.50022   0.00000  Uiso   1.00
H2497  H     0.68543   0.92933   0.47805   0.00000  Uiso   1.00
H2498  H     0.69218   0.97684   0.48414   0.00000  Uiso   1.00
C2499  C     0.65562   0.95180   0.52609   0.00000  Uiso   1.00
H2500  H     0.65161   0.92443   0.53967   0.00000  Uiso   1.00
H2501  H     0.65937   0.97267   0.54904   0.00000  Uiso   1.00
C2502  C     0.62124   0.96158   0.50302   0.00000  Uiso   1.00
H2503  H     0.62408   0.98938   0.49010   0.00000  Uiso   1.00
H2504  H     0.59694   0.96152   0.52232   0.00000  Uiso   1.00
H2505  H     0.61663   0.94118   0.47978   0.00000  Uiso   1.00
O2506  O     0.72701   0.55956   0.47958   0.00000  Uiso   1.00
C2507  C     0.68998   0.55231   0.48944   0.00000  Uiso   1.00
H2508  H     0.68900   0.53435   0.51532   0.00000  Uiso   1.00
H2509  H     0.67450   0.53900   0.46545   0.00000  Uiso   1.00
C2510  C     0.67089   0.58845   0.49905   0.00000  Uiso   1.00
H2511  H     0.68561   0.60180   0.52328   0.00000  Uiso   1.00
H2512  H     0.67201   0.60711   0.47373   0.00000  Uiso   1.00
C2513  C     0.63077   0.58221   0.51013   0.00000  Uiso   1.00
H2514  H     0.61560   0.56910   0.48603   0.00000  Uiso   1.00
H2515  H     0.61756   0.60897   0.51660   0.00000  Uiso   1.00
H2516  H     0.62895   0.56434   0.53601   0.00000  Uiso   1.00
O2517  O     0.55727   0.71355   0.52257   0.00000  Uiso   1.00
C2518  C     0.54557   0.68011   0.50558   0.00000  Uiso   1.00
H2519  H     0.56808   0.67058   0.48653   0.00000  Uiso   1.00
H2520  H     0.52148   0.68383   0.48656   0.00000  Uiso   1.00
C2521  C     0.53843   0.64971   0.53541   0.00000  Uiso   1.00
H2522  H     0.56414   0.64410   0.55166   0.00000  Uiso   1.00
H2523  H     0.51680   0.65845   0.55596   0.00000  Uiso   1.00
C2524  C     0.52584   0.61425   0.51610   0.00000  Uiso   1.00
H2525  H     0.99961   0.61881   0.50042   0.00000  Uiso   1.00
H2526  H     0.52137   0.59273   0.53831   0.00000  Uiso   1.00
H2527  H     0.54702   0.60440   0.49558   0.00000  Uiso   1.00
O2528  O     0.94032   0.72440   0.47894   0.00000  Uiso   1.00
C2529  C     0.94532   0.68703   0.48867   0.00000  Uiso   1.00
H2530  H     0.96255   0.68493   0.51500   0.00000  Uiso   1.00
H2531  H     0.95827   0.67103   0.46489   0.00000  Uiso   1.00
C2532  C     0.90788   0.67010   0.49725   0.00000  Uiso   1.00
H2533  H     0.89463   0.68572   0.52086   0.00000  Uiso   1.00
H2534  H     0.89010   0.67209   0.47130   0.00000  Uiso   1.00
C2535  C     0.91147   0.62986   0.50891   0.00000  Uiso   1.00
H2536  H     0.92421   0.61374   0.48535   0.00000  Uiso   1.00
H2537  H     0.88374   0.61852   0.51474   0.00000  Uiso   1.00
H2538  H     0.92847   0.62716   0.53534   0.00000  Uiso   1.00
O2539  O     0.78902   0.55803   0.52435   0.00000  Uiso   1.00
C2540  C     0.82639   0.54964   0.51679   0.00000  Uiso   1.00
H2541  H     0.83697   0.57113   0.49699   0.00000  Uiso   1.00
H2542  H     0.82937   0.52371   0.50076   0.00000  Uiso   1.00
C2543  C     0.85042   0.55039   0.55337   0.00000  Uiso   1.00
H2544  H     0.85093   0.57885   0.56480   0.00000  Uiso   1.00
H2545  H     0.83902   0.53190   0.57581   0.00000  Uiso   1.00
C2546  C     0.88983   0.53817   0.54569   0.00000  Uiso   1.00
H2547  H     0.89099   0.50778   0.54353   0.00000  Uiso   1.00
H2548  H     0.90768   0.54662   0.57005   0.00000  Uiso   1.00
H2549  H     0.90063   0.55068   0.51883   0.00000  Uiso   1.00
O2550  O     0.78402   0.93836   0.47631   0.00000  Uiso   1.00
C2551  C     0.82022   0.94373   0.49021   0.00000  Uiso   1.00
H2552  H     0.82762   0.91905   0.50737   0.00000  Uiso   1.00
H2553  H     0.82165   0.96684   0.51060   0.00000  Uiso   1.00
C2554  C     0.84877   0.94732   0.45778   0.00000  Uiso   1.00
H2555  H     0.85159   0.92033   0.44319   0.00000  Uiso   1.00
H2556  H     0.83995   0.96808   0.43624   0.00000  Uiso   1.00
C2557  C     0.88618   0.95923   0.47306   0.00000  Uiso   1.00
H2558  H     0.88528   0.98868   0.48092   0.00000  Uiso   1.00
H2559  H     0.90724   0.95595   0.45024   0.00000  Uiso   1.00
H2560  H     0.89424   0.94255   0.49850   0.00000  Uiso   1.00
O2561  O     0.66449   0.88992   0.18272   0.00000  Uiso   1.00
C2562  C     0.64347   0.90854   0.15456   0.00000  Uiso   1.00
H2563  H     0.63412   0.93570   0.16558   0.00000  Uiso   1.00
H2564  H     0.61902   0.89224   0.14579   0.00000  Uiso   1.00
C2565  C     0.66744   0.91478   0.11902   0.00000  Uiso   1.00
H2566  H     0.68945   0.93488   0.12602   0.00000  Uiso   1.00
H2567  H     0.68065   0.88848   0.11057   0.00000  Uiso   1.00
C2568  C     0.64488   0.92898   0.08505   0.00000  Uiso   1.00
H2569  H     0.62607   0.90713   0.07450   0.00000  Uiso   1.00
H2570  H     0.66360   0.93712   0.06131   0.00000  Uiso   1.00
H2571  H     0.62834   0.95325   0.09357   0.00000  Uiso   1.00
O2572  O     0.83281   0.61300   0.81582   0.00000  Uiso   1.00
C2573  C     0.80202   0.63659   0.81312   0.00000  Uiso   1.00
H2574  H     0.78524   0.63008   0.78715   0.00000  Uiso   1.00
H2575  H     0.81098   0.66575   0.81155   0.00000  Uiso   1.00
C2576  C     0.77782   0.63170   0.84867   0.00000  Uiso   1.00
H2577  H     0.76685   0.60320   0.84936   0.00000  Uiso   1.00
H2578  H     0.79452   0.63635   0.87503   0.00000  Uiso   1.00
C2579  C     0.74563   0.65857   0.84838   0.00000  Uiso   1.00
H2580  H     0.75582   0.68734   0.84914   0.00000  Uiso   1.00
H2581  H     0.72809   0.65374   0.87402   0.00000  Uiso   1.00
H2582  H     0.72873   0.65456   0.82210   0.00000  Uiso   1.00
O2583  O     0.60437   0.65860   0.18097   0.00000  Uiso   1.00
C2584  C     0.58475   0.63400   0.15693   0.00000  Uiso   1.00
H2585  H     0.55488   0.63983   0.15966   0.00000  Uiso   1.00
H2586  H     0.58896   0.60435   0.16415   0.00000  Uiso   1.00
C2587  C     0.59634   0.64021   0.11515   0.00000  Uiso   1.00
H2588  H     0.58872   0.66852   0.10609   0.00000  Uiso   1.00
H2589  H     0.62666   0.63728   0.11273   0.00000  Uiso   1.00
C2590  C     0.57799   0.61252   0.08834   0.00000  Uiso   1.00
H2591  H     0.58537   0.58402   0.09687   0.00000  Uiso   1.00
H2592  H     0.58753   0.61706   0.05843   0.00000  Uiso   1.00
H2593  H     0.54765   0.61574   0.08918   0.00000  Uiso   1.00
O2594  O     0.88122   0.82661   0.81190   0.00000  Uiso   1.00
C2595  C     0.85789   0.79616   0.80595   0.00000  Uiso   1.00
H2596  H     0.86670   0.78041   0.78010   0.00000  Uiso   1.00
H2597  H     0.82888   0.80516   0.80202   0.00000  Uiso   1.00
C2598  C     0.85996   0.77089   0.84104   0.00000  Uiso   1.00
H2599  H     0.88844   0.76019   0.84411   0.00000  Uiso   1.00
H2600  H     0.85290   0.78663   0.86739   0.00000  Uiso   1.00
C2601  C     0.83356   0.73859   0.83707   0.00000  Uiso   1.00
H2602  H     0.80468   0.74848   0.83634   0.00000  Uiso   1.00
H2603  H     0.83693   0.71966   0.86193   0.00000  Uiso   1.00
H2604  H     0.83953   0.72339   0.81015   0.00000  Uiso   1.00
O2605  O     0.83751   0.60848   0.18198   0.00000  Uiso   1.00
C2606  C     0.86030   0.58956   0.15572   0.00000  Uiso   1.00
H2607  H     0.86811   0.56218   0.16758   0.00000  Uiso   1.00
H2608  H     0.88581   0.60524   0.14923   0.00000  Uiso   1.00
C2609  C     0.83930   0.58394   0.11806   0.00000  Uiso   1.00
H2610  H     0.81629   0.56437   0.12291   0.00000  Uiso   1.00
H2611  H     0.82756   0.61057   0.10830   0.00000  Uiso   1.00
C2612  C     0.86447   0.56917   0.08656   0.00000  Uiso   1.00
H2613  H     0.88484   0.59045   0.07813   0.00000  Uiso   1.00
H2614  H     0.84791   0.56172   0.06092   0.00000  Uiso   1.00
H2615  H     0.87937   0.54436   0.09670   0.00000  Uiso   1.00
O2616  O     0.67217   0.88128   0.81306   0.00000  Uiso   1.00
C2617  C     0.70105   0.85569   0.80852   0.00000  Uiso   1.00
H2618  H     0.72022   0.86539   0.78570   0.00000  Uiso   1.00
H2619  H     0.69061   0.82788   0.80062   0.00000  Uiso   1.00
C2620  C     0.72207   0.85232   0.84643   0.00000  Uiso   1.00
H2621  H     0.73448   0.87931   0.85373   0.00000  Uiso   1.00
H2622  H     0.70276   0.84440   0.86979   0.00000  Uiso   1.00
C2623  C     0.75248   0.82359   0.84379   0.00000  Uiso   1.00
H2624  H     0.74063   0.79602   0.83803   0.00000  Uiso   1.00
H2625  H     0.76794   0.82247   0.87133   0.00000  Uiso   1.00
H2626  H     0.77176   0.83088   0.82031   0.00000  Uiso   1.00
O2627  O     0.89410   0.83978   0.18106   0.00000  Uiso   1.00
C2628  C     0.91124   0.86338   0.15407   0.00000  Uiso   1.00
H2629  H     0.94151   0.86209   0.15828   0.00000  Uiso   1.00
H2630  H     0.90284   0.89274   0.15665   0.00000  Uiso   1.00
C2631  C     0.90188   0.85004   0.11350   0.00000  Uiso   1.00
H2632  H     0.91507   0.82290   0.10850   0.00000  Uiso   1.00
H2633  H     0.87162   0.84657   0.11084   0.00000  Uiso   1.00
C2634  C     0.91474   0.87716   0.08279   0.00000  Uiso   1.00
H2635  H     0.90090   0.90410   0.08660   0.00000  Uiso   1.00
H2636  H     0.90776   0.86637   0.05383   0.00000  Uiso   1.00
H2637  H     0.94492   0.88120   0.08455   0.00000  Uiso   1.00
O2638  O     0.61528   0.66860   0.81516   0.00000  Uiso   1.00
C2639  C     0.64157   0.69714   0.81245   0.00000  Uiso   1.00
H2640  H     0.63495   0.71554   0.78773   0.00000  Uiso   1.00
H2641  H     0.66983   0.68590   0.80861   0.00000  Uiso   1.00
C2642  C     0.64108   0.71981   0.84937   0.00000  Uiso   1.00
H2643  H     0.61384   0.73325   0.85244   0.00000  Uiso   1.00
H2644  H     0.64562   0.70142   0.87452   0.00000  Uiso   1.00
C2645  C     0.67091   0.74931   0.84891   0.00000  Uiso   1.00
H2646  H     0.69852   0.73649   0.84654   0.00000  Uiso   1.00
H2647  H     0.66987   0.76538   0.87599   0.00000  Uiso   1.00
H2648  H     0.66661   0.76829   0.82427   0.00000  Uiso   1.00
O2649  O     0.66629   0.61155   0.81610   0.00000  Uiso   1.00
C2650  C     0.64627   0.59028   0.84279   0.00000  Uiso   1.00
H2651  H     0.63394   0.56559   0.82880   0.00000  Uiso   1.00
H2652  H     0.62391   0.60694   0.85593   0.00000  Uiso   1.00
C2653  C     0.67239   0.57756   0.87457   0.00000  Uiso   1.00
H2654  H     0.69763   0.56579   0.86156   0.00000  Uiso   1.00
H2655  H     0.68057   0.60147   0.89249   0.00000  Uiso   1.00
C2656  C     0.65436   0.54853   0.89993   0.00000  Uiso   1.00
H2657  H     0.62909   0.55979   0.91336   0.00000  Uiso   1.00
H2658  H     0.67384   0.53996   0.92279   0.00000  Uiso   1.00
H2659  H     0.64701   0.52399   0.88262   0.00000  Uiso   1.00
O2660  O     0.83843   0.89338   0.18141   0.00000  Uiso   1.00
C2661  C     0.80918   0.86844   0.17587   0.00000  Uiso   1.00
H2662  H     0.78941   0.86983   0.20031   0.00000  Uiso   1.00
H2663  H     0.81974   0.83981   0.17311   0.00000  Uiso   1.00
C2664  C     0.78894   0.87870   0.13882   0.00000  Uiso   1.00
H2665  H     0.77775   0.90702   0.14136   0.00000  Uiso   1.00
H2666  H     0.80860   0.87810   0.11441   0.00000  Uiso   1.00
C2667  C     0.75742   0.85223   0.13044   0.00000  Uiso   1.00
H2668  H     0.76793   0.82369   0.12777   0.00000  Uiso   1.00
H2669  H     0.74400   0.86009   0.10291   0.00000  Uiso   1.00
H2670  H     0.73665   0.85336   0.15381   0.00000  Uiso   1.00
O2671  O     0.61762   0.82752   0.81235   0.00000  Uiso   1.00
C2672  C     0.59798   0.84387   0.84277   0.00000  Uiso   1.00
H2673  H     0.57267   0.85807   0.83226   0.00000  Uiso   1.00
H2674  H     0.61569   0.86406   0.85809   0.00000  Uiso   1.00
C2675  C     0.58664   0.81368   0.87087   0.00000  Uiso   1.00
H2676  H     0.57214   0.79153   0.85497   0.00000  Uiso   1.00
H2677  H     0.61154   0.80168   0.88453   0.00000  Uiso   1.00
C2678  C     0.56135   0.82842   0.90204   0.00000  Uiso   1.00
H2679  H     0.57588   0.84944   0.91950   0.00000  Uiso   1.00
H2680  H     0.55295   0.80536   0.92089   0.00000  Uiso   1.00
H2681  H     0.53624   0.84069   0.88912   0.00000  Uiso   1.00
O2682  O     0.89092   0.66410   0.18270   0.00000  Uiso   1.00
C2683  C     0.86748   0.69493   0.18035   0.00000  Uiso   1.00
H2684  H     0.86877   0.71167   0.20717   0.00000  Uiso   1.00
H2685  H     0.83860   0.68590   0.17533   0.00000  Uiso   1.00
C2686  C     0.87978   0.71903   0.14665   0.00000  Uiso   1.00
H2687  H     0.90883   0.72758   0.15111   0.00000  Uiso   1.00
H2688  H     0.87819   0.70296   0.11953   0.00000  Uiso   1.00
C2689  C     0.85586   0.75331   0.14281   0.00000  Uiso   1.00
H2690  H     0.82670   0.74549   0.13793   0.00000  Uiso   1.00
H2691  H     0.86537   0.76997   0.11794   0.00000  Uiso   1.00
H2692  H     0.85785   0.77031   0.16923   0.00000  Uiso   1.00
O2693  O     0.82641   0.88023   0.81139   0.00000  Uiso   1.00
C2694  C     0.84259   0.89942   0.84230   0.00000  Uiso   1.00
H2695  H     0.85699   0.92482   0.83237   0.00000  Uiso   1.00
H2696  H     0.86259   0.88142   0.85760   0.00000  Uiso   1.00
C2697  C     0.81230   0.91052   0.87024   0.00000  Uiso   1.00
H2698  H     0.79065   0.92598   0.85446   0.00000  Uiso   1.00
H2699  H     0.79964   0.88550   0.88295   0.00000  Uiso   1.00
C2700  C     0.82736   0.93451   0.90239   0.00000  Uiso   1.00
H2701  H     0.84781   0.91895   0.91969   0.00000  Uiso   1.00
H2702  H     0.80435   0.94299   0.92114   0.00000  Uiso   1.00
H2703  H     0.84046   0.95961   0.89042   0.00000  Uiso   1.00
O2704  O     0.66069   0.60645   0.18164   0.00000  Uiso   1.00
C2705  C     0.69067   0.63060   0.17638   0.00000  Uiso   1.00
H2706  H     0.70897   0.63081   0.20217   0.00000  Uiso   1.00
H2707  H     0.68055   0.65900   0.17070   0.00000  Uiso   1.00
C2708  C     0.71317   0.61772   0.14184   0.00000  Uiso   1.00
H2709  H     0.72326   0.58933   0.14720   0.00000  Uiso   1.00
H2710  H     0.69543   0.61740   0.11577   0.00000  Uiso   1.00
C2711  C     0.74607   0.64279   0.13453   0.00000  Uiso   1.00
H2712  H     0.73673   0.67140   0.12911   0.00000  Uiso   1.00
H2713  H     0.76126   0.63299   0.10884   0.00000  Uiso   1.00
H2714  H     0.76499   0.64243   0.15965   0.00000  Uiso   1.00
O2715  O     0.88826   0.66591   0.81604   0.00000  Uiso   1.00
C2716  C     0.90902   0.64635   0.84358   0.00000  Uiso   1.00
H2717  H     0.93465   0.63501   0.83062   0.00000  Uiso   1.00
H2718  H     0.89258   0.62338   0.85594   0.00000  Uiso   1.00
C2719  C     0.91957   0.67263   0.87599   0.00000  Uiso   1.00
H2720  H     0.93311   0.69736   0.86367   0.00000  Uiso   1.00
H2721  H     0.89437   0.68166   0.89137   0.00000  Uiso   1.00
C2722  C     0.94570   0.65437   0.90449   0.00000  Uiso   1.00
H2723  H     0.93243   0.62989   0.91760   0.00000  Uiso   1.00
H2724  H     0.95294   0.67415   0.92751   0.00000  Uiso   1.00
H2725  H     0.97138   0.64579   0.88979   0.00000  Uiso   1.00
O2726  O     0.60876   0.83630   0.18251   0.00000  Uiso   1.00
C2727  C     0.63124   0.80477   0.18034   0.00000  Uiso   1.00
H2728  H     0.62971   0.78818   0.20732   0.00000  Uiso   1.00
H2729  H     0.66032   0.81293   0.17505   0.00000  Uiso   1.00
C2730  C     0.61790   0.78093   0.14693   0.00000  Uiso   1.00
H2731  H     0.58853   0.77363   0.15147   0.00000  Uiso   1.00
H2732  H     0.62009   0.79672   0.11960   0.00000  Uiso   1.00
C2733  C     0.64037   0.74566   0.14356   0.00000  Uiso   1.00
H2734  H     0.66973   0.75224   0.13812   0.00000  Uiso   1.00
H2735  H     0.62979   0.72897   0.11924   0.00000  Uiso   1.00
H2736  H     0.63812   0.72918   0.17039   0.00000  Uiso   1.00
O2737  O     0.91051   0.64296   0.68125   0.00000  Uiso   1.00
C2738  C     0.88686   0.66504   0.65836   0.00000  Uiso   1.00
H2739  H     0.89894   0.69302   0.65627   0.00000  Uiso   1.00
H2740  H     0.85847   0.66833   0.67025   0.00000  Uiso   1.00
C2741  C     0.88415   0.64894   0.61783   0.00000  Uiso   1.00
H2742  H     0.91150   0.65028   0.60367   0.00000  Uiso   1.00
H2743  H     0.87567   0.61970   0.61944   0.00000  Uiso   1.00
C2744  C     0.85601   0.66977   0.59356   0.00000  Uiso   1.00
H2745  H     0.82874   0.66972   0.60790   0.00000  Uiso   1.00
H2746  H     0.85286   0.65614   0.56525   0.00000  Uiso   1.00
H2747  H     0.86513   0.69859   0.58901   0.00000  Uiso   1.00
O2748  O     0.58546   0.86009   0.31702   0.00000  Uiso   1.00
C2749  C     0.55435   0.88331   0.31798   0.00000  Uiso   1.00
H2750  H     0.53856   0.88208   0.29046   0.00000  Uiso   1.00
H2751  H     0.56306   0.91220   0.32334   0.00000  Uiso   1.00
C2752  C     0.52900   0.87086   0.35055   0.00000  Uiso   1.00
H2753  H     0.52104   0.84169   0.34593   0.00000  Uiso   1.00
H2754  H     0.54386   0.87284   0.37843   0.00000  Uiso   1.00
C2755  C     0.99422   0.89425   0.35242   0.00000  Uiso   1.00
H2756  H     0.50137   0.92346   0.35788   0.00000  Uiso   1.00
H2757  H     0.97640   0.88428   0.37615   0.00000  Uiso   1.00
H2758  H     0.97862   0.89224   0.32500   0.00000  Uiso   1.00
O2759  O     0.87016   0.92519   0.68924   0.00000  Uiso   1.00
C2760  C     0.85202   0.91015   0.65703   0.00000  Uiso   1.00
H2761  H     0.82588   0.89620   0.66541   0.00000  Uiso   1.00
H2762  H     0.87020   0.89008   0.64223   0.00000  Uiso   1.00
C2763  C     0.84283   0.94135   0.62920   0.00000  Uiso   1.00
H2764  H     0.82563   0.96212   0.64414   0.00000  Uiso   1.00
H2765  H     0.86862   0.95489   0.61962   0.00000  Uiso   1.00
C2766  C     0.82221   0.92728   0.59407   0.00000  Uiso   1.00
H2767  H     0.83984   0.90815   0.57744   0.00000  Uiso   1.00
H2768  H     0.81465   0.95094   0.57556   0.00000  Uiso   1.00
H2769  H     0.79667   0.91285   0.60286   0.00000  Uiso   1.00
O2770  O     0.64104   0.58628   0.31750   0.00000  Uiso   1.00
C2771  C     0.61562   0.55700   0.31993   0.00000  Uiso   1.00
H2772  H     0.61670   0.53955   0.29362   0.00000  Uiso   1.00
H2773  H     0.58719   0.56782   0.32362   0.00000  Uiso   1.00
C2774  C     0.62520   0.53304   0.35469   0.00000  Uiso   1.00
H2775  H     0.65357   0.52214   0.35140   0.00000  Uiso   1.00
H2776  H     0.62414   0.54998   0.38125   0.00000  Uiso   1.00
C2777  C     0.59857   0.50084   0.35877   0.00000  Uiso   1.00
H2778  H     0.56996   0.51101   0.36206   0.00000  Uiso   1.00
H2779  H     0.60588   0.98447   0.38467   0.00000  Uiso   1.00
H2780  H     0.60017   0.98274   0.33313   0.00000  Uiso   1.00
O2781  O     0.57997   0.86645   0.68562   0.00000  Uiso   1.00
C2782  C     0.59890   0.84742   0.65639   0.00000  Uiso   1.00
H2783  H     0.61352   0.82278   0.66800   0.00000  Uiso   1.00
H2784  H     0.61917   0.86588   0.64219   0.00000  Uiso   1.00
C2785  C     0.57115   0.83454   0.62639   0.00000  Uiso   1.00
H2786  H     0.54996   0.81724   0.64056   0.00000  Uiso   1.00
H2787  H     0.55722   0.85868   0.61323   0.00000  Uiso   1.00
C2788  C     0.58989   0.81237   0.59492   0.00000  Uiso   1.00
H2789  H     0.60856   0.83028   0.57794   0.00000  Uiso   1.00
H2790  H     0.56866   0.80067   0.57566   0.00000  Uiso   1.00
H2791  H     0.60598   0.78940   0.60755   0.00000  Uiso   1.00
O2792  O     0.91500   0.63954   0.31698   0.00000  Uiso   1.00
C2793  C     0.94552   0.61557   0.31795   0.00000  Uiso   1.00
H2794  H     0.96161   0.61714   0.29068   0.00000  Uiso   1.00
H2795  H     0.93614   0.58675   0.32258   0.00000  Uiso   1.00
C2796  C     0.97074   0.62666   0.35116   0.00000  Uiso   1.00
H2797  H     0.97974   0.65562   0.34710   0.00000  Uiso   1.00
H2798  H     0.95537   0.62474   0.37872   0.00000  Uiso   1.00
C2799  C     0.50463   0.60202   0.35335   0.00000  Uiso   1.00
H2800  H     0.99637   0.57292   0.35773   0.00000  Uiso   1.00
H2801  H     0.52213   0.61060   0.37793   0.00000  Uiso   1.00
H2802  H     0.52096   0.60434   0.32648   0.00000  Uiso   1.00
O2803  O     0.64237   0.58929   0.68141   0.00000  Uiso   1.00
C2804  C     0.66372   0.61309   0.65801   0.00000  Uiso   1.00
H2805  H     0.69203   0.60176   0.65612   0.00000  Uiso   1.00
H2806  H     0.66627   0.64177   0.66926   0.00000  Uiso   1.00
C2807  C     0.64732   0.61459   0.61750   0.00000  Uiso   1.00
H2808  H     0.64970   0.58714   0.60377   0.00000  Uiso   1.00
H2809  H     0.61773   0.62183   0.61913   0.00000  Uiso   1.00
C2810  C     0.66690   0.64320   0.59273   0.00000  Uiso   1.00
H2811  H     0.66569   0.67066   0.60655   0.00000  Uiso   1.00
H2812  H     0.65315   0.64526   0.56432   0.00000  Uiso   1.00
H2813  H     0.69610   0.63529   0.58845   0.00000  Uiso   1.00
O2814  O     0.85808   0.91178   0.31758   0.00000  Uiso   1.00
C2815  C     0.88245   0.94194   0.32007   0.00000  Uiso   1.00
H2816  H     0.87868   0.96089   0.29512   0.00000  Uiso   1.00
H2817  H     0.91155   0.93230   0.32094   0.00000  Uiso   1.00
C2818  C     0.87453   0.96316   0.35695   0.00000  Uiso   1.00
H2819  H     0.84542   0.97247   0.35696   0.00000  Uiso   1.00
H2820  H     0.87895   0.94464   0.38191   0.00000  Uiso   1.00
C2821  C     0.89964   0.99652   0.36103   0.00000  Uiso   1.00
H2822  H     0.92892   0.98787   0.36113   0.00000  Uiso   1.00
H2823  H     0.89367   0.51065   0.38859   0.00000  Uiso   1.00
H2824  H     0.89490   0.51612   0.33698   0.00000  Uiso   1.00
O2825  O     0.90744   0.85338   0.31878   0.00000  Uiso   1.00
C2826  C     0.88216   0.83315   0.34153   0.00000  Uiso   1.00
H2827  H     0.89025   0.80371   0.34098   0.00000  Uiso   1.00
H2828  H     0.85299   0.83477   0.33143   0.00000  Uiso   1.00
C2829  C     0.88396   0.84686   0.38299   0.00000  Uiso   1.00
H2830  H     0.91193   0.84178   0.39472   0.00000  Uiso   1.00
H2831  H     0.87865   0.87688   0.38358   0.00000  Uiso   1.00
C2832  C     0.85553   0.82761   0.40826   0.00000  Uiso   1.00
H2833  H     0.82748   0.83137   0.39622   0.00000  Uiso   1.00
H2834  H     0.85600   0.83967   0.43755   0.00000  Uiso   1.00
H2835  H     0.86178   0.79779   0.41034   0.00000  Uiso   1.00
O2836  O     0.58461   0.63954   0.68333   0.00000  Uiso   1.00
C2837  C     0.55413   0.61552   0.68220   0.00000  Uiso   1.00
H2838  H     0.53696   0.61848   0.70857   0.00000  Uiso   1.00
H2839  H     0.56351   0.58650   0.67964   0.00000  Uiso   1.00
C2840  C     0.53047   0.62499   0.64720   0.00000  Uiso   1.00
H2841  H     0.52153   0.65413   0.64908   0.00000  Uiso   1.00
H2842  H     0.54691   0.62136   0.62057   0.00000  Uiso   1.00
C2843  C     0.99641   0.60072   0.64497   0.00000  Uiso   1.00
H2844  H     0.50437   0.57131   0.64311   0.00000  Uiso   1.00
H2845  H     0.98011   0.60807   0.61903   0.00000  Uiso   1.00
H2846  H     0.97912   0.60509   0.67081   0.00000  Uiso   1.00
O2847  O     0.85969   0.58571   0.31719   0.00000  Uiso   1.00
C2848  C     0.84084   0.60711   0.34468   0.00000  Uiso   1.00
H2849  H     0.81464   0.61798   0.33249   0.00000  Uiso   1.00
H2850  H     0.85805   0.63051   0.35463   0.00000  Uiso   1.00
C2851  C     0.83188   0.58292   0.37944   0.00000  Uiso   1.00
H2852  H     0.81272   0.56072   0.37054   0.00000  Uiso   1.00
H2853  H     0.85752   0.57000   0.39042   0.00000  Uiso   1.00
C2854  C     0.81444   0.60516   0.41179   0.00000  Uiso   1.00
H2855  H     0.83459   0.62515   0.42357   0.00000  Uiso   1.00
H2856  H     0.80569   0.58636   0.43524   0.00000  Uiso   1.00
H2857  H     0.78996   0.62027   0.40108   0.00000  Uiso   1.00
O2858  O     0.63504   0.92027   0.68571   0.00000  Uiso   1.00
C2859  C     0.61304   0.95203   0.68899   0.00000  Uiso   1.00
H2860  H     0.61897   0.96700   0.71625   0.00000  Uiso   1.00
H2861  H     0.58344   0.94449   0.68819   0.00000  Uiso   1.00
C2862  C     0.62130   0.97768   0.65522   0.00000  Uiso   1.00
H2863  H     0.65066   0.98614   0.65635   0.00000  Uiso   1.00
H2864  H     0.61645   0.96293   0.62769   0.00000  Uiso   1.00
C2865  C     0.59708   0.51190   0.65636   0.00000  Uiso   1.00
H2866  H     0.56766   0.50418   0.65340   0.00000  Uiso   1.00
H2867  H     0.60453   0.53056   0.63228   0.00000  Uiso   1.00
H2868  H     0.60108   0.52672   0.68394   0.00000  Uiso   1.00
O2869  O     0.58965   0.64374   0.31853   0.00000  Uiso   1.00
C2870  C     0.61346   0.66277   0.34372   0.00000  Uiso   1.00
H2871  H     0.62390   0.68839   0.32987   0.00000  Uiso   1.00
H2872  H     0.63723   0.64536   0.35233   0.00000  Uiso   1.00
C2873  C     0.59226   0.67319   0.38002   0.00000  Uiso   1.00
H2874  H     0.56996   0.69275   0.37238   0.00000  Uiso   1.00
H2875  H     0.57954   0.64820   0.39276   0.00000  Uiso   1.00
C2876  C     0.61751   0.69074   0.40990   0.00000  Uiso   1.00
H2877  H     0.63764   0.67022   0.42078   0.00000  Uiso   1.00
H2878  H     0.60091   0.70089   0.43443   0.00000  Uiso   1.00
H2879  H     0.63262   0.71432   0.39718   0.00000  Uiso   1.00
O2880  O     0.92370   0.86965   0.68800   0.00000  Uiso   1.00
C2881  C     0.95242   0.89526   0.69318   0.00000  Uiso   1.00
H2882  H     0.96757   0.88956   0.72047   0.00000  Uiso   1.00
H2883  H     0.94151   0.92386   0.69388   0.00000  Uiso   1.00
C2884  C     0.97930   0.89212   0.65965   0.00000  Uiso   1.00
H2885  H     0.99187   0.86426   0.65972   0.00000  Uiso   1.00
H2886  H     0.96429   0.89599   0.63205   0.00000  Uiso   1.00
C2887  C     0.50958   0.92096   0.66268   0.00000  Uiso   1.00
H2888  H     0.99772   0.94903   0.66061   0.00000  Uiso   1.00
H2889  H     0.52960   0.91730   0.63893   0.00000  Uiso   1.00
H2890  H     0.52417   0.91805   0.69058   0.00000  Uiso   1.00
O2891  O     0.64101   0.91337   0.31736   0.00000  Uiso   1.00
C2892  C     0.65811   0.89099   0.34559   0.00000  Uiso   1.00
H2893  H     0.68818   0.89644   0.34513   0.00000  Uiso   1.00
H2894  H     0.65413   0.86085   0.34115   0.00000  Uiso   1.00
C2895  C     0.64297   0.90121   0.38518   0.00000  Uiso   1.00
H2896  H     0.64991   0.93030   0.39164   0.00000  Uiso   1.00
H2897  H     0.61255   0.89836   0.38501   0.00000  Uiso   1.00
C2898  C     0.65876   0.87658   0.41671   0.00000  Uiso   1.00
H2899  H     0.65235   0.84730   0.41073   0.00000  Uiso   1.00
H2900  H     0.64630   0.88399   0.44477   0.00000  Uiso   1.00
H2901  H     0.68904   0.88018   0.41863   0.00000  Uiso   1.00
O2902  O     0.85910   0.58675   0.68195   0.00000  Uiso   1.00
C2903  C     0.87450   0.55099   0.68171   0.00000  Uiso   1.00
H2904  H     0.85848   0.53439   0.66076   0.00000  Uiso   1.00
H2905  H     0.87228   0.53660   0.70992   0.00000  Uiso   1.00
C2906  C     0.91473   0.55195   0.66882   0.00000  Uiso   1.00
H2907  H     0.91726   0.56837   0.64196   0.00000  Uiso   1.00
H2908  H     0.93154   0.56509   0.69164   0.00000  Uiso   1.00
C2909  C     0.92956   0.51335   0.66163   0.00000  Uiso   1.00
H2910  H     0.92658   0.99609   0.68784   0.00000  Uiso   1.00
H2911  H     0.95915   0.51493   0.65400   0.00000  Uiso   1.00
H2912  H     0.91455   0.50033   0.63742   0.00000  Uiso   1.00
I2913  I     0.66798   0.52822   0.10648   0.00000  Uiso   1.00
I2914  I     0.82062   0.54897   0.89247   0.00000  Uiso   1.00
I2915  I     0.97278   0.66658   0.10763   0.00000  Uiso   1.00
I2916  I     0.94429   0.81766   0.88727   0.00000  Uiso   1.00
I2917  I     0.83355   0.97231   0.10879   0.00000  Uiso   1.00
I2918  I     0.68463   0.94308   0.88869   0.00000  Uiso   1.00
I2919  I     0.51495   0.83642   0.10691   0.00000  Uiso   1.00
I2920  I     0.55354   0.68454   0.89358   0.00000  Uiso   1.00
I2921  I     0.93040   0.80074   0.60874   0.00000  Uiso   1.00
I2922  I     0.58041   0.78554   0.39066   0.00000  Uiso   1.00
I2923  I     0.70892   0.92422   0.60709   0.00000  Uiso   1.00
I2924  I     0.71337   0.57767   0.39375   0.00000  Uiso   1.00
I2925  I     0.57636   0.70770   0.60887   0.00000  Uiso   1.00
I2926  I     0.92086   0.71505   0.39318   0.00000  Uiso   1.00
I2927  I     0.77725   0.58371   0.60779   0.00000  Uiso   1.00
I2928  I     0.78032   0.91697   0.39138   0.00000  Uiso   1.00
loop_
_geom_bond_atom_site_label_1
_geom_bond_atom_site_label_2
_geom_bond_distance
_geom_bond_site_symmetry_2
_ccdc_geom_bond_type
C1     C17     1.399   .     A
C1     O189    1.386   .     S
C1     C1497   1.408   1_545 S
C2     C18     1.401   .     A
C2     O200    1.390   .     S
C2     C1498   1.414   1_545 S
C3     C19     1.399   .     A
C3     O211    1.387   .     S
C3     C35     1.408   .     A
C4     C20     1.402   .     A
C4     O222    1.391   .     S
C4     C36     1.414   .     A
C5     C21     1.402   .     A
C5     C33     1.414   .     A
C5     O233    1.391   .     S
C6     O244    1.388   .     S
C6     C22     1.399   .     A
C6     C34     1.411   .     A
C7     C23     1.401   .     A
C7     O255    1.390   .     S
C7     C767    1.413   1_455 S
C8     O266    1.387   .     S
C8     C24     1.398   .     A
C8     C768    1.412   1_455 S
C9     O277    1.386   .     S
C9     C25     1.397   .     A
C9     C769    1.413   .     S
C10    O288    1.391   .     S
C10    C38     1.414   .     A
C10    C26     1.402   .     A
C11    C27     1.402   .     A
C11    O299    1.391   .     S
C11    C39     1.419   .     A
C12    C40     1.412   .     A
C12    O310    1.387   .     S
C12    C28     1.399   .     A
C13    C29     1.401   .     A
C13    O321    1.391   .     S
C13    C37     1.412   .     A
C14    O332    1.385   .     S
C14    C30     1.397   .     A
C14    C770    1.408   .     S
C15    C31     1.399   .     A
C15    O343    1.390   .     S
C15    C1503   1.414   1_545 S
C16    C32     1.402   .     A
C16    O354    1.390   .     S
C16    C1504   1.413   .     S
C17    I717    2.156   .     S
C17    C1577   1.421   1_545 S
C18    I718    2.142   .     S
C18    C1578   1.417   1_545 S
C19    I719    2.153   .     S
C19    C115    1.423   .     A
C20    I720    2.143   .     S
C20    C116    1.418   .     A
C21    C113    1.425   .     A
C21    I721    2.157   .     S
C22    I722    2.141   .     S
C22    C114    1.414   .     A
C23    I723    2.158   .     S
C23    C847    1.426   1_455 S
C24    I724    2.139   .     S
C24    C848    1.412   1_455 S
C25    I725    2.145   .     S
C25    C849    1.415   .     S
C26    C118    1.424   .     A
C26    I726    2.155   .     S
C27    I727    2.150   .     S
C27    C1583   1.419   .     S
C28    I728    2.151   .     S
C28    C1584   1.418   1_545 S
C29    I729    2.148   .     S
C29    C117    1.422   .     A
C30    I730    2.152   .     S
C30    C850    1.419   .     S
C31    C119    1.420   .     A
C31    I731    2.156   .     S
C32    I732    2.156   .     S
C32    C120    1.424   .     A
C33    C1465   1.408   .     S
C33    C34     1.475   1_554 S
C34    C33     1.475   1_556 S
C34    C1466   1.414   .     S
C35    C739    1.413   .     S
C35    C36     1.475   1_554 S
C36    C35     1.475   1_556 S
C36    C740    1.412   .     S
C37    C38     1.474   .     S
C37    C741    1.413   1_455 S
C38    C746    1.408   1_455 S
C39    C1479   1.414   .     S
C39    C1504   1.478   .     S
C40    C1480   1.413   1_545 S
C40    C1503   1.478   1_545 S
C41    O125    1.277   .     A
C41    C120    1.479   .     S
C41    O1593   1.283   .     S
C42    C119    1.478   .     S
C42    O126    1.276   .     A
C42    O1594   1.284   1_545 S
C43    O127    1.277   .     A
C43    C118    1.476   .     S
C43    O863    1.281   1_455 S
C44    O132    1.274   .     A
C44    C117    1.474   .     S
C44    O860    1.283   1_455 S
C45    O865    1.279   .     A
C45    C116    1.472   .     S
C45    O869    1.276   .     S
C46    O866    1.278   .     A
C46    C115    1.482   .     S
C46    O870    1.283   .     A
C47    C114    1.472   .     S
C47    O1599   1.276   .     A
C47    O1603   1.279   .     A
C48    O1604   1.279   .     A
C48    O1600   1.281   .     A
C48    C113    1.480   .     S
C49    C99     1.441   .     S
C49    O141    1.275   .     A
C49    O167    1.274   .     A
C50    C100    1.445   .     S
C50    O168    1.276   .     A
C50    O142    1.275   .     A
C51    O143    1.275   .     A
C51    O165    1.275   .     A
C51    C101    1.441   .     S
C52    O144    1.276   .     A
C52    C102    1.446   .     S
C52    O166    1.277   .     A
C53    C103    1.441   .     S
C53    O171    1.273   .     A
C53    O145    1.275   .     A
C54    O172    1.277   .     A
C54    O146    1.274   .     A
C54    C104    1.445   .     S
C55    C97     1.441   .     S
C55    O169    1.272   .     A
C55    O147    1.274   .     A
C56    O170    1.276   .     A
C56    C98     1.447   .     S
C56    O148    1.273   .     A
C57    O159    1.276   .     A
C57    O149    1.274   .     A
C57    C107    1.440   .     S
C58    O150    1.277   .     A
C58    O160    1.276   .     A
C58    C108    1.447   .     S
C59    C109    1.442   .     S
C59    O157    1.275   .     A
C59    O151    1.274   .     A
C60    O152    1.276   .     A
C60    C110    1.446   .     S
C60    O158    1.275   .     A
C61    O153    1.272   .     A
C61    C111    1.439   .     S
C61    O163    1.272   .     A
C62    O164    1.274   .     A
C62    C112    1.446   .     S
C62    O154    1.275   .     A
C63    O161    1.274   .     A
C63    C105    1.441   .     S
C63    O155    1.273   .     A
C64    C106    1.445   .     S
C64    O156    1.275   .     A
C64    O162    1.275   .     A
C65    O365    1.387   .     S
C65    C112    1.408   .     A
C65    C80     1.401   .     A
C66    C79     1.398   .     A
C66    O376    1.385   .     S
C66    C111    1.403   .     A
C67    O387    1.386   .     S
C67    C110    1.407   .     A
C67    C78     1.399   .     A
C68    C77     1.398   .     A
C68    O398    1.383   .     S
C68    C109    1.402   .     A
C69    C76     1.400   .     A
C69    C108    1.408   .     A
C69    O409    1.386   .     S
C70    C107    1.402   .     A
C70    O420    1.383   .     S
C70    C75     1.398   .     A
C71    O431    1.387   .     S
C71    C106    1.407   .     A
C71    C74     1.403   .     A
C72    C73     1.398   .     A
C72    O442    1.384   .     S
C72    C105    1.402   .     A
C73    O453    1.383   .     S
C73    C104    1.404   .     A
C74    O464    1.384   .     S
C74    C103    1.403   .     A
C75    O475    1.382   .     S
C75    C102    1.402   .     A
C76    O486    1.385   .     S
C76    C101    1.402   .     A
C77    C100    1.402   .     A
C77    O497    1.382   .     S
C78    C99     1.402   .     A
C78    O508    1.384   .     S
C79    C98     1.405   .     A
C79    O519    1.384   .     S
C80    O530    1.385   .     S
C80    C97     1.403   .     A
C81    C98     1.407   .     A
C81    O541    1.386   .     S
C81    C96     1.398   .     A
C82    O552    1.385   .     S
C82    C95     1.399   .     A
C82    C97     1.402   .     A
C83    C100    1.402   .     A
C83    O563    1.383   .     S
C83    C94     1.401   .     A
C84    C93     1.401   .     A
C84    C99     1.402   .     A
C84    O574    1.385   .     S
C85    C92     1.399   .     A
C85    C102    1.404   .     A
C85    O585    1.382   .     S
C86    C91     1.400   .     A
C86    O596    1.384   .     S
C86    C101    1.402   .     A
C87    O607    1.385   .     S
C87    C90     1.398   .     A
C87    C104    1.405   .     A
C88    O618    1.383   .     S
C88    C89     1.396   .     A
C88    C103    1.400   .     A
C89    C106    1.405   .     A
C89    O629    1.385   .     S
C90    C105    1.402   .     A
C90    O640    1.383   .     S
C91    O651    1.386   .     S
C91    C108    1.407   .     A
C92    C107    1.403   .     A
C92    O662    1.384   .     S
C93    C110    1.407   .     A
C93    O673    1.386   .     S
C94    C109    1.404   .     A
C94    O684    1.383   .     S
C95    C112    1.406   .     A
C95    O695    1.387   .     S
C96    C111    1.405   .     A
C96    O706    1.387   .     S
C113   C1481   1.421   .     S
C114   C1482   1.417   .     S
C115   C755    1.426   .     S
C116   C756    1.412   .     S
C117   C757    1.415   1_455 S
C118   C762    1.419   1_455 S
C119   C1491   1.419   1_545 S
C120   C1492   1.418   .     S
O121   Zn1652  1.938   1_545 S
O121   Zn173   1.938   .     S
O121   Zn177   1.941   .     S
O121   Zn184   1.942   .     S
O122   Zn187   1.938   .     S
O122   Zn174   1.938   .     S
O122   Zn178   1.941   .     S
O122   Zn1647  1.942   1_545 S
O123   Zn175   1.942   .     S
O123   Zn182   1.938   .     S
O123   Zn179   1.938   .     S
O123   Zn918   1.941   1_455 S
O124   Zn913   1.938   1_455 S
O124   Zn176   1.942   .     S
O124   Zn180   1.938   .     S
O124   Zn185   1.941   .     S
O125   Zn188   1.952   .     S
O126   Zn187   1.952   .     S
O127   Zn182   1.951   .     S
O128   Zn181   1.951   .     S
O128   C776    1.283   .     S
O129   Zn184   1.950   .     S
O129   C1505   1.283   1_545 S
O130   Zn183   1.950   .     S
O130   C1506   1.284   .     S
O131   Zn186   1.950   .     S
O131   C775    1.281   .     S
O132   Zn185   1.950   .     S
O133   C777    1.279   1_455 A
O133   Zn180   1.952   .     S
O134   C778    1.278   1_455 A
O134   Zn179   1.952   .     S
O135   C1511   1.276   1_545 A
O135   Zn174   1.951   .     S
O136   C1512   1.281   1_545 A
O136   Zn173   1.951   .     S
O137   Zn176   1.950   .     S
O137   C777    1.276   1_455 S
O138   C778    1.283   1_455 A
O138   Zn175   1.950   .     S
O139   C1511   1.279   1_545 A
O139   Zn178   1.950   .     S
O140   C1512   1.279   1_545 A
O140   Zn177   1.950   .     S
O141   Zn184   1.921   .     S
O142   Zn183   1.921   .     S
O143   Zn186   1.922   .     S
O144   Zn185   1.922   .     S
O145   Zn188   1.923   .     S
O146   Zn187   1.923   .     S
O147   Zn182   1.922   .     S
O148   Zn181   1.922   .     S
O149   Zn183   1.922   .     S
O150   Zn184   1.922   .     S
O151   Zn181   1.923   .     S
O152   Zn182   1.923   .     S
O153   Zn187   1.922   .     S
O154   Zn188   1.922   .     S
O155   Zn185   1.922   .     S
O156   Zn186   1.922   .     S
O157   Zn908   1.921   .     S
O158   Zn175   1.921   .     S
O159   Zn1642  1.922   .     S
O160   Zn177   1.922   .     S
O161   Zn180   1.923   .     S
O162   Zn911   1.923   .     S
O163   Zn174   1.922   .     S
O164   Zn1637  1.922   .     S
O165   Zn907   1.922   .     S
O166   Zn176   1.922   .     S
O167   Zn173   1.923   .     S
O168   Zn1638  1.923   .     S
O169   Zn179   1.922   .     S
O170   Zn912   1.922   .     S
O171   Zn1641  1.922   .     S
O172   Zn178   1.922   .     S
Zn173  O1628   1.922   1_545 S
Zn174  O1632   1.923   1_545 S
Zn175  O897    1.922   1_455 S
Zn176  O889    1.921   1_455 S
Zn177  O1635   1.922   1_545 S
Zn178  O1623   1.922   1_545 S
Zn179  O894    1.923   1_455 S
Zn180  O902    1.922   1_455 S
Zn181  O856    1.938   .     S
Zn183  O1586   1.942   .     S
Zn186  O855    1.941   .     S
Zn188  O1585   1.938   .     S
O189   C190    1.414   .     S
C190   C193    1.527   .     S
C190   H192    1.117   .     S
C190   H191    1.111   1_554 S
H191   C190    1.111   1_556 S
C193   H195    1.111   .     S
C193   H194    1.110   1_554 S
C193   C196    1.524   1_554 S
H194   C193    1.110   1_556 S
C196   H199    1.110   .     S
C196   H198    1.110   .     S
C196   C193    1.524   1_556 S
C196   H197    1.110   1_556 S
H197   C196    1.110   1_554 S
O200   C201    1.419   .     S
C201   C204    1.537   .     S
C201   H202    1.110   1_556 S
C201   H203    1.105   1_556 S
H202   C201    1.110   1_554 S
H203   C201    1.105   1_554 S
C204   H205    1.111   .     S
C204   C207    1.526   .     S
C204   H206    1.111   .     S
C207   H209    1.111   .     S
C207   H208    1.111   .     S
C207   H210    1.111   1_556 S
H210   C207    1.111   1_554 S
O211   C212    1.415   .     S
C212   C215    1.529   .     S
C212   H214    1.117   .     S
C212   H213    1.111   1_554 S
H213   C212    1.111   1_556 S
C215   H217    1.111   .     S
C215   H216    1.110   1_554 S
C215   C218    1.527   1_554 S
H216   C215    1.110   1_556 S
C218   H220    1.111   .     S
C218   H221    1.111   .     S
C218   C215    1.527   1_556 S
C218   H219    1.111   1_556 S
H219   C218    1.111   1_554 S
O222   C223    1.418   .     S
C223   C226    1.537   .     S
C223   H224    1.111   1_556 S
C223   H225    1.105   1_556 S
H224   C223    1.111   1_554 S
H225   C223    1.105   1_554 S
C226   H227    1.111   .     S
C226   H228    1.111   .     S
C226   C229    1.526   .     S
C229   H230    1.111   .     S
C229   H232    1.111   .     S
C229   H231    1.110   .     S
O233   C234    1.417   .     S
C234   C237    1.535   .     S
C234   H235    1.109   1_554 S
C234   H236    1.101   1_554 S
H235   C234    1.109   1_556 S
H236   C234    1.101   1_556 S
C237   C240    1.526   .     S
C237   H239    1.111   .     S
C237   H238    1.109   .     S
C240   H242    1.111   .     S
C240   H241    1.110   1_554 S
C240   H243    1.111   1_554 S
H241   C240    1.110   1_556 S
H243   C240    1.111   1_556 S
O244   C245    1.416   .     S
C245   C248    1.527   .     S
C245   H247    1.118   .     S
C245   H246    1.111   1_556 S
H246   C245    1.111   1_554 S
C248   H250    1.111   .     S
C248   C251    1.528   .     S
C248   H249    1.110   1_556 S
H249   C248    1.110   1_554 S
C251   H252    1.111   .     S
C251   H253    1.108   .     S
C251   H254    1.111   1_556 S
H254   C251    1.111   1_554 S
O255   C256    1.417   .     S
C256   C259    1.535   .     S
C256   H257    1.110   1_554 S
C256   H258    1.103   1_554 S
H257   C256    1.110   1_556 S
H258   C256    1.103   1_556 S
C259   H261    1.111   .     S
C259   H260    1.110   .     S
C259   C262    1.523   .     S
C262   H264    1.110   .     S
C262   H263    1.111   1_554 S
C262   H265    1.111   1_554 S
H263   C262    1.111   1_556 S
H265   C262    1.111   1_556 S
O266   C267    1.415   .     S
C267   H269    1.117   .     S
C267   H268    1.110   1_556 S
C267   C270    1.524   1_556 S
H268   C267    1.110   1_554 S
C270   C273    1.527   .     S
C270   H271    1.110   .     S
C270   C267    1.524   1_554 S
C270   H272    1.111   1_554 S
H272   C270    1.111   1_556 S
C273   H276    1.111   .     S
C273   H275    1.110   .     S
C273   H274    1.111   1_554 S
H274   C273    1.111   1_556 S
O277   C278    1.411   .     S
C278   H279    1.106   .     S
C278   C281    1.523   .     S
C278   H280    1.115   .     S
C281   C284    1.525   .     S
C281   H282    1.111   .     S
C281   H283    1.112   .     S
C284   H285    1.111   .     S
C284   H287    1.111   .     S
C284   H286    1.108   .     S
O288   C289    1.419   .     S
C289   H290    1.109   .     S
C289   C292    1.538   .     S
C289   H291    1.106   .     S
C292   H293    1.110   .     S
C292   H294    1.110   .     S
C292   C295    1.526   .     S
C295   H297    1.111   .     S
C295   H296    1.111   .     S
C295   H298    1.111   .     S
O299   C300    1.419   .     S
C300   H301    1.109   .     S
C300   C303    1.533   .     S
C300   H302    1.103   .     S
C303   H305    1.111   .     S
C303   H304    1.111   .     S
C303   C306    1.526   .     S
C306   H309    1.111   .     S
C306   H307    1.111   .     S
C306   H308    1.110   .     S
O310   C311    1.415   .     S
C311   H313    1.117   .     S
C311   H312    1.111   .     S
C311   C314    1.525   .     S
C314   H315    1.110   .     S
C314   H316    1.111   .     S
C314   C317    1.527   .     S
C317   H320    1.111   .     S
C317   H319    1.110   .     S
C317   H318    1.111   .     S
O321   C322    1.419   .     S
C322   H324    1.105   .     S
C322   C325    1.537   .     S
C322   H323    1.110   .     S
C325   H327    1.111   .     S
C325   H326    1.111   .     S
C325   C328    1.526   .     S
C328   H330    1.111   .     S
C328   H331    1.111   .     S
C328   H1061   1.111   1_455 S
H329   C1060   1.111   .     S
O332   C333    1.412   .     S
C333   H334    1.111   .     S
C333   C336    1.524   .     S
C333   H335    1.117   .     S
C336   C339    1.524   .     S
C336   H337    1.110   .     S
C336   H338    1.111   .     S
C339   H341    1.108   .     S
C339   H342    1.111   .     S
C339   H340    1.111   .     S
O343   C344    1.418   .     S
C344   C347    1.542   .     S
C344   H345    1.110   .     S
C344   H346    1.103   .     S
C347   C350    1.525   .     S
C347   H348    1.110   .     S
C347   H349    1.110   .     S
C350   H351    1.109   .     S
C350   H353    1.110   .     S
C350   H352    1.111   .     S
O354   C355    1.416   .     S
C355   H357    1.102   .     S
C355   H356    1.110   .     S
C355   C358    1.539   .     S
C358   C361    1.523   .     S
C358   H360    1.109   .     S
C358   H359    1.111   .     S
C361   H364    1.111   .     S
C361   H363    1.110   .     S
C361   H362    1.107   .     S
O365   C366    1.413   .     S
C366   C369    1.529   .     S
C366   H368    1.112   .     S
C366   H367    1.114   .     S
C369   C372    1.526   .     S
C369   H370    1.111   .     S
C369   H371    1.111   .     S
C372   H375    1.110   .     S
C372   H373    1.111   .     S
C372   H374    1.110   .     S
O376   C377    1.414   .     S
C377   C380    1.528   .     S
C377   H379    1.111   .     S
C377   H378    1.114   .     S
C380   H381    1.111   .     S
C380   H382    1.112   .     S
C380   C383    1.526   .     S
C383   H386    1.110   .     S
C383   H385    1.110   .     S
C383   H384    1.111   .     S
O387   C388    1.418   .     S
C388   H389    1.111   .     S
C388   C391    1.529   .     S
C388   H390    1.118   .     S
C391   C394    1.527   .     S
C391   H392    1.112   .     S
C391   H393    1.111   .     S
C394   H395    1.111   .     S
C394   H396    1.109   .     S
C394   H397    1.110   .     S
O398   C399    1.411   .     S
C399   H400    1.114   .     S
C399   C402    1.528   .     S
C399   H401    1.113   .     S
C402   H403    1.112   .     S
C402   H404    1.112   .     S
C402   C405    1.524   .     S
C405   H408    1.110   .     S
C405   H406    1.111   .     S
C405   H407    1.111   .     S
O409   C410    1.414   .     S
C410   C413    1.529   .     S
C410   H412    1.113   .     S
C410   H411    1.114   .     S
C413   H415    1.111   .     S
C413   H414    1.112   .     S
C413   C416    1.527   .     S
C416   H417    1.111   .     S
C416   H419    1.110   .     S
C416   H418    1.109   .     S
O420   C421    1.413   .     S
C421   C424    1.528   .     S
C421   H422    1.114   .     S
C421   H423    1.115   .     S
C424   H425    1.110   .     S
C424   C427    1.525   .     S
C424   H426    1.112   .     S
C427   H428    1.110   .     S
C427   H429    1.110   .     S
C427   H430    1.109   .     S
O431   C432    1.416   .     S
C432   H433    1.111   .     S
C432   C435    1.530   .     S
C432   H434    1.115   .     S
C435   H437    1.112   .     S
C435   C438    1.526   .     S
C435   H436    1.112   .     S
C438   H439    1.110   .     S
C438   H441    1.109   .     S
C438   H440    1.110   .     S
O442   C443    1.415   .     S
C443   H445    1.115   .     S
C443   C446    1.527   .     S
C443   H444    1.114   .     S
C446   H448    1.112   .     S
C446   C449    1.526   .     S
C446   H447    1.111   .     S
C449   H451    1.110   .     S
C449   H452    1.110   .     S
C449   H450    1.111   .     S
O453   C454    1.410   .     S
C454   H455    1.116   .     S
C454   C457    1.527   .     S
C454   H456    1.113   .     S
C457   H458    1.111   .     S
C457   C460    1.523   .     S
C457   H459    1.112   .     S
C460   H462    1.108   .     S
C460   H461    1.110   .     S
C460   H463    1.110   .     S
O464   C465    1.412   .     S
C465   H467    1.115   .     S
C465   H466    1.115   .     S
C465   C468    1.528   .     S
C468   H470    1.111   .     S
C468   H469    1.112   .     S
C468   C471    1.525   .     S
C471   H473    1.110   .     S
C471   H472    1.111   .     S
C471   H474    1.111   .     S
O475   C476    1.410   .     S
C476   H478    1.113   .     S
C476   H477    1.116   .     S
C476   C479    1.525   .     S
C479   H480    1.111   .     S
C479   C482    1.521   .     S
C479   H481    1.111   .     S
C482   H484    1.107   .     S
C482   H485    1.111   .     S
C482   H483    1.111   .     S
O486   C487    1.411   .     S
C487   H489    1.114   .     S
C487   C490    1.529   .     S
C487   H488    1.116   .     S
C490   H491    1.112   .     S
C490   C493    1.526   .     S
C490   H492    1.112   .     S
C493   H495    1.110   .     S
C493   H494    1.111   .     S
C493   H496    1.111   .     S
O497   C498    1.410   .     S
C498   H499    1.117   .     S
C498   H500    1.113   .     S
C498   C501    1.525   .     S
C501   H503    1.111   .     S
C501   H502    1.111   .     S
C501   C504    1.521   .     S
C504   H505    1.111   .     S
C504   H506    1.106   .     S
C504   H507    1.110   .     S
O508   C509    1.412   .     S
C509   H511    1.114   .     S
C509   H510    1.116   .     S
C509   C512    1.529   .     S
C512   H513    1.112   .     S
C512   C515    1.526   .     S
C512   H514    1.112   .     S
C515   H518    1.111   .     S
C515   H516    1.111   .     S
C515   H517    1.110   .     S
O519   C520    1.410   .     S
C520   H522    1.113   .     S
C520   H521    1.116   .     S
C520   C523    1.528   .     S
C523   H524    1.111   .     S
C523   H525    1.112   .     S
C523   C526    1.524   .     S
C526   H528    1.109   .     S
C526   H529    1.110   .     S
C526   H527    1.110   .     S
O530   C531    1.411   .     S
C531   H533    1.114   .     S
C531   H532    1.116   .     S
C531   C534    1.530   .     S
C534   H535    1.112   .     S
C534   H536    1.112   .     S
C534   C537    1.526   .     S
C537   H540    1.111   .     S
C537   H539    1.110   .     S
C537   H538    1.111   .     S
O541   C542    1.419   .     S
C542   H543    1.111   .     S
C542   C545    1.530   .     S
C542   H544    1.119   .     S
C545   C548    1.526   .     S
C545   H547    1.109   .     S
C545   H546    1.112   .     S
C548   H550    1.109   .     S
C548   H551    1.111   .     S
C548   H549    1.111   .     S
O552   C553    1.413   .     S
C553   H554    1.116   .     S
C553   H555    1.114   .     S
C553   C556    1.529   .     S
C556   H558    1.111   .     S
C556   H557    1.112   .     S
C556   C1291   1.527   1_455 S
C559   H562    1.111   .     S
C559   H561    1.110   .     S
C559   C1288   1.527   .     S
C559   H1292   1.111   .     S
H560   C1291   1.111   1_455 S
O563   C564    1.410   .     S
C564   C567    1.527   .     S
C564   H566    1.113   .     S
C564   H565    1.116   .     S
C567   H568    1.112   .     S
C567   C570    1.522   .     S
C567   H569    1.111   .     S
C570   H572    1.108   .     S
C570   H573    1.110   .     S
C570   H571    1.111   .     S
O574   C575    1.413   .     S
C575   H577    1.114   .     S
C575   H576    1.116   .     S
C575   C578    1.528   .     S
C578   H580    1.112   .     S
C578   C581    1.527   .     S
C578   H579    1.112   .     S
C581   H582    1.111   .     S
C581   H2047   1.110   1_545 S
C581   H2048   1.111   1_545 S
H583   C2045   1.110   .     S
H584   C2045   1.111   .     S
O585   C586    1.411   .     S
C586   H587    1.117   .     S
C586   H588    1.113   .     S
C586   C589    1.525   .     S
C589   C592    1.523   .     S
C589   H590    1.110   .     S
C589   H591    1.111   .     S
C592   H595    1.110   .     S
C592   H593    1.111   .     S
C592   H594    1.107   .     S
O596   C597    1.412   .     S
C597   H598    1.116   .     S
C597   C600    1.529   .     S
C597   H599    1.114   .     S
C600   H601    1.112   .     S
C600   H602    1.112   .     S
C600   C1335   1.526   .     S
C603   H606    1.111   .     S
C603   H605    1.110   .     S
C603   C1332   1.526   1_455 S
C603   H1336   1.111   1_455 S
H604   C1335   1.111   .     S
O607   C608    1.419   .     S
C608   H609    1.111   .     S
C608   C611    1.529   .     S
C608   H610    1.119   .     S
C611   H613    1.110   .     S
C611   H612    1.111   .     S
C611   C614    1.526   .     S
C614   H617    1.111   .     S
C614   H616    1.109   .     S
C614   H615    1.111   .     S
O618   C619    1.413   .     S
C619   H621    1.115   .     S
C619   C622    1.526   .     S
C619   H620    1.115   .     S
C622   H623    1.112   .     S
C622   H624    1.109   .     S
C622   C625    1.526   .     S
C625   H626    1.111   .     S
C625   H2091   1.110   .     S
C625   H2092   1.111   .     S
H627   C2089   1.110   1_545 S
H628   C2089   1.111   1_545 S
O629   C630    1.418   .     S
C630   H631    1.111   .     S
C630   C633    1.527   .     S
C630   H632    1.119   .     S
C633   H634    1.111   .     S
C633   C636    1.527   .     S
C633   H635    1.110   .     S
C636   H639    1.111   .     S
C636   H638    1.110   .     S
C636   H637    1.111   .     S
O640   C641    1.412   .     S
C641   C644    1.528   .     S
C641   H642    1.116   .     S
C641   H643    1.114   .     S
C644   H646    1.111   .     S
C644   H645    1.111   .     S
C644   C1379   1.523   1_455 S
C647   H649    1.111   .     S
C647   H650    1.109   .     S
C647   C1376   1.523   .     S
C647   H1380   1.111   .     S
H648   C1379   1.111   1_455 S
O651   C652    1.413   .     S
C652   H654    1.112   .     S
C652   H653    1.115   .     S
C652   C655    1.529   .     S
C655   C658    1.526   .     S
C655   H657    1.111   .     S
C655   H656    1.111   .     S
C658   H659    1.111   .     S
C658   H660    1.110   .     S
C658   H661    1.110   .     S
O662   C663    1.411   .     S
C663   H665    1.111   .     S
C663   H664    1.115   .     S
C663   C666    1.528   .     S
C666   H668    1.112   .     S
C666   H667    1.112   .     S
C666   C2133   1.526   .     S
C669   H670    1.111   .     S
C669   H672    1.110   .     S
C669   H671    1.111   .     S
C669   C2130   1.526   1_545 S
O673   C674    1.413   .     S
C674   H676    1.112   .     S
C674   C677    1.528   .     S
C674   H675    1.115   .     S
C677   H678    1.111   .     S
C677   C680    1.526   .     S
C677   H679    1.111   .     S
C680   H682    1.110   .     S
C680   H681    1.111   .     S
C680   H683    1.110   .     S
O684   C685    1.411   .     S
C685   H687    1.114   .     S
C685   H686    1.115   .     S
C685   C688    1.527   .     S
C688   H690    1.112   .     S
C688   H689    1.112   .     S
C688   C1423   1.525   .     S
C691   H694    1.110   .     S
C691   H693    1.110   .     S
C691   C1420   1.525   1_455 S
C691   H1424   1.111   1_455 S
H692   C1423   1.111   .     S
O695   C696    1.417   .     S
C696   H698    1.117   .     S
C696   H697    1.112   .     S
C696   C699    1.530   .     S
C699   C702    1.526   .     S
C699   H700    1.112   .     S
C699   H701    1.111   .     S
C702   H705    1.111   .     S
C702   H704    1.110   .     S
C702   H703    1.111   .     S
O706   C707    1.417   .     S
C707   H708    1.112   .     S
C707   C710    1.531   .     S
C707   H709    1.114   .     S
C710   H712    1.110   .     S
C710   H711    1.111   .     S
C710   C713    1.526   .     S
C713   H715    1.110   .     S
C713   H716    1.110   .     S
C713   H2178   1.111   1_545 S
H714   C2177   1.111   .     S
C733   C749    1.399   .     A
C733   O921    1.386   .     S
C733   C2229   1.408   1_545 S
C734   C750    1.401   .     A
C734   O932    1.390   .     S
C734   C2230   1.414   1_545 S
C735   C751    1.399   .     A
C735   O943    1.387   .     S
C735   C767    1.408   .     A
C736   C752    1.402   .     A
C736   O954    1.391   .     S
C736   C768    1.414   .     A
C737   C753    1.402   .     A
C737   C765    1.414   .     A
C737   O965    1.391   .     S
C738   O976    1.388   .     S
C738   C754    1.399   .     A
C738   C766    1.411   .     A
C739   C755    1.401   .     A
C739   O987    1.390   .     S
C740   O998    1.387   .     S
C740   C756    1.398   .     A
C741   O1009   1.386   .     S
C741   C757    1.397   .     A
C741   C37     1.413   1_655 S
C742   O1020   1.391   .     S
C742   C770    1.414   .     A
C742   C758    1.402   .     A
C743   C759    1.402   .     A
C743   O1031   1.391   .     S
C743   C771    1.419   .     A
C744   C772    1.412   .     A
C744   O1042   1.387   .     S
C744   C760    1.399   .     A
C745   C761    1.401   .     A
C745   O1053   1.391   .     S
C745   C769    1.412   .     A
C746   O1064   1.385   .     S
C746   C762    1.397   .     A
C746   C38     1.408   1_655 S
C747   C763    1.399   .     A
C747   O1075   1.390   .     S
C747   C2235   1.414   1_545 S
C748   C764    1.402   .     A
C748   O1086   1.390   .     S
C748   C2236   1.413   .     S
C749   I1449   2.156   .     S
C749   C2309   1.421   1_545 S
C750   I1450   2.142   .     S
C750   C2310   1.417   1_545 S
C751   I1451   2.153   .     S
C751   C847    1.423   .     A
C752   I1452   2.143   .     S
C752   C848    1.418   .     A
C753   C845    1.425   .     A
C753   I1453   2.157   .     S
C754   I1454   2.141   .     S
C754   C846    1.414   .     A
C755   I1455   2.158   .     S
C756   I1456   2.139   .     S
C757   I1457   2.145   .     S
C757   C117    1.415   1_655 S
C758   C850    1.424   .     A
C758   I1458   2.155   .     S
C759   I1459   2.150   .     S
C759   C2315   1.419   .     S
C760   I1460   2.151   .     S
C760   C2316   1.418   1_545 S
C761   I1461   2.148   .     S
C761   C849    1.422   .     A
C762   I1462   2.152   .     S
C762   C118    1.419   1_655 S
C763   C851    1.420   .     A
C763   I1463   2.156   .     S
C764   I1464   2.156   .     S
C764   C852    1.424   .     A
C765   C2197   1.408   .     S
C765   C766    1.475   1_554 S
C766   C765    1.475   1_556 S
C766   C2198   1.414   .     S
C767   C7      1.413   1_655 S
C767   C768    1.475   1_554 S
C768   C767    1.475   1_556 S
C768   C8      1.412   1_655 S
C769   C770    1.474   .     S
C771   C2211   1.414   .     S
C771   C2236   1.478   .     S
C772   C2212   1.413   1_545 S
C772   C2235   1.478   1_545 S
C773   O857    1.277   .     A
C773   C852    1.479   .     S
C773   O2325   1.283   .     S
C774   C851    1.478   .     S
C774   O858    1.276   .     A
C774   O2326   1.284   1_545 S
C775   O859    1.277   .     A
C775   C850    1.476   .     S
C776   O864    1.274   .     A
C776   C849    1.474   .     S
C777   O133    1.279   1_655 A
C777   C848    1.472   .     S
C777   O137    1.276   1_655 S
C778   O134    1.278   1_655 A
C778   C847    1.482   .     S
C778   O138    1.283   1_655 A
C779   C846    1.472   .     S
C779   O2331   1.276   .     A
C779   O2335   1.279   .     A
C780   O2336   1.279   .     A
C780   O2332   1.281   .     A
C780   C845    1.480   .     S
C781   C831    1.441   .     S
C781   O873    1.275   .     A
C781   O899    1.274   .     A
C782   C832    1.445   .     S
C782   O900    1.276   .     A
C782   O874    1.275   .     A
C783   O875    1.275   .     A
C783   O897    1.275   .     A
C783   C833    1.441   .     S
C784   O876    1.276   .     A
C784   C834    1.446   .     S
C784   O898    1.277   .     A
C785   C835    1.441   .     S
C785   O903    1.273   .     A
C785   O877    1.275   .     A
C786   O904    1.277   .     A
C786   O878    1.274   .     A
C786   C836    1.445   .     S
C787   C829    1.441   .     S
C787   O901    1.272   .     A
C787   O879    1.274   .     A
C788   O902    1.276   .     A
C788   C830    1.447   .     S
C788   O880    1.273   .     A
C789   O891    1.276   .     A
C789   O881    1.274   .     A
C789   C839    1.440   .     S
C790   O882    1.277   .     A
C790   O892    1.276   .     A
C790   C840    1.447   .     S
C791   C841    1.442   .     S
C791   O889    1.275   .     A
C791   O883    1.274   .     A
C792   O884    1.276   .     A
C792   C842    1.446   .     S
C792   O890    1.275   .     A
C793   O885    1.272   .     A
C793   C843    1.439   .     S
C793   O895    1.272   .     A
C794   O896    1.274   .     A
C794   C844    1.446   .     S
C794   O886    1.275   .     A
C795   O893    1.274   .     A
C795   C837    1.441   .     S
C795   O887    1.273   .     A
C796   C838    1.445   .     S
C796   O888    1.275   .     A
C796   O894    1.275   .     A
C797   O1097   1.387   .     S
C797   C844    1.408   .     A
C797   C812    1.401   .     A
C798   C811    1.398   .     A
C798   O1108   1.385   .     S
C798   C843    1.403   .     A
C799   O1119   1.386   .     S
C799   C842    1.407   .     A
C799   C810    1.399   .     A
C800   C809    1.398   .     A
C800   O1130   1.383   .     S
C800   C841    1.402   .     A
C801   C808    1.400   .     A
C801   C840    1.408   .     A
C801   O1141   1.386   .     S
C802   C839    1.402   .     A
C802   O1152   1.383   .     S
C802   C807    1.398   .     A
C803   O1163   1.387   .     S
C803   C838    1.407   .     A
C803   C806    1.403   .     A
C804   C805    1.398   .     A
C804   O1174   1.384   .     S
C804   C837    1.402   .     A
C805   O1185   1.383   .     S
C805   C836    1.404   .     A
C806   O1196   1.384   .     S
C806   C835    1.403   .     A
C807   O1207   1.382   .     S
C807   C834    1.402   .     A
C808   O1218   1.385   .     S
C808   C833    1.402   .     A
C809   C832    1.402   .     A
C809   O1229   1.382   .     S
C810   C831    1.402   .     A
C810   O1240   1.384   .     S
C811   C830    1.405   .     A
C811   O1251   1.384   .     S
C812   O1262   1.385   .     S
C812   C829    1.403   .     A
C813   C830    1.407   .     A
C813   O1273   1.386   .     S
C813   C828    1.398   .     A
C814   O1284   1.385   .     S
C814   C827    1.399   .     A
C814   C829    1.402   .     A
C815   C832    1.402   .     A
C815   O1295   1.383   .     S
C815   C826    1.401   .     A
C816   C825    1.401   .     A
C816   C831    1.402   .     A
C816   O1306   1.385   .     S
C817   C824    1.399   .     A
C817   C834    1.404   .     A
C817   O1317   1.382   .     S
C818   C823    1.400   .     A
C818   O1328   1.384   .     S
C818   C833    1.402   .     A
C819   O1339   1.385   .     S
C819   C822    1.398   .     A
C819   C836    1.405   .     A
C820   O1350   1.383   .     S
C820   C821    1.396   .     A
C820   C835    1.400   .     A
C821   C838    1.405   .     A
C821   O1361   1.385   .     S
C822   C837    1.402   .     A
C822   O1372   1.383   .     S
C823   O1383   1.386   .     S
C823   C840    1.407   .     A
C824   C839    1.403   .     A
C824   O1394   1.384   .     S
C825   C842    1.407   .     A
C825   O1405   1.386   .     S
C826   C841    1.404   .     A
C826   O1416   1.383   .     S
C827   C844    1.406   .     A
C827   O1427   1.387   .     S
C828   C843    1.405   .     A
C828   O1438   1.387   .     S
C845   C2213   1.421   .     S
C846   C2214   1.417   .     S
C847   C23     1.426   1_655 S
C848   C24     1.412   1_655 S
C851   C2223   1.419   1_545 S
C852   C2224   1.418   .     S
O853   Zn2384  1.938   1_545 S
O853   Zn905   1.938   .     S
O853   Zn909   1.941   .     S
O853   Zn916   1.942   .     S
O854   Zn919   1.938   .     S
O854   Zn906   1.938   .     S
O854   Zn910   1.941   .     S
O854   Zn2379  1.942   1_545 S
O855   Zn907   1.942   .     S
O855   Zn914   1.938   .     S
O855   Zn911   1.938   .     S
O856   Zn908   1.942   .     S
O856   Zn912   1.938   .     S
O856   Zn917   1.941   .     S
O857   Zn920   1.952   .     S
O858   Zn919   1.952   .     S
O859   Zn914   1.951   .     S
O860   Zn913   1.951   .     S
O860   C44     1.283   1_655 S
O861   Zn916   1.950   .     S
O861   C2237   1.283   1_545 S
O862   Zn915   1.950   .     S
O862   C2238   1.284   .     S
O863   Zn918   1.950   .     S
O863   C43     1.281   1_655 S
O864   Zn917   1.950   .     S
O865   Zn912   1.952   .     S
O866   Zn911   1.952   .     S
O867   C2243   1.276   1_545 A
O867   Zn906   1.951   .     S
O868   C2244   1.281   1_545 A
O868   Zn905   1.951   .     S
O869   Zn908   1.950   .     S
O870   Zn907   1.950   .     S
O871   C2243   1.279   1_545 A
O871   Zn910   1.950   .     S
O872   C2244   1.279   1_545 A
O872   Zn909   1.950   .     S
O873   Zn916   1.921   .     S
O874   Zn915   1.921   .     S
O875   Zn918   1.922   .     S
O876   Zn917   1.922   .     S
O877   Zn920   1.923   .     S
O878   Zn919   1.923   .     S
O879   Zn914   1.922   .     S
O880   Zn913   1.922   .     S
O881   Zn915   1.922   .     S
O882   Zn916   1.922   .     S
O883   Zn913   1.923   .     S
O884   Zn914   1.923   .     S
O885   Zn919   1.922   .     S
O886   Zn920   1.922   .     S
O887   Zn917   1.922   .     S
O888   Zn918   1.922   .     S
O889   Zn176   1.921   1_655 S
O890   Zn907   1.921   .     S
O891   Zn2374  1.922   .     S
O892   Zn909   1.922   .     S
O893   Zn912   1.923   .     S
O894   Zn179   1.923   1_655 S
O895   Zn906   1.922   .     S
O896   Zn2369  1.922   .     S
O897   Zn175   1.922   1_655 S
O898   Zn908   1.922   .     S
O899   Zn905   1.923   .     S
O900   Zn2370  1.923   .     S
O901   Zn911   1.922   .     S
O902   Zn180   1.922   1_655 S
O903   Zn2373  1.922   .     S
O904   Zn910   1.922   .     S
Zn905  O2360   1.922   1_545 S
Zn906  O2364   1.923   1_545 S
Zn909  O2367   1.922   1_545 S
Zn910  O2355   1.922   1_545 S
Zn913  O124    1.938   1_655 S
Zn915  O2318   1.942   .     S
Zn918  O123    1.941   1_655 S
Zn920  O2317   1.938   .     S
O921   C922    1.414   .     S
C922   C925    1.527   .     S
C922   H924    1.117   .     S
C922   H923    1.111   1_554 S
H923   C922    1.111   1_556 S
C925   H927    1.111   .     S
C925   H926    1.110   1_554 S
C925   C928    1.524   1_554 S
H926   C925    1.110   1_556 S
C928   H931    1.110   .     S
C928   H930    1.110   .     S
C928   C925    1.524   1_556 S
C928   H929    1.110   1_556 S
H929   C928    1.110   1_554 S
O932   C933    1.419   .     S
C933   C936    1.537   .     S
C933   H934    1.110   1_556 S
C933   H935    1.105   1_556 S
H934   C933    1.110   1_554 S
H935   C933    1.105   1_554 S
C936   H937    1.111   .     S
C936   C939    1.526   .     S
C936   H938    1.111   .     S
C939   H941    1.111   .     S
C939   H940    1.111   .     S
C939   H942    1.111   1_556 S
H942   C939    1.111   1_554 S
O943   C944    1.415   .     S
C944   C947    1.529   .     S
C944   H946    1.117   .     S
C944   H945    1.111   1_554 S
H945   C944    1.111   1_556 S
C947   H949    1.111   .     S
C947   H948    1.110   1_554 S
C947   C950    1.527   1_554 S
H948   C947    1.110   1_556 S
C950   H952    1.111   .     S
C950   H953    1.111   .     S
C950   C947    1.527   1_556 S
C950   H951    1.111   1_556 S
H951   C950    1.111   1_554 S
O954   C955    1.418   .     S
C955   C958    1.537   .     S
C955   H956    1.111   1_556 S
C955   H957    1.105   1_556 S
H956   C955    1.111   1_554 S
H957   C955    1.105   1_554 S
C958   H959    1.111   .     S
C958   H960    1.111   .     S
C958   C961    1.526   .     S
C961   H962    1.111   .     S
C961   H964    1.111   .     S
C961   H963    1.110   .     S
O965   C966    1.417   .     S
C966   C969    1.535   .     S
C966   H967    1.109   1_554 S
C966   H968    1.101   1_554 S
H967   C966    1.109   1_556 S
H968   C966    1.101   1_556 S
C969   C972    1.526   .     S
C969   H971    1.111   .     S
C969   H970    1.109   .     S
C972   H974    1.111   .     S
C972   H973    1.110   1_554 S
C972   H975    1.111   1_554 S
H973   C972    1.110   1_556 S
H975   C972    1.111   1_556 S
O976   C977    1.416   .     S
C977   C980    1.527   .     S
C977   H979    1.118   .     S
C977   H978    1.111   1_556 S
H978   C977    1.111   1_554 S
C980   H982    1.111   .     S
C980   C983    1.528   .     S
C980   H981    1.110   1_556 S
H981   C980    1.110   1_554 S
C983   H984    1.111   .     S
C983   H985    1.108   .     S
C983   H986    1.111   1_556 S
H986   C983    1.111   1_554 S
O987   C988    1.417   .     S
C988   C991    1.535   .     S
C988   H989    1.110   1_554 S
C988   H990    1.103   1_554 S
H989   C988    1.110   1_556 S
H990   C988    1.103   1_556 S
C991   H993    1.111   .     S
C991   H992    1.110   .     S
C991   C994    1.523   .     S
C994   H996    1.110   .     S
C994   H995    1.111   1_554 S
C994   H997    1.111   1_554 S
H995   C994    1.111   1_556 S
H997   C994    1.111   1_556 S
O998   C999    1.415   .     S
C999   H1001   1.117   .     S
C999   H1000   1.110   1_556 S
C999   C1002   1.524   1_556 S
H1000  C999    1.110   1_554 S
C1002  C1005   1.527   .     S
C1002  H1003   1.110   .     S
C1002  C999    1.524   1_554 S
C1002  H1004   1.111   1_554 S
H1004  C1002   1.111   1_556 S
C1005  H1008   1.111   .     S
C1005  H1007   1.110   .     S
C1005  H1006   1.111   1_554 S
H1006  C1005   1.111   1_556 S
O1009  C1010   1.411   .     S
C1010  H1011   1.106   .     S
C1010  C1013   1.523   .     S
C1010  H1012   1.115   .     S
C1013  C1016   1.525   .     S
C1013  H1014   1.111   .     S
C1013  H1015   1.112   .     S
C1016  H1017   1.111   .     S
C1016  H1019   1.111   .     S
C1016  H1018   1.108   .     S
O1020  C1021   1.419   .     S
C1021  H1022   1.109   .     S
C1021  C1024   1.538   .     S
C1021  H1023   1.106   .     S
C1024  H1025   1.110   .     S
C1024  H1026   1.110   .     S
C1024  C1027   1.526   .     S
C1027  H1029   1.111   .     S
C1027  H1028   1.111   .     S
C1027  H1030   1.111   .     S
O1031  C1032   1.419   .     S
C1032  H1033   1.109   .     S
C1032  C1035   1.533   .     S
C1032  H1034   1.103   .     S
C1035  H1037   1.111   .     S
C1035  H1036   1.111   .     S
C1035  C1038   1.526   .     S
C1038  H1041   1.111   .     S
C1038  H1039   1.111   .     S
C1038  H1040   1.110   .     S
O1042  C1043   1.415   .     S
C1043  H1045   1.117   .     S
C1043  H1044   1.111   .     S
C1043  C1046   1.525   .     S
C1046  H1047   1.110   .     S
C1046  H1048   1.111   .     S
C1046  C1049   1.527   .     S
C1049  H1052   1.111   .     S
C1049  H1051   1.110   .     S
C1049  H1050   1.111   .     S
O1053  C1054   1.419   .     S
C1054  H1056   1.105   .     S
C1054  C1057   1.537   .     S
C1054  H1055   1.110   .     S
C1057  H1059   1.111   .     S
C1057  H1058   1.111   .     S
C1057  C1060   1.526   .     S
C1060  H1062   1.111   .     S
C1060  H1063   1.111   .     S
H1061  C328    1.111   1_655 S
O1064  C1065   1.412   .     S
C1065  H1066   1.111   .     S
C1065  C1068   1.524   .     S
C1065  H1067   1.117   .     S
C1068  C1071   1.524   .     S
C1068  H1069   1.110   .     S
C1068  H1070   1.111   .     S
C1071  H1073   1.108   .     S
C1071  H1074   1.111   .     S
C1071  H1072   1.111   .     S
O1075  C1076   1.418   .     S
C1076  C1079   1.542   .     S
C1076  H1077   1.110   .     S
C1076  H1078   1.103   .     S
C1079  C1082   1.525   .     S
C1079  H1080   1.110   .     S
C1079  H1081   1.110   .     S
C1082  H1083   1.109   .     S
C1082  H1085   1.110   .     S
C1082  H1084   1.111   .     S
O1086  C1087   1.416   .     S
C1087  H1089   1.102   .     S
C1087  H1088   1.110   .     S
C1087  C1090   1.539   .     S
C1090  C1093   1.523   .     S
C1090  H1092   1.109   .     S
C1090  H1091   1.111   .     S
C1093  H1096   1.111   .     S
C1093  H1095   1.110   .     S
C1093  H1094   1.107   .     S
O1097  C1098   1.413   .     S
C1098  C1101   1.529   .     S
C1098  H1100   1.112   .     S
C1098  H1099   1.114   .     S
C1101  C1104   1.526   .     S
C1101  H1102   1.111   .     S
C1101  H1103   1.111   .     S
C1104  H1107   1.110   .     S
C1104  H1105   1.111   .     S
C1104  H1106   1.110   .     S
O1108  C1109   1.414   .     S
C1109  C1112   1.528   .     S
C1109  H1111   1.111   .     S
C1109  H1110   1.114   .     S
C1112  H1113   1.111   .     S
C1112  H1114   1.112   .     S
C1112  C1115   1.526   .     S
C1115  H1118   1.110   .     S
C1115  H1117   1.110   .     S
C1115  H1116   1.111   .     S
O1119  C1120   1.418   .     S
C1120  H1121   1.111   .     S
C1120  C1123   1.529   .     S
C1120  H1122   1.118   .     S
C1123  C1126   1.527   .     S
C1123  H1124   1.112   .     S
C1123  H1125   1.111   .     S
C1126  H1127   1.111   .     S
C1126  H1128   1.109   .     S
C1126  H1129   1.110   .     S
O1130  C1131   1.411   .     S
C1131  H1132   1.114   .     S
C1131  C1134   1.528   .     S
C1131  H1133   1.113   .     S
C1134  H1135   1.112   .     S
C1134  H1136   1.112   .     S
C1134  C1137   1.524   .     S
C1137  H1140   1.110   .     S
C1137  H1138   1.111   .     S
C1137  H1139   1.111   .     S
O1141  C1142   1.414   .     S
C1142  C1145   1.529   .     S
C1142  H1144   1.113   .     S
C1142  H1143   1.114   .     S
C1145  H1147   1.111   .     S
C1145  H1146   1.112   .     S
C1145  C1148   1.527   .     S
C1148  H1149   1.111   .     S
C1148  H1151   1.110   .     S
C1148  H1150   1.109   .     S
O1152  C1153   1.413   .     S
C1153  C1156   1.528   .     S
C1153  H1154   1.114   .     S
C1153  H1155   1.115   .     S
C1156  H1157   1.110   .     S
C1156  C1159   1.525   .     S
C1156  H1158   1.112   .     S
C1159  H1160   1.110   .     S
C1159  H1161   1.110   .     S
C1159  H1162   1.109   .     S
O1163  C1164   1.416   .     S
C1164  H1165   1.111   .     S
C1164  C1167   1.530   .     S
C1164  H1166   1.115   .     S
C1167  H1169   1.112   .     S
C1167  C1170   1.526   .     S
C1167  H1168   1.112   .     S
C1170  H1171   1.110   .     S
C1170  H1173   1.109   .     S
C1170  H1172   1.110   .     S
O1174  C1175   1.415   .     S
C1175  H1177   1.115   .     S
C1175  C1178   1.527   .     S
C1175  H1176   1.114   .     S
C1178  H1180   1.112   .     S
C1178  C1181   1.526   .     S
C1178  H1179   1.111   .     S
C1181  H1183   1.110   .     S
C1181  H1184   1.110   .     S
C1181  H1182   1.111   .     S
O1185  C1186   1.410   .     S
C1186  H1187   1.116   .     S
C1186  C1189   1.527   .     S
C1186  H1188   1.113   .     S
C1189  H1190   1.111   .     S
C1189  C1192   1.523   .     S
C1189  H1191   1.112   .     S
C1192  H1194   1.108   .     S
C1192  H1193   1.110   .     S
C1192  H1195   1.110   .     S
O1196  C1197   1.412   .     S
C1197  H1199   1.115   .     S
C1197  H1198   1.115   .     S
C1197  C1200   1.528   .     S
C1200  H1202   1.111   .     S
C1200  H1201   1.112   .     S
C1200  C1203   1.525   .     S
C1203  H1205   1.110   .     S
C1203  H1204   1.111   .     S
C1203  H1206   1.111   .     S
O1207  C1208   1.410   .     S
C1208  H1210   1.113   .     S
C1208  H1209   1.116   .     S
C1208  C1211   1.525   .     S
C1211  H1212   1.111   .     S
C1211  C1214   1.521   .     S
C1211  H1213   1.111   .     S
C1214  H1216   1.107   .     S
C1214  H1217   1.111   .     S
C1214  H1215   1.111   .     S
O1218  C1219   1.411   .     S
C1219  H1221   1.114   .     S
C1219  C1222   1.529   .     S
C1219  H1220   1.116   .     S
C1222  H1223   1.112   .     S
C1222  C1225   1.526   .     S
C1222  H1224   1.112   .     S
C1225  H1227   1.110   .     S
C1225  H1226   1.111   .     S
C1225  H1228   1.111   .     S
O1229  C1230   1.410   .     S
C1230  H1231   1.117   .     S
C1230  H1232   1.113   .     S
C1230  C1233   1.525   .     S
C1233  H1235   1.111   .     S
C1233  H1234   1.111   .     S
C1233  C1236   1.521   .     S
C1236  H1237   1.111   .     S
C1236  H1238   1.106   .     S
C1236  H1239   1.110   .     S
O1240  C1241   1.412   .     S
C1241  H1243   1.114   .     S
C1241  H1242   1.116   .     S
C1241  C1244   1.529   .     S
C1244  H1245   1.112   .     S
C1244  C1247   1.526   .     S
C1244  H1246   1.112   .     S
C1247  H1250   1.111   .     S
C1247  H1248   1.111   .     S
C1247  H1249   1.110   .     S
O1251  C1252   1.410   .     S
C1252  H1254   1.113   .     S
C1252  H1253   1.116   .     S
C1252  C1255   1.528   .     S
C1255  H1256   1.111   .     S
C1255  H1257   1.112   .     S
C1255  C1258   1.524   .     S
C1258  H1260   1.109   .     S
C1258  H1261   1.110   .     S
C1258  H1259   1.110   .     S
O1262  C1263   1.411   .     S
C1263  H1265   1.114   .     S
C1263  H1264   1.116   .     S
C1263  C1266   1.530   .     S
C1266  H1267   1.112   .     S
C1266  H1268   1.112   .     S
C1266  C1269   1.526   .     S
C1269  H1272   1.111   .     S
C1269  H1271   1.110   .     S
C1269  H1270   1.111   .     S
O1273  C1274   1.419   .     S
C1274  H1275   1.111   .     S
C1274  C1277   1.530   .     S
C1274  H1276   1.119   .     S
C1277  C1280   1.526   .     S
C1277  H1279   1.109   .     S
C1277  H1278   1.112   .     S
C1280  H1282   1.109   .     S
C1280  H1283   1.111   .     S
C1280  H1281   1.111   .     S
O1284  C1285   1.413   .     S
C1285  H1286   1.116   .     S
C1285  H1287   1.114   .     S
C1285  C1288   1.529   .     S
C1288  H1290   1.111   .     S
C1288  H1289   1.112   .     S
C1291  H1294   1.111   .     S
C1291  H1293   1.110   .     S
C1291  C556    1.527   1_655 S
C1291  H560    1.111   1_655 S
O1295  C1296   1.410   .     S
C1296  C1299   1.527   .     S
C1296  H1298   1.113   .     S
C1296  H1297   1.116   .     S
C1299  H1300   1.112   .     S
C1299  C1302   1.522   .     S
C1299  H1301   1.111   .     S
C1302  H1304   1.108   .     S
C1302  H1305   1.110   .     S
C1302  H1303   1.111   .     S
O1306  C1307   1.413   .     S
C1307  H1309   1.114   .     S
C1307  H1308   1.116   .     S
C1307  C1310   1.528   .     S
C1310  H1312   1.112   .     S
C1310  C1313   1.527   .     S
C1310  H1311   1.112   .     S
C1313  H1314   1.111   .     S
C1313  H2779   1.110   1_545 S
C1313  H2780   1.111   1_545 S
H1315  C2777   1.110   .     S
H1316  C2777   1.111   .     S
O1317  C1318   1.411   .     S
C1318  H1319   1.117   .     S
C1318  H1320   1.113   .     S
C1318  C1321   1.525   .     S
C1321  C1324   1.523   .     S
C1321  H1322   1.110   .     S
C1321  H1323   1.111   .     S
C1324  H1327   1.110   .     S
C1324  H1325   1.111   .     S
C1324  H1326   1.107   .     S
O1328  C1329   1.412   .     S
C1329  H1330   1.116   .     S
C1329  C1332   1.529   .     S
C1329  H1331   1.114   .     S
C1332  H1333   1.112   .     S
C1332  H1334   1.112   .     S
C1332  C603    1.526   1_655 S
C1335  H1338   1.111   .     S
C1335  H1337   1.110   .     S
H1336  C603    1.111   1_655 S
O1339  C1340   1.419   .     S
C1340  H1341   1.111   .     S
C1340  C1343   1.529   .     S
C1340  H1342   1.119   .     S
C1343  H1345   1.110   .     S
C1343  H1344   1.111   .     S
C1343  C1346   1.526   .     S
C1346  H1349   1.111   .     S
C1346  H1348   1.109   .     S
C1346  H1347   1.111   .     S
O1350  C1351   1.413   .     S
C1351  H1353   1.115   .     S
C1351  C1354   1.526   .     S
C1351  H1352   1.115   .     S
C1354  H1355   1.112   .     S
C1354  H1356   1.109   .     S
C1354  C1357   1.526   .     S
C1357  H1358   1.111   .     S
C1357  H2823   1.110   .     S
C1357  H2824   1.111   .     S
H1359  C2821   1.110   1_545 S
H1360  C2821   1.111   1_545 S
O1361  C1362   1.418   .     S
C1362  H1363   1.111   .     S
C1362  C1365   1.527   .     S
C1362  H1364   1.119   .     S
C1365  H1366   1.111   .     S
C1365  C1368   1.527   .     S
C1365  H1367   1.110   .     S
C1368  H1371   1.111   .     S
C1368  H1370   1.110   .     S
C1368  H1369   1.111   .     S
O1372  C1373   1.412   .     S
C1373  C1376   1.528   .     S
C1373  H1374   1.116   .     S
C1373  H1375   1.114   .     S
C1376  H1378   1.111   .     S
C1376  H1377   1.111   .     S
C1379  H1381   1.111   .     S
C1379  H1382   1.109   .     S
C1379  C644    1.523   1_655 S
C1379  H648    1.111   1_655 S
O1383  C1384   1.413   .     S
C1384  H1386   1.112   .     S
C1384  H1385   1.115   .     S
C1384  C1387   1.529   .     S
C1387  C1390   1.526   .     S
C1387  H1389   1.111   .     S
C1387  H1388   1.111   .     S
C1390  H1391   1.111   .     S
C1390  H1392   1.110   .     S
C1390  H1393   1.110   .     S
O1394  C1395   1.411   .     S
C1395  H1397   1.111   .     S
C1395  H1396   1.115   .     S
C1395  C1398   1.528   .     S
C1398  H1400   1.112   .     S
C1398  H1399   1.112   .     S
C1398  C2865   1.526   .     S
C1401  H1402   1.111   .     S
C1401  H1404   1.110   .     S
C1401  H1403   1.111   .     S
C1401  C2862   1.526   1_545 S
O1405  C1406   1.413   .     S
C1406  H1408   1.112   .     S
C1406  C1409   1.528   .     S
C1406  H1407   1.115   .     S
C1409  H1410   1.111   .     S
C1409  C1412   1.526   .     S
C1409  H1411   1.111   .     S
C1412  H1414   1.110   .     S
C1412  H1413   1.111   .     S
C1412  H1415   1.110   .     S
O1416  C1417   1.411   .     S
C1417  H1419   1.114   .     S
C1417  H1418   1.115   .     S
C1417  C1420   1.527   .     S
C1420  H1422   1.112   .     S
C1420  H1421   1.112   .     S
C1420  C691    1.525   1_655 S
C1423  H1426   1.110   .     S
C1423  H1425   1.110   .     S
H1424  C691    1.111   1_655 S
O1427  C1428   1.417   .     S
C1428  H1430   1.117   .     S
C1428  H1429   1.112   .     S
C1428  C1431   1.530   .     S
C1431  C1434   1.526   .     S
C1431  H1432   1.112   .     S
C1431  H1433   1.111   .     S
C1434  H1437   1.111   .     S
C1434  H1436   1.110   .     S
C1434  H1435   1.111   .     S
O1438  C1439   1.417   .     S
C1439  H1440   1.112   .     S
C1439  C1442   1.531   .     S
C1439  H1441   1.114   .     S
C1442  H1444   1.110   .     S
C1442  H1443   1.111   .     S
C1442  C1445   1.526   .     S
C1445  H1447   1.110   .     S
C1445  H1448   1.110   .     S
C1445  H2910   1.111   1_545 S
H1446  C2909   1.111   .     S
C1465  C1481   1.399   .     A
C1465  O1653   1.386   .     S
C1466  C1482   1.401   .     A
C1466  O1664   1.390   .     S
C1467  C1483   1.399   .     A
C1467  O1675   1.387   .     S
C1467  C1499   1.408   .     A
C1468  C1484   1.402   .     A
C1468  O1686   1.391   .     S
C1468  C1500   1.414   .     A
C1469  C1485   1.402   .     A
C1469  C1497   1.414   .     A
C1469  O1697   1.391   .     S
C1470  O1708   1.388   .     S
C1470  C1486   1.399   .     A
C1470  C1498   1.411   .     A
C1471  C1487   1.401   .     A
C1471  O1719   1.390   .     S
C1471  C2231   1.413   1_455 S
C1472  O1730   1.387   .     S
C1472  C1488   1.398   .     A
C1472  C2232   1.412   1_455 S
C1473  O1741   1.386   .     S
C1473  C1489   1.397   .     A
C1473  C2233   1.413   .     S
C1474  O1752   1.391   .     S
C1474  C1502   1.414   .     A
C1474  C1490   1.402   .     A
C1475  C1491   1.402   .     A
C1475  O1763   1.391   .     S
C1475  C1503   1.419   .     A
C1476  C1504   1.412   .     A
C1476  O1774   1.387   .     S
C1476  C1492   1.399   .     A
C1477  C1493   1.401   .     A
C1477  O1785   1.391   .     S
C1477  C1501   1.412   .     A
C1478  O1796   1.385   .     S
C1478  C1494   1.397   .     A
C1478  C2234   1.408   .     S
C1479  C1495   1.399   .     A
C1479  O1807   1.390   .     S
C1480  C1496   1.402   .     A
C1480  O1818   1.390   .     S
C1480  C40     1.413   1_565 S
C1481  I2181   2.156   .     S
C1482  I2182   2.142   .     S
C1483  I2183   2.153   .     S
C1483  C1579   1.423   .     A
C1484  I2184   2.143   .     S
C1484  C1580   1.418   .     A
C1485  C1577   1.425   .     A
C1485  I2185   2.157   .     S
C1486  I2186   2.141   .     S
C1486  C1578   1.414   .     A
C1487  I2187   2.158   .     S
C1487  C2311   1.426   1_455 S
C1488  I2188   2.139   .     S
C1488  C2312   1.412   1_455 S
C1489  I2189   2.145   .     S
C1489  C2313   1.415   .     S
C1490  C1582   1.424   .     A
C1490  I2190   2.155   .     S
C1491  I2191   2.150   .     S
C1491  C119    1.419   1_565 S
C1492  I2192   2.151   .     S
C1493  I2193   2.148   .     S
C1493  C1581   1.422   .     A
C1494  I2194   2.152   .     S
C1494  C2314   1.419   .     S
C1495  C1583   1.420   .     A
C1495  I2195   2.156   .     S
C1496  I2196   2.156   .     S
C1496  C1584   1.424   .     A
C1497  C1      1.408   1_565 S
C1497  C1498   1.475   1_554 S
C1498  C1497   1.475   1_556 S
C1498  C2      1.414   1_565 S
C1499  C2203   1.413   .     S
C1499  C1500   1.475   1_554 S
C1500  C1499   1.475   1_556 S
C1500  C2204   1.412   .     S
C1501  C1502   1.474   .     S
C1501  C2205   1.413   1_455 S
C1502  C2210   1.408   1_455 S
C1503  C15     1.414   1_565 S
C1503  C40     1.478   1_565 S
C1505  O1589   1.277   .     A
C1505  C1584   1.479   .     S
C1505  O129    1.283   1_565 S
C1506  C1583   1.478   .     S
C1506  O1590   1.276   .     A
C1507  O1591   1.277   .     A
C1507  C1582   1.476   .     S
C1507  O2327   1.281   1_455 S
C1508  O1596   1.274   .     A
C1508  C1581   1.474   .     S
C1508  O2324   1.283   1_455 S
C1509  O2329   1.279   .     A
C1509  C1580   1.472   .     S
C1509  O2333   1.276   .     S
C1510  O2330   1.278   .     A
C1510  C1579   1.482   .     S
C1510  O2334   1.283   .     A
C1511  C1578   1.472   .     S
C1511  O135    1.276   1_565 A
C1511  O139    1.279   1_565 A
C1512  O140    1.279   1_565 A
C1512  O136    1.281   1_565 A
C1512  C1577   1.480   .     S
C1513  C1563   1.441   .     S
C1513  O1605   1.275   .     A
C1513  O1631   1.274   .     A
C1514  C1564   1.445   .     S
C1514  O1632   1.276   .     A
C1514  O1606   1.275   .     A
C1515  O1607   1.275   .     A
C1515  O1629   1.275   .     A
C1515  C1565   1.441   .     S
C1516  O1608   1.276   .     A
C1516  C1566   1.446   .     S
C1516  O1630   1.277   .     A
C1517  C1567   1.441   .     S
C1517  O1635   1.273   .     A
C1517  O1609   1.275   .     A
C1518  O1636   1.277   .     A
C1518  O1610   1.274   .     A
C1518  C1568   1.445   .     S
C1519  C1561   1.441   .     S
C1519  O1633   1.272   .     A
C1519  O1611   1.274   .     A
C1520  O1634   1.276   .     A
C1520  C1562   1.447   .     S
C1520  O1612   1.273   .     A
C1521  O1623   1.276   .     A
C1521  O1613   1.274   .     A
C1521  C1571   1.440   .     S
C1522  O1614   1.277   .     A
C1522  O1624   1.276   .     A
C1522  C1572   1.447   .     S
C1523  C1573   1.442   .     S
C1523  O1621   1.275   .     A
C1523  O1615   1.274   .     A
C1524  O1616   1.276   .     A
C1524  C1574   1.446   .     S
C1524  O1622   1.275   .     A
C1525  O1617   1.272   .     A
C1525  C1575   1.439   .     S
C1525  O1627   1.272   .     A
C1526  O1628   1.274   .     A
C1526  C1576   1.446   .     S
C1526  O1618   1.275   .     A
C1527  O1625   1.274   .     A
C1527  C1569   1.441   .     S
C1527  O1619   1.273   .     A
C1528  C1570   1.445   .     S
C1528  O1620   1.275   .     A
C1528  O1626   1.275   .     A
C1529  O1829   1.387   .     S
C1529  C1576   1.408   .     A
C1529  C1544   1.401   .     A
C1530  C1543   1.398   .     A
C1530  O1840   1.385   .     S
C1530  C1575   1.403   .     A
C1531  O1851   1.386   .     S
C1531  C1574   1.407   .     A
C1531  C1542   1.399   .     A
C1532  C1541   1.398   .     A
C1532  O1862   1.383   .     S
C1532  C1573   1.402   .     A
C1533  C1540   1.400   .     A
C1533  C1572   1.408   .     A
C1533  O1873   1.386   .     S
C1534  C1571   1.402   .     A
C1534  O1884   1.383   .     S
C1534  C1539   1.398   .     A
C1535  O1895   1.387   .     S
C1535  C1570   1.407   .     A
C1535  C1538   1.403   .     A
C1536  C1537   1.398   .     A
C1536  O1906   1.384   .     S
C1536  C1569   1.402   .     A
C1537  O1917   1.383   .     S
C1537  C1568   1.404   .     A
C1538  O1928   1.384   .     S
C1538  C1567   1.403   .     A
C1539  O1939   1.382   .     S
C1539  C1566   1.402   .     A
C1540  O1950   1.385   .     S
C1540  C1565   1.402   .     A
C1541  C1564   1.402   .     A
C1541  O1961   1.382   .     S
C1542  C1563   1.402   .     A
C1542  O1972   1.384   .     S
C1543  C1562   1.405   .     A
C1543  O1983   1.384   .     S
C1544  O1994   1.385   .     S
C1544  C1561   1.403   .     A
C1545  C1562   1.407   .     A
C1545  O2005   1.386   .     S
C1545  C1560   1.398   .     A
C1546  O2016   1.385   .     S
C1546  C1559   1.399   .     A
C1546  C1561   1.402   .     A
C1547  C1564   1.402   .     A
C1547  O2027   1.383   .     S
C1547  C1558   1.401   .     A
C1548  C1557   1.401   .     A
C1548  C1563   1.402   .     A
C1548  O2038   1.385   .     S
C1549  C1556   1.399   .     A
C1549  C1566   1.404   .     A
C1549  O2049   1.382   .     S
C1550  C1555   1.400   .     A
C1550  O2060   1.384   .     S
C1550  C1565   1.402   .     A
C1551  O2071   1.385   .     S
C1551  C1554   1.398   .     A
C1551  C1568   1.405   .     A
C1552  O2082   1.383   .     S
C1552  C1553   1.396   .     A
C1552  C1567   1.400   .     A
C1553  C1570   1.405   .     A
C1553  O2093   1.385   .     S
C1554  C1569   1.402   .     A
C1554  O2104   1.383   .     S
C1555  O2115   1.386   .     S
C1555  C1572   1.407   .     A
C1556  C1571   1.403   .     A
C1556  O2126   1.384   .     S
C1557  C1574   1.407   .     A
C1557  O2137   1.386   .     S
C1558  C1573   1.404   .     A
C1558  O2148   1.383   .     S
C1559  C1576   1.406   .     A
C1559  O2159   1.387   .     S
C1560  C1575   1.405   .     A
C1560  O2170   1.387   .     S
C1577  C17     1.421   1_565 S
C1578  C18     1.417   1_565 S
C1579  C2219   1.426   .     S
C1580  C2220   1.412   .     S
C1581  C2221   1.415   1_455 S
C1582  C2226   1.419   1_455 S
C1584  C28     1.418   1_565 S
O1585  Zn1637  1.938   .     S
O1585  Zn1641  1.941   .     S
O1585  Zn1648  1.942   .     S
O1586  Zn1651  1.938   .     S
O1586  Zn1638  1.938   .     S
O1586  Zn1642  1.941   .     S
O1587  Zn1639  1.942   .     S
O1587  Zn1646  1.938   .     S
O1587  Zn1643  1.938   .     S
O1587  Zn2382  1.941   1_455 S
O1588  Zn2377  1.938   1_455 S
O1588  Zn1640  1.942   .     S
O1588  Zn1644  1.938   .     S
O1588  Zn1649  1.941   .     S
O1589  Zn1652  1.952   .     S
O1590  Zn1651  1.952   .     S
O1591  Zn1646  1.951   .     S
O1592  Zn1645  1.951   .     S
O1592  C2240   1.283   .     S
O1593  Zn1648  1.950   .     S
O1594  Zn1647  1.950   .     S
O1594  C42     1.284   1_565 S
O1595  Zn1650  1.950   .     S
O1595  C2239   1.281   .     S
O1596  Zn1649  1.950   .     S
O1597  C2241   1.279   1_455 A
O1597  Zn1644  1.952   .     S
O1598  C2242   1.278   1_455 A
O1598  Zn1643  1.952   .     S
O1599  Zn1638  1.951   .     S
O1600  Zn1637  1.951   .     S
O1601  Zn1640  1.950   .     S
O1601  C2241   1.276   1_455 S
O1602  C2242   1.283   1_455 A
O1602  Zn1639  1.950   .     S
O1603  Zn1642  1.950   .     S
O1604  Zn1641  1.950   .     S
O1605  Zn1648  1.921   .     S
O1606  Zn1647  1.921   .     S
O1607  Zn1650  1.922   .     S
O1608  Zn1649  1.922   .     S
O1609  Zn1652  1.923   .     S
O1610  Zn1651  1.923   .     S
O1611  Zn1646  1.922   .     S
O1612  Zn1645  1.922   .     S
O1613  Zn1647  1.922   .     S
O1614  Zn1648  1.922   .     S
O1615  Zn1645  1.923   .     S
O1616  Zn1646  1.923   .     S
O1617  Zn1651  1.922   .     S
O1618  Zn1652  1.922   .     S
O1619  Zn1649  1.922   .     S
O1620  Zn1650  1.922   .     S
O1621  Zn2372  1.921   .     S
O1622  Zn1639  1.921   .     S
O1623  Zn178   1.922   1_565 S
O1624  Zn1641  1.922   .     S
O1625  Zn1644  1.923   .     S
O1626  Zn2375  1.923   .     S
O1627  Zn1638  1.922   .     S
O1628  Zn173   1.922   1_565 S
O1629  Zn2371  1.922   .     S
O1630  Zn1640  1.922   .     S
O1631  Zn1637  1.923   .     S
O1632  Zn174   1.923   1_565 S
O1633  Zn1643  1.922   .     S
O1634  Zn2376  1.922   .     S
O1635  Zn177   1.922   1_565 S
O1636  Zn1642  1.922   .     S
Zn1639 O2361   1.922   1_455 S
Zn1640 O2353   1.921   1_455 S
Zn1643 O2358   1.923   1_455 S
Zn1644 O2366   1.922   1_455 S
Zn1645 O2320   1.938   .     S
Zn1647 O122    1.942   1_565 S
Zn1650 O2319   1.941   .     S
Zn1652 O121    1.938   1_565 S
O1653  C1654   1.414   .     S
C1654  C1657   1.527   .     S
C1654  H1656   1.117   .     S
C1654  H1655   1.111   1_554 S
H1655  C1654   1.111   1_556 S
C1657  H1659   1.111   .     S
C1657  H1658   1.110   1_554 S
C1657  C1660   1.524   1_554 S
H1658  C1657   1.110   1_556 S
C1660  H1663   1.110   .     S
C1660  H1662   1.110   .     S
C1660  C1657   1.524   1_556 S
C1660  H1661   1.110   1_556 S
H1661  C1660   1.110   1_554 S
O1664  C1665   1.419   .     S
C1665  C1668   1.537   .     S
C1665  H1666   1.110   1_556 S
C1665  H1667   1.105   1_556 S
H1666  C1665   1.110   1_554 S
H1667  C1665   1.105   1_554 S
C1668  H1669   1.111   .     S
C1668  C1671   1.526   .     S
C1668  H1670   1.111   .     S
C1671  H1673   1.111   .     S
C1671  H1672   1.111   .     S
C1671  H1674   1.111   1_556 S
H1674  C1671   1.111   1_554 S
O1675  C1676   1.415   .     S
C1676  C1679   1.529   .     S
C1676  H1678   1.117   .     S
C1676  H1677   1.111   1_554 S
H1677  C1676   1.111   1_556 S
C1679  H1681   1.111   .     S
C1679  H1680   1.110   1_554 S
C1679  C1682   1.527   1_554 S
H1680  C1679   1.110   1_556 S
C1682  H1684   1.111   .     S
C1682  H1685   1.111   .     S
C1682  C1679   1.527   1_556 S
C1682  H1683   1.111   1_556 S
H1683  C1682   1.111   1_554 S
O1686  C1687   1.418   .     S
C1687  C1690   1.537   .     S
C1687  H1688   1.111   1_556 S
C1687  H1689   1.105   1_556 S
H1688  C1687   1.111   1_554 S
H1689  C1687   1.105   1_554 S
C1690  H1691   1.111   .     S
C1690  H1692   1.111   .     S
C1690  C1693   1.526   .     S
C1693  H1694   1.111   .     S
C1693  H1696   1.111   .     S
C1693  H1695   1.110   .     S
O1697  C1698   1.417   .     S
C1698  C1701   1.535   .     S
C1698  H1699   1.109   1_554 S
C1698  H1700   1.101   1_554 S
H1699  C1698   1.109   1_556 S
H1700  C1698   1.101   1_556 S
C1701  C1704   1.526   .     S
C1701  H1703   1.111   .     S
C1701  H1702   1.109   .     S
C1704  H1706   1.111   .     S
C1704  H1705   1.110   1_554 S
C1704  H1707   1.111   1_554 S
H1705  C1704   1.110   1_556 S
H1707  C1704   1.111   1_556 S
O1708  C1709   1.416   .     S
C1709  C1712   1.527   .     S
C1709  H1711   1.118   .     S
C1709  H1710   1.111   1_556 S
H1710  C1709   1.111   1_554 S
C1712  H1714   1.111   .     S
C1712  C1715   1.528   .     S
C1712  H1713   1.110   1_556 S
H1713  C1712   1.110   1_554 S
C1715  H1716   1.111   .     S
C1715  H1717   1.108   .     S
C1715  H1718   1.111   1_556 S
H1718  C1715   1.111   1_554 S
O1719  C1720   1.417   .     S
C1720  C1723   1.535   .     S
C1720  H1721   1.110   1_554 S
C1720  H1722   1.103   1_554 S
H1721  C1720   1.110   1_556 S
H1722  C1720   1.103   1_556 S
C1723  H1725   1.111   .     S
C1723  H1724   1.110   .     S
C1723  C1726   1.523   .     S
C1726  H1728   1.110   .     S
C1726  H1727   1.111   1_554 S
C1726  H1729   1.111   1_554 S
H1727  C1726   1.111   1_556 S
H1729  C1726   1.111   1_556 S
O1730  C1731   1.415   .     S
C1731  H1733   1.117   .     S
C1731  H1732   1.110   1_556 S
C1731  C1734   1.524   1_556 S
H1732  C1731   1.110   1_554 S
C1734  C1737   1.527   .     S
C1734  H1735   1.110   .     S
C1734  C1731   1.524   1_554 S
C1734  H1736   1.111   1_554 S
H1736  C1734   1.111   1_556 S
C1737  H1740   1.111   .     S
C1737  H1739   1.110   .     S
C1737  H1738   1.111   1_554 S
H1738  C1737   1.111   1_556 S
O1741  C1742   1.411   .     S
C1742  H1743   1.106   .     S
C1742  C1745   1.523   .     S
C1742  H1744   1.115   .     S
C1745  C1748   1.525   .     S
C1745  H1746   1.111   .     S
C1745  H1747   1.112   .     S
C1748  H1749   1.111   .     S
C1748  H1751   1.111   .     S
C1748  H1750   1.108   .     S
O1752  C1753   1.419   .     S
C1753  H1754   1.109   .     S
C1753  C1756   1.538   .     S
C1753  H1755   1.106   .     S
C1756  H1757   1.110   .     S
C1756  H1758   1.110   .     S
C1756  C1759   1.526   .     S
C1759  H1761   1.111   .     S
C1759  H1760   1.111   .     S
C1759  H1762   1.111   .     S
O1763  C1764   1.419   .     S
C1764  H1765   1.109   .     S
C1764  C1767   1.533   .     S
C1764  H1766   1.103   .     S
C1767  H1769   1.111   .     S
C1767  H1768   1.111   .     S
C1767  C1770   1.526   .     S
C1770  H1773   1.111   .     S
C1770  H1771   1.111   .     S
C1770  H1772   1.110   .     S
O1774  C1775   1.415   .     S
C1775  H1777   1.117   .     S
C1775  H1776   1.111   .     S
C1775  C1778   1.525   .     S
C1778  H1779   1.110   .     S
C1778  H1780   1.111   .     S
C1778  C1781   1.527   .     S
C1781  H1784   1.111   .     S
C1781  H1783   1.110   .     S
C1781  H1782   1.111   .     S
O1785  C1786   1.419   .     S
C1786  H1788   1.105   .     S
C1786  C1789   1.537   .     S
C1786  H1787   1.110   .     S
C1789  H1791   1.111   .     S
C1789  H1790   1.111   .     S
C1789  C1792   1.526   .     S
C1792  H1794   1.111   .     S
C1792  H1795   1.111   .     S
C1792  H2525   1.111   1_455 S
H1793  C2524   1.111   .     S
O1796  C1797   1.412   .     S
C1797  H1798   1.111   .     S
C1797  C1800   1.524   .     S
C1797  H1799   1.117   .     S
C1800  C1803   1.524   .     S
C1800  H1801   1.110   .     S
C1800  H1802   1.111   .     S
C1803  H1805   1.108   .     S
C1803  H1806   1.111   .     S
C1803  H1804   1.111   .     S
O1807  C1808   1.418   .     S
C1808  C1811   1.542   .     S
C1808  H1809   1.110   .     S
C1808  H1810   1.103   .     S
C1811  C1814   1.525   .     S
C1811  H1812   1.110   .     S
C1811  H1813   1.110   .     S
C1814  H1815   1.109   .     S
C1814  H1817   1.110   .     S
C1814  H1816   1.111   .     S
O1818  C1819   1.416   .     S
C1819  H1821   1.102   .     S
C1819  H1820   1.110   .     S
C1819  C1822   1.539   .     S
C1822  C1825   1.523   .     S
C1822  H1824   1.109   .     S
C1822  H1823   1.111   .     S
C1825  H1828   1.111   .     S
C1825  H1827   1.110   .     S
C1825  H1826   1.107   .     S
O1829  C1830   1.413   .     S
C1830  C1833   1.529   .     S
C1830  H1832   1.112   .     S
C1830  H1831   1.114   .     S
C1833  C1836   1.526   .     S
C1833  H1834   1.111   .     S
C1833  H1835   1.111   .     S
C1836  H1839   1.110   .     S
C1836  H1837   1.111   .     S
C1836  H1838   1.110   .     S
O1840  C1841   1.414   .     S
C1841  C1844   1.528   .     S
C1841  H1843   1.111   .     S
C1841  H1842   1.114   .     S
C1844  H1845   1.111   .     S
C1844  H1846   1.112   .     S
C1844  C1847   1.526   .     S
C1847  H1850   1.110   .     S
C1847  H1849   1.110   .     S
C1847  H1848   1.111   .     S
O1851  C1852   1.418   .     S
C1852  H1853   1.111   .     S
C1852  C1855   1.529   .     S
C1852  H1854   1.118   .     S
C1855  C1858   1.527   .     S
C1855  H1856   1.112   .     S
C1855  H1857   1.111   .     S
C1858  H1859   1.111   .     S
C1858  H1860   1.109   .     S
C1858  H1861   1.110   .     S
O1862  C1863   1.411   .     S
C1863  H1864   1.114   .     S
C1863  C1866   1.528   .     S
C1863  H1865   1.113   .     S
C1866  H1867   1.112   .     S
C1866  H1868   1.112   .     S
C1866  C1869   1.524   .     S
C1869  H1872   1.110   .     S
C1869  H1870   1.111   .     S
C1869  H1871   1.111   .     S
O1873  C1874   1.414   .     S
C1874  C1877   1.529   .     S
C1874  H1876   1.113   .     S
C1874  H1875   1.114   .     S
C1877  H1879   1.111   .     S
C1877  H1878   1.112   .     S
C1877  C1880   1.527   .     S
C1880  H1881   1.111   .     S
C1880  H1883   1.110   .     S
C1880  H1882   1.109   .     S
O1884  C1885   1.413   .     S
C1885  C1888   1.528   .     S
C1885  H1886   1.114   .     S
C1885  H1887   1.115   .     S
C1888  H1889   1.110   .     S
C1888  C1891   1.525   .     S
C1888  H1890   1.112   .     S
C1891  H1892   1.110   .     S
C1891  H1893   1.110   .     S
C1891  H1894   1.109   .     S
O1895  C1896   1.416   .     S
C1896  H1897   1.111   .     S
C1896  C1899   1.530   .     S
C1896  H1898   1.115   .     S
C1899  H1901   1.112   .     S
C1899  C1902   1.526   .     S
C1899  H1900   1.112   .     S
C1902  H1903   1.110   .     S
C1902  H1905   1.109   .     S
C1902  H1904   1.110   .     S
O1906  C1907   1.415   .     S
C1907  H1909   1.115   .     S
C1907  C1910   1.527   .     S
C1907  H1908   1.114   .     S
C1910  H1912   1.112   .     S
C1910  C1913   1.526   .     S
C1910  H1911   1.111   .     S
C1913  H1915   1.110   .     S
C1913  H1916   1.110   .     S
C1913  H1914   1.111   .     S
O1917  C1918   1.410   .     S
C1918  H1919   1.116   .     S
C1918  C1921   1.527   .     S
C1918  H1920   1.113   .     S
C1921  H1922   1.111   .     S
C1921  C1924   1.523   .     S
C1921  H1923   1.112   .     S
C1924  H1926   1.108   .     S
C1924  H1925   1.110   .     S
C1924  H1927   1.110   .     S
O1928  C1929   1.412   .     S
C1929  H1931   1.115   .     S
C1929  H1930   1.115   .     S
C1929  C1932   1.528   .     S
C1932  H1934   1.111   .     S
C1932  H1933   1.112   .     S
C1932  C1935   1.525   .     S
C1935  H1937   1.110   .     S
C1935  H1936   1.111   .     S
C1935  H1938   1.111   .     S
O1939  C1940   1.410   .     S
C1940  H1942   1.113   .     S
C1940  H1941   1.116   .     S
C1940  C1943   1.525   .     S
C1943  H1944   1.111   .     S
C1943  C1946   1.521   .     S
C1943  H1945   1.111   .     S
C1946  H1948   1.107   .     S
C1946  H1949   1.111   .     S
C1946  H1947   1.111   .     S
O1950  C1951   1.411   .     S
C1951  H1953   1.114   .     S
C1951  C1954   1.529   .     S
C1951  H1952   1.116   .     S
C1954  H1955   1.112   .     S
C1954  C1957   1.526   .     S
C1954  H1956   1.112   .     S
C1957  H1959   1.110   .     S
C1957  H1958   1.111   .     S
C1957  H1960   1.111   .     S
O1961  C1962   1.410   .     S
C1962  H1963   1.117   .     S
C1962  H1964   1.113   .     S
C1962  C1965   1.525   .     S
C1965  H1967   1.111   .     S
C1965  H1966   1.111   .     S
C1965  C1968   1.521   .     S
C1968  H1969   1.111   .     S
C1968  H1970   1.106   .     S
C1968  H1971   1.110   .     S
O1972  C1973   1.412   .     S
C1973  H1975   1.114   .     S
C1973  H1974   1.116   .     S
C1973  C1976   1.529   .     S
C1976  H1977   1.112   .     S
C1976  C1979   1.526   .     S
C1976  H1978   1.112   .     S
C1979  H1982   1.111   .     S
C1979  H1980   1.111   .     S
C1979  H1981   1.110   .     S
O1983  C1984   1.410   .     S
C1984  H1986   1.113   .     S
C1984  H1985   1.116   .     S
C1984  C1987   1.528   .     S
C1987  H1988   1.111   .     S
C1987  H1989   1.112   .     S
C1987  C1990   1.524   .     S
C1990  H1992   1.109   .     S
C1990  H1993   1.110   .     S
C1990  H1991   1.110   .     S
O1994  C1995   1.411   .     S
C1995  H1997   1.114   .     S
C1995  H1996   1.116   .     S
C1995  C1998   1.530   .     S
C1998  H1999   1.112   .     S
C1998  H2000   1.112   .     S
C1998  C2001   1.526   .     S
C2001  H2004   1.111   .     S
C2001  H2003   1.110   .     S
C2001  H2002   1.111   .     S
O2005  C2006   1.419   .     S
C2006  H2007   1.111   .     S
C2006  C2009   1.530   .     S
C2006  H2008   1.119   .     S
C2009  C2012   1.526   .     S
C2009  H2011   1.109   .     S
C2009  H2010   1.112   .     S
C2012  H2014   1.109   .     S
C2012  H2015   1.111   .     S
C2012  H2013   1.111   .     S
O2016  C2017   1.413   .     S
C2017  H2018   1.116   .     S
C2017  H2019   1.114   .     S
C2017  C2020   1.529   .     S
C2020  H2022   1.111   .     S
C2020  H2021   1.112   .     S
C2020  C2755   1.527   1_455 S
C2023  H2026   1.111   .     S
C2023  H2025   1.110   .     S
C2023  C2752   1.527   .     S
C2023  H2756   1.111   .     S
H2024  C2755   1.111   1_455 S
O2027  C2028   1.410   .     S
C2028  C2031   1.527   .     S
C2028  H2030   1.113   .     S
C2028  H2029   1.116   .     S
C2031  H2032   1.112   .     S
C2031  C2034   1.522   .     S
C2031  H2033   1.111   .     S
C2034  H2036   1.108   .     S
C2034  H2037   1.110   .     S
C2034  H2035   1.111   .     S
O2038  C2039   1.413   .     S
C2039  H2041   1.114   .     S
C2039  H2040   1.116   .     S
C2039  C2042   1.528   .     S
C2042  H2044   1.112   .     S
C2042  C2045   1.527   .     S
C2042  H2043   1.112   .     S
C2045  H2046   1.111   .     S
H2047  C581    1.110   1_565 S
H2048  C581    1.111   1_565 S
O2049  C2050   1.411   .     S
C2050  H2051   1.117   .     S
C2050  H2052   1.113   .     S
C2050  C2053   1.525   .     S
C2053  C2056   1.523   .     S
C2053  H2054   1.110   .     S
C2053  H2055   1.111   .     S
C2056  H2059   1.110   .     S
C2056  H2057   1.111   .     S
C2056  H2058   1.107   .     S
O2060  C2061   1.412   .     S
C2061  H2062   1.116   .     S
C2061  C2064   1.529   .     S
C2061  H2063   1.114   .     S
C2064  H2065   1.112   .     S
C2064  H2066   1.112   .     S
C2064  C2799   1.526   .     S
C2067  H2070   1.111   .     S
C2067  H2069   1.110   .     S
C2067  C2796   1.526   1_455 S
C2067  H2800   1.111   1_455 S
H2068  C2799   1.111   .     S
O2071  C2072   1.419   .     S
C2072  H2073   1.111   .     S
C2072  C2075   1.529   .     S
C2072  H2074   1.119   .     S
C2075  H2077   1.110   .     S
C2075  H2076   1.111   .     S
C2075  C2078   1.526   .     S
C2078  H2081   1.111   .     S
C2078  H2080   1.109   .     S
C2078  H2079   1.111   .     S
O2082  C2083   1.413   .     S
C2083  H2085   1.115   .     S
C2083  C2086   1.526   .     S
C2083  H2084   1.115   .     S
C2086  H2087   1.112   .     S
C2086  H2088   1.109   .     S
C2086  C2089   1.526   .     S
C2089  H2090   1.111   .     S
C2089  H627    1.110   1_565 S
C2089  H628    1.111   1_565 S
O2093  C2094   1.418   .     S
C2094  H2095   1.111   .     S
C2094  C2097   1.527   .     S
C2094  H2096   1.119   .     S
C2097  H2098   1.111   .     S
C2097  C2100   1.527   .     S
C2097  H2099   1.110   .     S
C2100  H2103   1.111   .     S
C2100  H2102   1.110   .     S
C2100  H2101   1.111   .     S
O2104  C2105   1.412   .     S
C2105  C2108   1.528   .     S
C2105  H2106   1.116   .     S
C2105  H2107   1.114   .     S
C2108  H2110   1.111   .     S
C2108  H2109   1.111   .     S
C2108  C2843   1.523   1_455 S
C2111  H2113   1.111   .     S
C2111  H2114   1.109   .     S
C2111  C2840   1.523   .     S
C2111  H2844   1.111   .     S
H2112  C2843   1.111   1_455 S
O2115  C2116   1.413   .     S
C2116  H2118   1.112   .     S
C2116  H2117   1.115   .     S
C2116  C2119   1.529   .     S
C2119  C2122   1.526   .     S
C2119  H2121   1.111   .     S
C2119  H2120   1.111   .     S
C2122  H2123   1.111   .     S
C2122  H2124   1.110   .     S
C2122  H2125   1.110   .     S
O2126  C2127   1.411   .     S
C2127  H2129   1.111   .     S
C2127  H2128   1.115   .     S
C2127  C2130   1.528   .     S
C2130  H2132   1.112   .     S
C2130  H2131   1.112   .     S
C2130  C669    1.526   1_565 S
C2133  H2134   1.111   .     S
C2133  H2136   1.110   .     S
C2133  H2135   1.111   .     S
O2137  C2138   1.413   .     S
C2138  H2140   1.112   .     S
C2138  C2141   1.528   .     S
C2138  H2139   1.115   .     S
C2141  H2142   1.111   .     S
C2141  C2144   1.526   .     S
C2141  H2143   1.111   .     S
C2144  H2146   1.110   .     S
C2144  H2145   1.111   .     S
C2144  H2147   1.110   .     S
O2148  C2149   1.411   .     S
C2149  H2151   1.114   .     S
C2149  H2150   1.115   .     S
C2149  C2152   1.527   .     S
C2152  H2154   1.112   .     S
C2152  H2153   1.112   .     S
C2152  C2887   1.525   .     S
C2155  H2158   1.110   .     S
C2155  H2157   1.110   .     S
C2155  C2884   1.525   1_455 S
C2155  H2888   1.111   1_455 S
H2156  C2887   1.111   .     S
O2159  C2160   1.417   .     S
C2160  H2162   1.117   .     S
C2160  H2161   1.112   .     S
C2160  C2163   1.530   .     S
C2163  C2166   1.526   .     S
C2163  H2164   1.112   .     S
C2163  H2165   1.111   .     S
C2166  H2169   1.111   .     S
C2166  H2168   1.110   .     S
C2166  H2167   1.111   .     S
O2170  C2171   1.417   .     S
C2171  H2172   1.112   .     S
C2171  C2174   1.531   .     S
C2171  H2173   1.114   .     S
C2174  H2176   1.110   .     S
C2174  H2175   1.111   .     S
C2174  C2177   1.526   .     S
C2177  H2179   1.110   .     S
C2177  H2180   1.110   .     S
H2178  C713    1.111   1_565 S
C2197  C2213   1.399   .     A
C2197  O2385   1.386   .     S
C2198  C2214   1.401   .     A
C2198  O2396   1.390   .     S
C2199  C2215   1.399   .     A
C2199  O2407   1.387   .     S
C2199  C2231   1.408   .     A
C2200  C2216   1.402   .     A
C2200  O2418   1.391   .     S
C2200  C2232   1.414   .     A
C2201  C2217   1.402   .     A
C2201  C2229   1.414   .     A
C2201  O2429   1.391   .     S
C2202  O2440   1.388   .     S
C2202  C2218   1.399   .     A
C2202  C2230   1.411   .     A
C2203  C2219   1.401   .     A
C2203  O2451   1.390   .     S
C2204  O2462   1.387   .     S
C2204  C2220   1.398   .     A
C2205  O2473   1.386   .     S
C2205  C2221   1.397   .     A
C2205  C1501   1.413   1_655 S
C2206  O2484   1.391   .     S
C2206  C2234   1.414   .     A
C2206  C2222   1.402   .     A
C2207  C2223   1.402   .     A
C2207  O2495   1.391   .     S
C2207  C2235   1.419   .     A
C2208  C2236   1.412   .     A
C2208  O2506   1.387   .     S
C2208  C2224   1.399   .     A
C2209  C2225   1.401   .     A
C2209  O2517   1.391   .     S
C2209  C2233   1.412   .     A
C2210  O2528   1.385   .     S
C2210  C2226   1.397   .     A
C2210  C1502   1.408   1_655 S
C2211  C2227   1.399   .     A
C2211  O2539   1.390   .     S
C2212  C2228   1.402   .     A
C2212  O2550   1.390   .     S
C2212  C772    1.413   1_565 S
C2213  I2913   2.156   .     S
C2214  I2914   2.142   .     S
C2215  I2915   2.153   .     S
C2215  C2311   1.423   .     A
C2216  I2916   2.143   .     S
C2216  C2312   1.418   .     A
C2217  C2309   1.425   .     A
C2217  I2917   2.157   .     S
C2218  I2918   2.141   .     S
C2218  C2310   1.414   .     A
C2219  I2919   2.158   .     S
C2220  I2920   2.139   .     S
C2221  I2921   2.145   .     S
C2221  C1581   1.415   1_655 S
C2222  C2314   1.424   .     A
C2222  I2922   2.155   .     S
C2223  I2923   2.150   .     S
C2223  C851    1.419   1_565 S
C2224  I2924   2.151   .     S
C2225  I2925   2.148   .     S
C2225  C2313   1.422   .     A
C2226  I2926   2.152   .     S
C2226  C1582   1.419   1_655 S
C2227  C2315   1.420   .     A
C2227  I2927   2.156   .     S
C2228  I2928   2.156   .     S
C2228  C2316   1.424   .     A
C2229  C733    1.408   1_565 S
C2229  C2230   1.475   1_554 S
C2230  C2229   1.475   1_556 S
C2230  C734    1.414   1_565 S
C2231  C1471   1.413   1_655 S
C2231  C2232   1.475   1_554 S
C2232  C2231   1.475   1_556 S
C2232  C1472   1.412   1_655 S
C2233  C2234   1.474   .     S
C2235  C747    1.414   1_565 S
C2235  C772    1.478   1_565 S
C2237  O2321   1.277   .     A
C2237  C2316   1.479   .     S
C2237  O861    1.283   1_565 S
C2238  C2315   1.478   .     S
C2238  O2322   1.276   .     A
C2239  O2323   1.277   .     A
C2239  C2314   1.476   .     S
C2240  O2328   1.274   .     A
C2240  C2313   1.474   .     S
C2241  O1597   1.279   1_655 A
C2241  C2312   1.472   .     S
C2241  O1601   1.276   1_655 S
C2242  O1598   1.278   1_655 A
C2242  C2311   1.482   .     S
C2242  O1602   1.283   1_655 A
C2243  C2310   1.472   .     S
C2243  O867    1.276   1_565 A
C2243  O871    1.279   1_565 A
C2244  O872    1.279   1_565 A
C2244  O868    1.281   1_565 A
C2244  C2309   1.480   .     S
C2245  C2295   1.441   .     S
C2245  O2337   1.275   .     A
C2245  O2363   1.274   .     A
C2246  C2296   1.445   .     S
C2246  O2364   1.276   .     A
C2246  O2338   1.275   .     A
C2247  O2339   1.275   .     A
C2247  O2361   1.275   .     A
C2247  C2297   1.441   .     S
C2248  O2340   1.276   .     A
C2248  C2298   1.446   .     S
C2248  O2362   1.277   .     A
C2249  C2299   1.441   .     S
C2249  O2367   1.273   .     A
C2249  O2341   1.275   .     A
C2250  O2368   1.277   .     A
C2250  O2342   1.274   .     A
C2250  C2300   1.445   .     S
C2251  C2293   1.441   .     S
C2251  O2365   1.272   .     A
C2251  O2343   1.274   .     A
C2252  O2366   1.276   .     A
C2252  C2294   1.447   .     S
C2252  O2344   1.273   .     A
C2253  O2355   1.276   .     A
C2253  O2345   1.274   .     A
C2253  C2303   1.440   .     S
C2254  O2346   1.277   .     A
C2254  O2356   1.276   .     A
C2254  C2304   1.447   .     S
C2255  C2305   1.442   .     S
C2255  O2353   1.275   .     A
C2255  O2347   1.274   .     A
C2256  O2348   1.276   .     A
C2256  C2306   1.446   .     S
C2256  O2354   1.275   .     A
C2257  O2349   1.272   .     A
C2257  C2307   1.439   .     S
C2257  O2359   1.272   .     A
C2258  O2360   1.274   .     A
C2258  C2308   1.446   .     S
C2258  O2350   1.275   .     A
C2259  O2357   1.274   .     A
C2259  C2301   1.441   .     S
C2259  O2351   1.273   .     A
C2260  C2302   1.445   .     S
C2260  O2352   1.275   .     A
C2260  O2358   1.275   .     A
C2261  O2561   1.387   .     S
C2261  C2308   1.408   .     A
C2261  C2276   1.401   .     A
C2262  C2275   1.398   .     A
C2262  O2572   1.385   .     S
C2262  C2307   1.403   .     A
C2263  O2583   1.386   .     S
C2263  C2306   1.407   .     A
C2263  C2274   1.399   .     A
C2264  C2273   1.398   .     A
C2264  O2594   1.383   .     S
C2264  C2305   1.402   .     A
C2265  C2272   1.400   .     A
C2265  C2304   1.408   .     A
C2265  O2605   1.386   .     S
C2266  C2303   1.402   .     A
C2266  O2616   1.383   .     S
C2266  C2271   1.398   .     A
C2267  O2627   1.387   .     S
C2267  C2302   1.407   .     A
C2267  C2270   1.403   .     A
C2268  C2269   1.398   .     A
C2268  O2638   1.384   .     S
C2268  C2301   1.402   .     A
C2269  O2649   1.383   .     S
C2269  C2300   1.404   .     A
C2270  O2660   1.384   .     S
C2270  C2299   1.403   .     A
C2271  O2671   1.382   .     S
C2271  C2298   1.402   .     A
C2272  O2682   1.385   .     S
C2272  C2297   1.402   .     A
C2273  C2296   1.402   .     A
C2273  O2693   1.382   .     S
C2274  C2295   1.402   .     A
C2274  O2704   1.384   .     S
C2275  C2294   1.405   .     A
C2275  O2715   1.384   .     S
C2276  O2726   1.385   .     S
C2276  C2293   1.403   .     A
C2277  C2294   1.407   .     A
C2277  O2737   1.386   .     S
C2277  C2292   1.398   .     A
C2278  O2748   1.385   .     S
C2278  C2291   1.399   .     A
C2278  C2293   1.402   .     A
C2279  C2296   1.402   .     A
C2279  O2759   1.383   .     S
C2279  C2290   1.401   .     A
C2280  C2289   1.401   .     A
C2280  C2295   1.402   .     A
C2280  O2770   1.385   .     S
C2281  C2288   1.399   .     A
C2281  C2298   1.404   .     A
C2281  O2781   1.382   .     S
C2282  C2287   1.400   .     A
C2282  O2792   1.384   .     S
C2282  C2297   1.402   .     A
C2283  O2803   1.385   .     S
C2283  C2286   1.398   .     A
C2283  C2300   1.405   .     A
C2284  O2814   1.383   .     S
C2284  C2285   1.396   .     A
C2284  C2299   1.400   .     A
C2285  C2302   1.405   .     A
C2285  O2825   1.385   .     S
C2286  C2301   1.402   .     A
C2286  O2836   1.383   .     S
C2287  O2847   1.386   .     S
C2287  C2304   1.407   .     A
C2288  C2303   1.403   .     A
C2288  O2858   1.384   .     S
C2289  C2306   1.407   .     A
C2289  O2869   1.386   .     S
C2290  C2305   1.404   .     A
C2290  O2880   1.383   .     S
C2291  C2308   1.406   .     A
C2291  O2891   1.387   .     S
C2292  C2307   1.405   .     A
C2292  O2902   1.387   .     S
C2309  C749    1.421   1_565 S
C2310  C750    1.417   1_565 S
C2311  C1487   1.426   1_655 S
C2312  C1488   1.412   1_655 S
C2316  C760    1.418   1_565 S
O2317  Zn2369  1.938   .     S
O2317  Zn2373  1.941   .     S
O2317  Zn2380  1.942   .     S
O2318  Zn2383  1.938   .     S
O2318  Zn2370  1.938   .     S
O2318  Zn2374  1.941   .     S
O2319  Zn2371  1.942   .     S
O2319  Zn2378  1.938   .     S
O2319  Zn2375  1.938   .     S
O2320  Zn2372  1.942   .     S
O2320  Zn2376  1.938   .     S
O2320  Zn2381  1.941   .     S
O2321  Zn2384  1.952   .     S
O2322  Zn2383  1.952   .     S
O2323  Zn2378  1.951   .     S
O2324  Zn2377  1.951   .     S
O2324  C1508   1.283   1_655 S
O2325  Zn2380  1.950   .     S
O2326  Zn2379  1.950   .     S
O2326  C774    1.284   1_565 S
O2327  Zn2382  1.950   .     S
O2327  C1507   1.281   1_655 S
O2328  Zn2381  1.950   .     S
O2329  Zn2376  1.952   .     S
O2330  Zn2375  1.952   .     S
O2331  Zn2370  1.951   .     S
O2332  Zn2369  1.951   .     S
O2333  Zn2372  1.950   .     S
O2334  Zn2371  1.950   .     S
O2335  Zn2374  1.950   .     S
O2336  Zn2373  1.950   .     S
O2337  Zn2380  1.921   .     S
O2338  Zn2379  1.921   .     S
O2339  Zn2382  1.922   .     S
O2340  Zn2381  1.922   .     S
O2341  Zn2384  1.923   .     S
O2342  Zn2383  1.923   .     S
O2343  Zn2378  1.922   .     S
O2344  Zn2377  1.922   .     S
O2345  Zn2379  1.922   .     S
O2346  Zn2380  1.922   .     S
O2347  Zn2377  1.923   .     S
O2348  Zn2378  1.923   .     S
O2349  Zn2383  1.922   .     S
O2350  Zn2384  1.922   .     S
O2351  Zn2381  1.922   .     S
O2352  Zn2382  1.922   .     S
O2353  Zn1640  1.921   1_655 S
O2354  Zn2371  1.921   .     S
O2355  Zn910   1.922   1_565 S
O2356  Zn2373  1.922   .     S
O2357  Zn2376  1.923   .     S
O2358  Zn1643  1.923   1_655 S
O2359  Zn2370  1.922   .     S
O2360  Zn905   1.922   1_565 S
O2361  Zn1639  1.922   1_655 S
O2362  Zn2372  1.922   .     S
O2363  Zn2369  1.923   .     S
O2364  Zn906   1.923   1_565 S
O2365  Zn2375  1.922   .     S
O2366  Zn1644  1.922   1_655 S
O2367  Zn909   1.922   1_565 S
O2368  Zn2374  1.922   .     S
Zn2377 O1588   1.938   1_655 S
Zn2379 O854    1.942   1_565 S
Zn2382 O1587   1.941   1_655 S
Zn2384 O853    1.938   1_565 S
O2385  C2386   1.414   .     S
C2386  C2389   1.527   .     S
C2386  H2388   1.117   .     S
C2386  H2387   1.111   1_554 S
H2387  C2386   1.111   1_556 S
C2389  H2391   1.111   .     S
C2389  H2390   1.110   1_554 S
C2389  C2392   1.524   1_554 S
H2390  C2389   1.110   1_556 S
C2392  H2395   1.110   .     S
C2392  H2394   1.110   .     S
C2392  C2389   1.524   1_556 S
C2392  H2393   1.110   1_556 S
H2393  C2392   1.110   1_554 S
O2396  C2397   1.419   .     S
C2397  C2400   1.537   .     S
C2397  H2398   1.110   1_556 S
C2397  H2399   1.105   1_556 S
H2398  C2397   1.110   1_554 S
H2399  C2397   1.105   1_554 S
C2400  H2401   1.111   .     S
C2400  C2403   1.526   .     S
C2400  H2402   1.111   .     S
C2403  H2405   1.111   .     S
C2403  H2404   1.111   .     S
C2403  H2406   1.111   1_556 S
H2406  C2403   1.111   1_554 S
O2407  C2408   1.415   .     S
C2408  C2411   1.529   .     S
C2408  H2410   1.117   .     S
C2408  H2409   1.111   1_554 S
H2409  C2408   1.111   1_556 S
C2411  H2413   1.111   .     S
C2411  H2412   1.110   1_554 S
C2411  C2414   1.527   1_554 S
H2412  C2411   1.110   1_556 S
C2414  H2416   1.111   .     S
C2414  H2417   1.111   .     S
C2414  C2411   1.527   1_556 S
C2414  H2415   1.111   1_556 S
H2415  C2414   1.111   1_554 S
O2418  C2419   1.418   .     S
C2419  C2422   1.537   .     S
C2419  H2420   1.111   1_556 S
C2419  H2421   1.105   1_556 S
H2420  C2419   1.111   1_554 S
H2421  C2419   1.105   1_554 S
C2422  H2423   1.111   .     S
C2422  H2424   1.111   .     S
C2422  C2425   1.526   .     S
C2425  H2426   1.111   .     S
C2425  H2428   1.111   .     S
C2425  H2427   1.110   .     S
O2429  C2430   1.417   .     S
C2430  C2433   1.535   .     S
C2430  H2431   1.109   1_554 S
C2430  H2432   1.101   1_554 S
H2431  C2430   1.109   1_556 S
H2432  C2430   1.101   1_556 S
C2433  C2436   1.526   .     S
C2433  H2435   1.111   .     S
C2433  H2434   1.109   .     S
C2436  H2438   1.111   .     S
C2436  H2437   1.110   1_554 S
C2436  H2439   1.111   1_554 S
H2437  C2436   1.110   1_556 S
H2439  C2436   1.111   1_556 S
O2440  C2441   1.416   .     S
C2441  C2444   1.527   .     S
C2441  H2443   1.118   .     S
C2441  H2442   1.111   1_556 S
H2442  C2441   1.111   1_554 S
C2444  H2446   1.111   .     S
C2444  C2447   1.528   .     S
C2444  H2445   1.110   1_556 S
H2445  C2444   1.110   1_554 S
C2447  H2448   1.111   .     S
C2447  H2449   1.108   .     S
C2447  H2450   1.111   1_556 S
H2450  C2447   1.111   1_554 S
O2451  C2452   1.417   .     S
C2452  C2455   1.535   .     S
C2452  H2453   1.110   1_554 S
C2452  H2454   1.103   1_554 S
H2453  C2452   1.110   1_556 S
H2454  C2452   1.103   1_556 S
C2455  H2457   1.111   .     S
C2455  H2456   1.110   .     S
C2455  C2458   1.523   .     S
C2458  H2460   1.110   .     S
C2458  H2459   1.111   1_554 S
C2458  H2461   1.111   1_554 S
H2459  C2458   1.111   1_556 S
H2461  C2458   1.111   1_556 S
O2462  C2463   1.415   .     S
C2463  H2465   1.117   .     S
C2463  H2464   1.110   1_556 S
C2463  C2466   1.524   1_556 S
H2464  C2463   1.110   1_554 S
C2466  C2469   1.527   .     S
C2466  H2467   1.110   .     S
C2466  C2463   1.524   1_554 S
C2466  H2468   1.111   1_554 S
H2468  C2466   1.111   1_556 S
C2469  H2472   1.111   .     S
C2469  H2471   1.110   .     S
C2469  H2470   1.111   1_554 S
H2470  C2469   1.111   1_556 S
O2473  C2474   1.411   .     S
C2474  H2475   1.106   .     S
C2474  C2477   1.523   .     S
C2474  H2476   1.115   .     S
C2477  C2480   1.525   .     S
C2477  H2478   1.111   .     S
C2477  H2479   1.112   .     S
C2480  H2481   1.111   .     S
C2480  H2483   1.111   .     S
C2480  H2482   1.108   .     S
O2484  C2485   1.419   .     S
C2485  H2486   1.109   .     S
C2485  C2488   1.538   .     S
C2485  H2487   1.106   .     S
C2488  H2489   1.110   .     S
C2488  H2490   1.110   .     S
C2488  C2491   1.526   .     S
C2491  H2493   1.111   .     S
C2491  H2492   1.111   .     S
C2491  H2494   1.111   .     S
O2495  C2496   1.419   .     S
C2496  H2497   1.109   .     S
C2496  C2499   1.533   .     S
C2496  H2498   1.103   .     S
C2499  H2501   1.111   .     S
C2499  H2500   1.111   .     S
C2499  C2502   1.526   .     S
C2502  H2505   1.111   .     S
C2502  H2503   1.111   .     S
C2502  H2504   1.110   .     S
O2506  C2507   1.415   .     S
C2507  H2509   1.117   .     S
C2507  H2508   1.111   .     S
C2507  C2510   1.525   .     S
C2510  H2511   1.110   .     S
C2510  H2512   1.111   .     S
C2510  C2513   1.527   .     S
C2513  H2516   1.111   .     S
C2513  H2515   1.110   .     S
C2513  H2514   1.111   .     S
O2517  C2518   1.419   .     S
C2518  H2520   1.105   .     S
C2518  C2521   1.537   .     S
C2518  H2519   1.110   .     S
C2521  H2523   1.111   .     S
C2521  H2522   1.111   .     S
C2521  C2524   1.526   .     S
C2524  H2526   1.111   .     S
C2524  H2527   1.111   .     S
H2525  C1792   1.111   1_655 S
O2528  C2529   1.412   .     S
C2529  H2530   1.111   .     S
C2529  C2532   1.524   .     S
C2529  H2531   1.117   .     S
C2532  C2535   1.524   .     S
C2532  H2533   1.110   .     S
C2532  H2534   1.111   .     S
C2535  H2537   1.108   .     S
C2535  H2538   1.111   .     S
C2535  H2536   1.111   .     S
O2539  C2540   1.418   .     S
C2540  C2543   1.542   .     S
C2540  H2541   1.110   .     S
C2540  H2542   1.103   .     S
C2543  C2546   1.525   .     S
C2543  H2544   1.110   .     S
C2543  H2545   1.110   .     S
C2546  H2547   1.109   .     S
C2546  H2549   1.110   .     S
C2546  H2548   1.111   .     S
O2550  C2551   1.416   .     S
C2551  H2553   1.102   .     S
C2551  H2552   1.110   .     S
C2551  C2554   1.539   .     S
C2554  C2557   1.523   .     S
C2554  H2556   1.109   .     S
C2554  H2555   1.111   .     S
C2557  H2560   1.111   .     S
C2557  H2559   1.110   .     S
C2557  H2558   1.107   .     S
O2561  C2562   1.413   .     S
C2562  C2565   1.529   .     S
C2562  H2564   1.112   .     S
C2562  H2563   1.114   .     S
C2565  C2568   1.526   .     S
C2565  H2566   1.111   .     S
C2565  H2567   1.111   .     S
C2568  H2571   1.110   .     S
C2568  H2569   1.111   .     S
C2568  H2570   1.110   .     S
O2572  C2573   1.414   .     S
C2573  C2576   1.528   .     S
C2573  H2575   1.111   .     S
C2573  H2574   1.114   .     S
C2576  H2577   1.111   .     S
C2576  H2578   1.112   .     S
C2576  C2579   1.526   .     S
C2579  H2582   1.110   .     S
C2579  H2581   1.110   .     S
C2579  H2580   1.111   .     S
O2583  C2584   1.418   .     S
C2584  H2585   1.111   .     S
C2584  C2587   1.529   .     S
C2584  H2586   1.118   .     S
C2587  C2590   1.527   .     S
C2587  H2588   1.112   .     S
C2587  H2589   1.111   .     S
C2590  H2591   1.111   .     S
C2590  H2592   1.109   .     S
C2590  H2593   1.110   .     S
O2594  C2595   1.411   .     S
C2595  H2596   1.114   .     S
C2595  C2598   1.528   .     S
C2595  H2597   1.113   .     S
C2598  H2599   1.112   .     S
C2598  H2600   1.112   .     S
C2598  C2601   1.524   .     S
C2601  H2604   1.110   .     S
C2601  H2602   1.111   .     S
C2601  H2603   1.111   .     S
O2605  C2606   1.414   .     S
C2606  C2609   1.529   .     S
C2606  H2608   1.113   .     S
C2606  H2607   1.114   .     S
C2609  H2611   1.111   .     S
C2609  H2610   1.112   .     S
C2609  C2612   1.527   .     S
C2612  H2613   1.111   .     S
C2612  H2615   1.110   .     S
C2612  H2614   1.109   .     S
O2616  C2617   1.413   .     S
C2617  C2620   1.528   .     S
C2617  H2618   1.114   .     S
C2617  H2619   1.115   .     S
C2620  H2621   1.110   .     S
C2620  C2623   1.525   .     S
C2620  H2622   1.112   .     S
C2623  H2624   1.110   .     S
C2623  H2625   1.110   .     S
C2623  H2626   1.109   .     S
O2627  C2628   1.416   .     S
C2628  H2629   1.111   .     S
C2628  C2631   1.530   .     S
C2628  H2630   1.115   .     S
C2631  H2633   1.112   .     S
C2631  C2634   1.526   .     S
C2631  H2632   1.112   .     S
C2634  H2635   1.110   .     S
C2634  H2637   1.109   .     S
C2634  H2636   1.110   .     S
O2638  C2639   1.415   .     S
C2639  H2641   1.115   .     S
C2639  C2642   1.527   .     S
C2639  H2640   1.114   .     S
C2642  H2644   1.112   .     S
C2642  C2645   1.526   .     S
C2642  H2643   1.111   .     S
C2645  H2647   1.110   .     S
C2645  H2648   1.110   .     S
C2645  H2646   1.111   .     S
O2649  C2650   1.410   .     S
C2650  H2651   1.116   .     S
C2650  C2653   1.527   .     S
C2650  H2652   1.113   .     S
C2653  H2654   1.111   .     S
C2653  C2656   1.523   .     S
C2653  H2655   1.112   .     S
C2656  H2658   1.108   .     S
C2656  H2657   1.110   .     S
C2656  H2659   1.110   .     S
O2660  C2661   1.412   .     S
C2661  H2663   1.115   .     S
C2661  H2662   1.115   .     S
C2661  C2664   1.528   .     S
C2664  H2666   1.111   .     S
C2664  H2665   1.112   .     S
C2664  C2667   1.525   .     S
C2667  H2669   1.110   .     S
C2667  H2668   1.111   .     S
C2667  H2670   1.111   .     S
O2671  C2672   1.410   .     S
C2672  H2674   1.113   .     S
C2672  H2673   1.116   .     S
C2672  C2675   1.525   .     S
C2675  H2676   1.111   .     S
C2675  C2678   1.521   .     S
C2675  H2677   1.111   .     S
C2678  H2680   1.107   .     S
C2678  H2681   1.111   .     S
C2678  H2679   1.111   .     S
O2682  C2683   1.411   .     S
C2683  H2685   1.114   .     S
C2683  C2686   1.529   .     S
C2683  H2684   1.116   .     S
C2686  H2687   1.112   .     S
C2686  C2689   1.526   .     S
C2686  H2688   1.112   .     S
C2689  H2691   1.110   .     S
C2689  H2690   1.111   .     S
C2689  H2692   1.111   .     S
O2693  C2694   1.410   .     S
C2694  H2695   1.117   .     S
C2694  H2696   1.113   .     S
C2694  C2697   1.525   .     S
C2697  H2699   1.111   .     S
C2697  H2698   1.111   .     S
C2697  C2700   1.521   .     S
C2700  H2701   1.111   .     S
C2700  H2702   1.106   .     S
C2700  H2703   1.110   .     S
O2704  C2705   1.412   .     S
C2705  H2707   1.114   .     S
C2705  H2706   1.116   .     S
C2705  C2708   1.529   .     S
C2708  H2709   1.112   .     S
C2708  C2711   1.526   .     S
C2708  H2710   1.112   .     S
C2711  H2714   1.111   .     S
C2711  H2712   1.111   .     S
C2711  H2713   1.110   .     S
O2715  C2716   1.410   .     S
C2716  H2718   1.113   .     S
C2716  H2717   1.116   .     S
C2716  C2719   1.528   .     S
C2719  H2720   1.111   .     S
C2719  H2721   1.112   .     S
C2719  C2722   1.524   .     S
C2722  H2724   1.109   .     S
C2722  H2725   1.110   .     S
C2722  H2723   1.110   .     S
O2726  C2727   1.411   .     S
C2727  H2729   1.114   .     S
C2727  H2728   1.116   .     S
C2727  C2730   1.530   .     S
C2730  H2731   1.112   .     S
C2730  H2732   1.112   .     S
C2730  C2733   1.526   .     S
C2733  H2736   1.111   .     S
C2733  H2735   1.110   .     S
C2733  H2734   1.111   .     S
O2737  C2738   1.419   .     S
C2738  H2739   1.111   .     S
C2738  C2741   1.530   .     S
C2738  H2740   1.119   .     S
C2741  C2744   1.526   .     S
C2741  H2743   1.109   .     S
C2741  H2742   1.112   .     S
C2744  H2746   1.109   .     S
C2744  H2747   1.111   .     S
C2744  H2745   1.111   .     S
O2748  C2749   1.413   .     S
C2749  H2750   1.116   .     S
C2749  H2751   1.114   .     S
C2749  C2752   1.529   .     S
C2752  H2754   1.111   .     S
C2752  H2753   1.112   .     S
C2755  H2758   1.111   .     S
C2755  H2757   1.110   .     S
C2755  C2020   1.527   1_655 S
C2755  H2024   1.111   1_655 S
O2759  C2760   1.410   .     S
C2760  C2763   1.527   .     S
C2760  H2762   1.113   .     S
C2760  H2761   1.116   .     S
C2763  H2764   1.112   .     S
C2763  C2766   1.522   .     S
C2763  H2765   1.111   .     S
C2766  H2768   1.108   .     S
C2766  H2769   1.110   .     S
C2766  H2767   1.111   .     S
O2770  C2771   1.413   .     S
C2771  H2773   1.114   .     S
C2771  H2772   1.116   .     S
C2771  C2774   1.528   .     S
C2774  H2776   1.112   .     S
C2774  C2777   1.527   .     S
C2774  H2775   1.112   .     S
C2777  H2778   1.111   .     S
H2779  C1313   1.110   1_565 S
H2780  C1313   1.111   1_565 S
O2781  C2782   1.411   .     S
C2782  H2783   1.117   .     S
C2782  H2784   1.113   .     S
C2782  C2785   1.525   .     S
C2785  C2788   1.523   .     S
C2785  H2786   1.110   .     S
C2785  H2787   1.111   .     S
C2788  H2791   1.110   .     S
C2788  H2789   1.111   .     S
C2788  H2790   1.107   .     S
O2792  C2793   1.412   .     S
C2793  H2794   1.116   .     S
C2793  C2796   1.529   .     S
C2793  H2795   1.114   .     S
C2796  H2797   1.112   .     S
C2796  H2798   1.112   .     S
C2796  C2067   1.526   1_655 S
C2799  H2802   1.111   .     S
C2799  H2801   1.110   .     S
H2800  C2067   1.111   1_655 S
O2803  C2804   1.419   .     S
C2804  H2805   1.111   .     S
C2804  C2807   1.529   .     S
C2804  H2806   1.119   .     S
C2807  H2809   1.110   .     S
C2807  H2808   1.111   .     S
C2807  C2810   1.526   .     S
C2810  H2813   1.111   .     S
C2810  H2812   1.109   .     S
C2810  H2811   1.111   .     S
O2814  C2815   1.413   .     S
C2815  H2817   1.115   .     S
C2815  C2818   1.526   .     S
C2815  H2816   1.115   .     S
C2818  H2819   1.112   .     S
C2818  H2820   1.109   .     S
C2818  C2821   1.526   .     S
C2821  H2822   1.111   .     S
C2821  H1359   1.110   1_565 S
C2821  H1360   1.111   1_565 S
O2825  C2826   1.418   .     S
C2826  H2827   1.111   .     S
C2826  C2829   1.527   .     S
C2826  H2828   1.119   .     S
C2829  H2830   1.111   .     S
C2829  C2832   1.527   .     S
C2829  H2831   1.110   .     S
C2832  H2835   1.111   .     S
C2832  H2834   1.110   .     S
C2832  H2833   1.111   .     S
O2836  C2837   1.412   .     S
C2837  C2840   1.528   .     S
C2837  H2838   1.116   .     S
C2837  H2839   1.114   .     S
C2840  H2842   1.111   .     S
C2840  H2841   1.111   .     S
C2843  H2845   1.111   .     S
C2843  H2846   1.109   .     S
C2843  C2108   1.523   1_655 S
C2843  H2112   1.111   1_655 S
O2847  C2848   1.413   .     S
C2848  H2850   1.112   .     S
C2848  H2849   1.115   .     S
C2848  C2851   1.529   .     S
C2851  C2854   1.526   .     S
C2851  H2853   1.111   .     S
C2851  H2852   1.111   .     S
C2854  H2855   1.111   .     S
C2854  H2856   1.110   .     S
C2854  H2857   1.110   .     S
O2858  C2859   1.411   .     S
C2859  H2861   1.111   .     S
C2859  H2860   1.115   .     S
C2859  C2862   1.528   .     S
C2862  H2864   1.112   .     S
C2862  H2863   1.112   .     S
C2862  C1401   1.526   1_565 S
C2865  H2866   1.111   .     S
C2865  H2868   1.110   .     S
C2865  H2867   1.111   .     S
O2869  C2870   1.413   .     S
C2870  H2872   1.112   .     S
C2870  C2873   1.528   .     S
C2870  H2871   1.115   .     S
C2873  H2874   1.111   .     S
C2873  C2876   1.526   .     S
C2873  H2875   1.111   .     S
C2876  H2878   1.110   .     S
C2876  H2877   1.111   .     S
C2876  H2879   1.110   .     S
O2880  C2881   1.411   .     S
C2881  H2883   1.114   .     S
C2881  H2882   1.115   .     S
C2881  C2884   1.527   .     S
C2884  H2886   1.112   .     S
C2884  H2885   1.112   .     S
C2884  C2155   1.525   1_655 S
C2887  H2890   1.110   .     S
C2887  H2889   1.110   .     S
H2888  C2155   1.111   1_655 S
O2891  C2892   1.417   .     S
C2892  H2894   1.117   .     S
C2892  H2893   1.112   .     S
C2892  C2895   1.530   .     S
C2895  C2898   1.526   .     S
C2895  H2896   1.112   .     S
C2895  H2897   1.111   .     S
C2898  H2901   1.111   .     S
C2898  H2900   1.110   .     S
C2898  H2899   1.111   .     S
O2902  C2903   1.417   .     S
C2903  H2904   1.112   .     S
C2903  C2906   1.531   .     S
C2903  H2905   1.114   .     S
C2906  H2908   1.110   .     S
C2906  H2907   1.111   .     S
C2906  C2909   1.526   .     S
C2909  H2911   1.110   .     S
C2909  H2912   1.110   .     S
H2910  C1445   1.111   1_565 S
