data_str_m1_o5_o17_pcu_sym.41
_audit_creation_date              2020-01-03
_audit_creation_method            'Materials Studio'
_symmetry_space_group_name_H-M    'P1'
_symmetry_Int_Tables_number       1
_symmetry_cell_setting            triclinic
loop_
_symmetry_equiv_pos_as_xyz
  x,y,z
_cell_length_a                    31.7903
_cell_length_b                    31.7905
_cell_length_c                    34.4686
_cell_angle_alpha                 90.0000
_cell_angle_beta                  90.0001
_cell_angle_gamma                 90.0003
loop_
_atom_site_label
_atom_site_type_symbol
_atom_site_fract_x
_atom_site_fract_y
_atom_site_fract_z
_atom_site_U_iso_or_equiv
_atom_site_adp_type
_atom_site_occupancy
C1     C     0.25000   0.00000   0.35584   0.00000  Uiso   1.00
C2     C     0.33002   0.41998   0.75000   0.00000  Uiso   1.00
C3     C     0.44082   0.20184   0.02011   0.00000  Uiso   1.00
C4     C     0.20181   0.05915   0.97989   0.00000  Uiso   1.00
C5     C     0.29819   0.44085   0.02011   0.00000  Uiso   1.00
C6     C     0.44082   0.20184   0.97989   0.00000  Uiso   1.00
C7     C     0.05918   0.29816   0.02011   0.00000  Uiso   1.00
C8     C     0.41998   0.16998   0.25000   0.00000  Uiso   1.00
C9     C     0.08002   0.33002   0.75000   0.00000  Uiso   1.00
C10    C     0.33002   0.41998   0.25000   0.00000  Uiso   1.00
C11    C     0.16998   0.08002   0.75000   0.00000  Uiso   1.00
C12    C     0.08002   0.33002   0.25000   0.00000  Uiso   1.00
C13    C     0.41998   0.16998   0.75000   0.00000  Uiso   1.00
C14    C     0.16998   0.41998   0.75000   0.00000  Uiso   1.00
C15    C     0.33002   0.08002   0.25000   0.00000  Uiso   1.00
C16    C     0.41998   0.33002   0.75000   0.00000  Uiso   1.00
C17    C     0.25000   0.00000   0.64416   0.00000  Uiso   1.00
C18    C     0.08002   0.16998   0.25000   0.00000  Uiso   1.00
C19    C     0.33002   0.08002   0.75000   0.00000  Uiso   1.00
C20    C     0.16998   0.41998   0.25000   0.00000  Uiso   1.00
C21    C     0.08002   0.16998   0.75000   0.00000  Uiso   1.00
C22    C     0.41998   0.33002   0.25000   0.00000  Uiso   1.00
C23    C     0.13833   0.38833   0.25000   0.00000  Uiso   1.00
C24    C     0.36167   0.11167   0.75000   0.00000  Uiso   1.00
C25    C     0.11167   0.13833   0.25000   0.00000  Uiso   1.00
C26    C     0.38833   0.36167   0.75000   0.00000  Uiso   1.00
C27    C     0.36167   0.11167   0.25000   0.00000  Uiso   1.00
C28    C     0.00000   0.25000   0.35584   0.00000  Uiso   1.00
C29    C     0.13833   0.38833   0.75000   0.00000  Uiso   1.00
C30    C     0.38833   0.36167   0.25000   0.00000  Uiso   1.00
C31    C     0.11167   0.13833   0.75000   0.00000  Uiso   1.00
C32    C     0.13833   0.11167   0.75000   0.00000  Uiso   1.00
C33    C     0.36167   0.38833   0.25000   0.00000  Uiso   1.00
C34    C     0.11167   0.36167   0.75000   0.00000  Uiso   1.00
C35    C     0.38833   0.13833   0.25000   0.00000  Uiso   1.00
C36    C     0.36167   0.38833   0.75000   0.00000  Uiso   1.00
C37    C     0.13833   0.11167   0.25000   0.00000  Uiso   1.00
C38    C     0.38833   0.13833   0.75000   0.00000  Uiso   1.00
C39    C    -0.00000   0.25000   0.64416   0.00000  Uiso   1.00
C40    C     0.11167   0.36167   0.25000   0.00000  Uiso   1.00
C41    C     0.01918   0.28371   0.41815   0.00000  Uiso   1.00
C42    C     0.48082   0.21629   0.58185   0.00000  Uiso   1.00
C43    C     0.21626   0.01912   0.41814   0.00000  Uiso   1.00
C44    C     0.28374   0.48088   0.58185   0.00000  Uiso   1.00
C45    C     0.48082   0.21629   0.41815   0.00000  Uiso   1.00
C46    C     0.01918   0.28371   0.58185   0.00000  Uiso   1.00
C47    C     0.28374   0.48088   0.41814   0.00000  Uiso   1.00
C48    C     0.21625   0.01912   0.58185   0.00000  Uiso   1.00
C49    C     0.23084   0.03372   0.91815   0.00000  Uiso   1.00
C50    C     0.00000   0.25000   0.85584   0.00000  Uiso   1.00
C51    C     0.26916   0.46628   0.08185   0.00000  Uiso   1.00
C52    C     0.46627   0.23086   0.91814   0.00000  Uiso   1.00
C53    C     0.03373   0.26914   0.08185   0.00000  Uiso   1.00
C54    C     0.26916   0.46628   0.91815   0.00000  Uiso   1.00
C55    C     0.23084   0.03372   0.08185   0.00000  Uiso   1.00
C56    C     0.03373   0.26914   0.91814   0.00000  Uiso   1.00
C57    C     0.46627   0.23086   0.08185   0.00000  Uiso   1.00
C58    C     0.00000   0.25000   0.39803   0.00000  Uiso   1.00
C59    C    -0.00000   0.25000   0.60197   0.00000  Uiso   1.00
C60    C     0.25000   0.00000   0.39803   0.00000  Uiso   1.00
C61    C     0.00000   0.25000   0.14416   0.00000  Uiso   1.00
C62    C     0.25000   0.00000   0.60197   0.00000  Uiso   1.00
C63    C     0.25000   0.00000   0.89803   0.00000  Uiso   1.00
C64    C     0.25000   0.00000   0.10197   0.00000  Uiso   1.00
C65    C     0.00000   0.25000   0.89803   0.00000  Uiso   1.00
C66    C     0.00000   0.25000   0.10197   0.00000  Uiso   1.00
C67    C     0.47743   0.21872   0.45892   0.00000  Uiso   1.00
C68    C     0.02257   0.28128   0.54108   0.00000  Uiso   1.00
C69    C     0.28132   0.47748   0.45892   0.00000  Uiso   1.00
C70    C     0.21868   0.02252   0.54108   0.00000  Uiso   1.00
C71    C     0.02257   0.28128   0.45892   0.00000  Uiso   1.00
C72    C     0.25000   0.00000   0.85584   0.00000  Uiso   1.00
C73    C     0.47743   0.21872   0.54108   0.00000  Uiso   1.00
C74    C     0.21868   0.02252   0.45892   0.00000  Uiso   1.00
C75    C     0.28132   0.47748   0.54108   0.00000  Uiso   1.00
C76    C     0.27255   0.46871   0.95892   0.00000  Uiso   1.00
C77    C     0.22744   0.03129   0.04108   0.00000  Uiso   1.00
C78    C     0.03131   0.27254   0.95892   0.00000  Uiso   1.00
C79    C     0.46869   0.22746   0.04108   0.00000  Uiso   1.00
C80    C     0.22744   0.03129   0.95892   0.00000  Uiso   1.00
C81    C     0.27255   0.46871   0.04108   0.00000  Uiso   1.00
C82    C     0.46869   0.22746   0.95892   0.00000  Uiso   1.00
C83    C     0.25000   0.00000   0.14416   0.00000  Uiso   1.00
C84    C     0.03131   0.27254   0.04108   0.00000  Uiso   1.00
C85    C    -0.00000   0.25000   0.47940   0.00000  Uiso   1.00
C86    C    -0.00000   0.25000   0.52060   0.00000  Uiso   1.00
C87    C     0.25000   0.00000   0.47940   0.00000  Uiso   1.00
C88    C     0.25000   0.00000   0.52060   0.00000  Uiso   1.00
C89    C     0.25000  -0.00000   0.97940   0.00000  Uiso   1.00
C90    C     0.25000  -0.00000   0.02060   0.00000  Uiso   1.00
C91    C     0.00000   0.25000   0.97940   0.00000  Uiso   1.00
C92    C     0.00000   0.25000   0.02060   0.00000  Uiso   1.00
C93    C     0.45177   0.19088   0.47989   0.00000  Uiso   1.00
C94    C     0.16998   0.08002   0.25000   0.00000  Uiso   1.00
C95    C     0.04823   0.30912   0.52011   0.00000  Uiso   1.00
C96    C     0.30921   0.45188   0.47989   0.00000  Uiso   1.00
C97    C     0.19079   0.04812   0.52010   0.00000  Uiso   1.00
C98    C     0.04823   0.30912   0.47989   0.00000  Uiso   1.00
C99    C     0.45177   0.19088   0.52011   0.00000  Uiso   1.00
C100   C     0.19079   0.04812   0.47989   0.00000  Uiso   1.00
C101   C     0.30921   0.45188   0.52011   0.00000  Uiso   1.00
C102   C     0.29819   0.44085   0.97989   0.00000  Uiso   1.00
C103   C     0.20181   0.05915   0.02011   0.00000  Uiso   1.00
C104   C     0.05918   0.29816   0.97989   0.00000  Uiso   1.00
H105   H     0.43059   0.16928   0.46562   0.00000  Uiso   1.00
H106   H     0.18065   0.08076   0.03438   0.00000  Uiso   1.00
H107   H     0.08081   0.31930   0.96562   0.00000  Uiso   1.00
H108   H     0.41920   0.18070   0.03438   0.00000  Uiso   1.00
H109   H     0.18065   0.08076   0.96562   0.00000  Uiso   1.00
H110   H     0.31935   0.41924   0.03438   0.00000  Uiso   1.00
H111   H     0.41920   0.18069   0.96562   0.00000  Uiso   1.00
H112   H     0.08081   0.31930   0.03437   0.00000  Uiso   1.00
H113   H     0.02845   0.35755   0.33585   0.00000  Uiso   1.00
H114   H     0.47159   0.14241   0.66413   0.00000  Uiso   1.00
H115   H     0.14240   0.02833   0.33584   0.00000  Uiso   1.00
H116   H     0.06940   0.33072   0.53438   0.00000  Uiso   1.00
H117   H     0.35753   0.47163   0.66420   0.00000  Uiso   1.00
H118   H     0.47155   0.14245   0.33585   0.00000  Uiso   1.00
H119   H     0.02845   0.35755   0.66415   0.00000  Uiso   1.00
H120   H     0.35762   0.47169   0.33585   0.00000  Uiso   1.00
H121   H     0.14150   0.02762   0.66368   0.00000  Uiso   1.00
H122   H     0.22171   0.10772   0.83592   0.00000  Uiso   1.00
H123   H     0.27837   0.39238   0.16413   0.00000  Uiso   1.00
H124   H     0.39247   0.22159   0.83582   0.00000  Uiso   1.00
H125   H     0.10765   0.27833   0.16412   0.00000  Uiso   1.00
H126   H     0.27843   0.39247   0.83583   0.00000  Uiso   1.00
H127   H     0.33084   0.43074   0.46562   0.00000  Uiso   1.00
H128   H     0.22164   0.10763   0.16412   0.00000  Uiso   1.00
H129   H     0.10764   0.27833   0.83587   0.00000  Uiso   1.00
H130   H     0.39232   0.22170   0.16411   0.00000  Uiso   1.00
H131   H     0.16914   0.06924   0.53437   0.00000  Uiso   1.00
H132   H     0.06940   0.33072   0.46562   0.00000  Uiso   1.00
H133   H     0.43059   0.16928   0.53438   0.00000  Uiso   1.00
H134   H     0.16915   0.06925   0.46562   0.00000  Uiso   1.00
H135   H     0.33084   0.43075   0.53437   0.00000  Uiso   1.00
H136   H     0.31935   0.41924   0.96562   0.00000  Uiso   1.00
O137   O     0.25000   0.00000   0.25000   0.00000  Uiso   1.00
O138   O     0.25000   0.46539   0.66251   0.00000  Uiso   1.00
O139   O     0.41398   0.23818   0.15010   0.00000  Uiso   1.00
O140   O     0.46538   0.25000   0.33749   0.00000  Uiso   1.00
O141   O     0.03461   0.25000   0.66251   0.00000  Uiso   1.00
O142   O     0.00000   0.21539   0.83749   0.00000  Uiso   1.00
O143   O     0.00000   0.28462   0.16251   0.00000  Uiso   1.00
O144   O     0.28461   0.00000   0.83749   0.00000  Uiso   1.00
O145   O     0.21538   0.00000   0.16251   0.00000  Uiso   1.00
O146   O     0.00000   0.28462   0.83749   0.00000  Uiso   1.00
O147   O     0.00000   0.21539   0.16251   0.00000  Uiso   1.00
O148   O     0.21538   0.00000   0.83749   0.00000  Uiso   1.00
O149   O     0.25000   0.00000   0.75000   0.00000  Uiso   1.00
O150   O     0.28461   0.00000   0.16251   0.00000  Uiso   1.00
O151   O     0.20126   0.08332   0.27298   0.00000  Uiso   1.00
O152   O     0.29873   0.41668   0.72702   0.00000  Uiso   1.00
O153   O     0.41668   0.20127   0.27298   0.00000  Uiso   1.00
O154   O     0.08332   0.29874   0.72702   0.00000  Uiso   1.00
O155   O     0.29873   0.41668   0.27298   0.00000  Uiso   1.00
O156   O     0.20126   0.08332   0.72702   0.00000  Uiso   1.00
O157   O     0.08332   0.29874   0.27298   0.00000  Uiso   1.00
O158   O     0.41668   0.20127   0.72702   0.00000  Uiso   1.00
O159   O     0.20126   0.41668   0.72702   0.00000  Uiso   1.00
O160   O    -0.00000   0.25000   0.25000   0.00000  Uiso   1.00
O161   O     0.29873   0.08332   0.27298   0.00000  Uiso   1.00
O162   O     0.41668   0.29874   0.72702   0.00000  Uiso   1.00
O163   O     0.08332   0.20127   0.27298   0.00000  Uiso   1.00
O164   O     0.29873   0.08332   0.72702   0.00000  Uiso   1.00
O165   O     0.20126   0.41668   0.27298   0.00000  Uiso   1.00
O166   O     0.08332   0.20127   0.72702   0.00000  Uiso   1.00
O167   O     0.41668   0.29874   0.27298   0.00000  Uiso   1.00
O168   O     0.45126   0.33332   0.77298   0.00000  Uiso   1.00
O169   O     0.04873   0.16668   0.22702   0.00000  Uiso   1.00
O170   O     0.16668   0.45127   0.77298   0.00000  Uiso   1.00
O171   O     0.00000   0.25000   0.75000   0.00000  Uiso   1.00
O172   O     0.33332   0.04874   0.22702   0.00000  Uiso   1.00
O173   O     0.04873   0.16668   0.77298   0.00000  Uiso   1.00
O174   O     0.45126   0.33332   0.22702   0.00000  Uiso   1.00
O175   O     0.33332   0.04874   0.77298   0.00000  Uiso   1.00
O176   O     0.16668   0.45127   0.22702   0.00000  Uiso   1.00
O177   O     0.45126   0.16668   0.22702   0.00000  Uiso   1.00
O178   O     0.04873   0.33332   0.77298   0.00000  Uiso   1.00
O179   O     0.16668   0.04874   0.22702   0.00000  Uiso   1.00
O180   O     0.33332   0.45127   0.77298   0.00000  Uiso   1.00
O181   O     0.04873   0.33332   0.22702   0.00000  Uiso   1.00
O182   O     0.25000   0.46539   0.33749   0.00000  Uiso   1.00
O183   O     0.45126   0.16668   0.77298   0.00000  Uiso   1.00
O184   O     0.33332   0.45127   0.22702   0.00000  Uiso   1.00
O185   O     0.16668   0.04874   0.77298   0.00000  Uiso   1.00
O186   O     0.02825   0.36845   0.41664   0.00000  Uiso   1.00
O187   O     0.08314   0.32602   0.38565   0.00000  Uiso   1.00
O188   O     0.01187   0.33603   0.34992   0.00000  Uiso   1.00
O189   O     0.41686   0.17398   0.61434   0.00000  Uiso   1.00
O190   O     0.47176   0.13155   0.58335   0.00000  Uiso   1.00
O191   O     0.48813   0.16397   0.65008   0.00000  Uiso   1.00
O192   O     0.13150   0.02804   0.41662   0.00000  Uiso   1.00
O193   O     0.25000   0.03462   0.66251   0.00000  Uiso   1.00
O194   O     0.17384   0.08304   0.38569   0.00000  Uiso   1.00
O195   O     0.16398   0.01179   0.34989   0.00000  Uiso   1.00
O196   O     0.32615   0.41696   0.61431   0.00000  Uiso   1.00
O197   O     0.36849   0.47195   0.58338   0.00000  Uiso   1.00
O198   O     0.33602   0.48822   0.65011   0.00000  Uiso   1.00
O199   O     0.47175   0.13155   0.41664   0.00000  Uiso   1.00
O200   O     0.41686   0.17398   0.38566   0.00000  Uiso   1.00
O201   O     0.48813   0.16397   0.34992   0.00000  Uiso   1.00
O202   O     0.08314   0.32602   0.61434   0.00000  Uiso   1.00
O203   O     0.02824   0.36845   0.58336   0.00000  Uiso   1.00
O204   O     0.03461   0.25000   0.33749   0.00000  Uiso   1.00
O205   O     0.01187   0.33603   0.65008   0.00000  Uiso   1.00
O206   O     0.36849   0.47196   0.41663   0.00000  Uiso   1.00
O207   O     0.32615   0.41696   0.38569   0.00000  Uiso   1.00
O208   O     0.33602   0.48821   0.34989   0.00000  Uiso   1.00
O209   O     0.17377   0.08303   0.61426   0.00000  Uiso   1.00
O210   O     0.13151   0.02795   0.58336   0.00000  Uiso   1.00
O211   O     0.16398   0.01182   0.65012   0.00000  Uiso   1.00
O212   O     0.16690   0.07608   0.88567   0.00000  Uiso   1.00
O213   O     0.22184   0.11846   0.91664   0.00000  Uiso   1.00
O214   O     0.23816   0.08603   0.84991   0.00000  Uiso   1.00
O215   O     0.46538   0.25000   0.66251   0.00000  Uiso   1.00
O216   O     0.27817   0.38153   0.08336   0.00000  Uiso   1.00
O217   O     0.33310   0.42393   0.11433   0.00000  Uiso   1.00
O218   O     0.26184   0.41397   0.15009   0.00000  Uiso   1.00
O219   O     0.42389   0.16692   0.88568   0.00000  Uiso   1.00
O220   O     0.38152   0.22189   0.91663   0.00000  Uiso   1.00
O221   O     0.41398   0.23818   0.84990   0.00000  Uiso   1.00
O222   O     0.11848   0.27809   0.08337   0.00000  Uiso   1.00
O223   O     0.07612   0.33307   0.11431   0.00000  Uiso   1.00
O224   O     0.08602   0.26183   0.15011   0.00000  Uiso   1.00
O225   O     0.33310   0.42394   0.88567   0.00000  Uiso   1.00
O226   O     0.25000   0.03462   0.33749   0.00000  Uiso   1.00
O227   O     0.27817   0.38153   0.91663   0.00000  Uiso   1.00
O228   O     0.26184   0.41398   0.84991   0.00000  Uiso   1.00
O229   O     0.22183   0.11847   0.08336   0.00000  Uiso   1.00
O230   O     0.16690   0.07607   0.11433   0.00000  Uiso   1.00
O231   O     0.23816   0.08603   0.15009   0.00000  Uiso   1.00
O232   O     0.07612   0.33307   0.88569   0.00000  Uiso   1.00
O233   O     0.11848   0.27810   0.91663   0.00000  Uiso   1.00
O234   O     0.08602   0.26182   0.84990   0.00000  Uiso   1.00
O235   O     0.38152   0.22190   0.08337   0.00000  Uiso   1.00
O236   O     0.42388   0.16693   0.11431   0.00000  Uiso   1.00
S237   S     0.03663   0.32981   0.39270   0.00000  Uiso   1.00
S238   S     0.28659   0.42017   0.10730   0.00000  Uiso   1.00
S239   S     0.42016   0.21344   0.89270   0.00000  Uiso   1.00
S240   S     0.07985   0.28655   0.10730   0.00000  Uiso   1.00
S241   S     0.28659   0.42017   0.89270   0.00000  Uiso   1.00
S242   S     0.21341   0.07983   0.10730   0.00000  Uiso   1.00
S243   S     0.07984   0.28655   0.89270   0.00000  Uiso   1.00
S244   S     0.42016   0.21345   0.10730   0.00000  Uiso   1.00
S245   S     0.46337   0.17019   0.60729   0.00000  Uiso   1.00
S246   S     0.17014   0.03651   0.39270   0.00000  Uiso   1.00
S247   S     0.32986   0.46348   0.60730   0.00000  Uiso   1.00
S248   S     0.46337   0.17019   0.39270   0.00000  Uiso   1.00
S249   S     0.03663   0.32981   0.60729   0.00000  Uiso   1.00
S250   S     0.32986   0.46348   0.39270   0.00000  Uiso   1.00
S251   S     0.17013   0.03650   0.60729   0.00000  Uiso   1.00
S252   S     0.21341   0.07983   0.89270   0.00000  Uiso   1.00
Zn253  Zn    0.20052   0.00000   0.21730   0.00000  Uiso   1.00
Zn254  Zn    0.04947   0.25000   0.28270   0.00000  Uiso   1.00
Zn255  Zn    0.25000   0.45053   0.71730   0.00000  Uiso   1.00
Zn256  Zn    0.25000   0.04948   0.28270   0.00000  Uiso   1.00
Zn257  Zn    0.04947   0.25000   0.71730   0.00000  Uiso   1.00
Zn258  Zn    0.45052   0.25000   0.28270   0.00000  Uiso   1.00
Zn259  Zn    0.25000   0.04948   0.71730   0.00000  Uiso   1.00
Zn260  Zn    0.25000   0.45053   0.28270   0.00000  Uiso   1.00
Zn261  Zn    0.29947   0.00000   0.78270   0.00000  Uiso   1.00
Zn262  Zn   -0.00000   0.20053   0.21730   0.00000  Uiso   1.00
Zn263  Zn    0.00000   0.29948   0.78270   0.00000  Uiso   1.00
Zn264  Zn    0.29947   0.00000   0.21730   0.00000  Uiso   1.00
Zn265  Zn    0.20052   0.00000   0.78270   0.00000  Uiso   1.00
Zn266  Zn   -0.00000   0.29948   0.21730   0.00000  Uiso   1.00
Zn267  Zn    0.00000   0.20053   0.78270   0.00000  Uiso   1.00
Zn268  Zn    0.45052   0.25000   0.71730   0.00000  Uiso   1.00
C269   C     0.75000   0.00000   0.35584   0.00000  Uiso   1.00
C270   C     0.83002   0.41998   0.75000   0.00000  Uiso   1.00
C271   C     0.94082   0.20184   0.02011   0.00000  Uiso   1.00
C272   C     0.70181   0.05915   0.97989   0.00000  Uiso   1.00
C273   C     0.79819   0.44085   0.02011   0.00000  Uiso   1.00
C274   C     0.94082   0.20184   0.97989   0.00000  Uiso   1.00
C275   C     0.55918   0.29816   0.02011   0.00000  Uiso   1.00
C276   C     0.91998   0.16998   0.25000   0.00000  Uiso   1.00
C277   C     0.58002   0.33002   0.75000   0.00000  Uiso   1.00
C278   C     0.83002   0.41998   0.25000   0.00000  Uiso   1.00
C279   C     0.66998   0.08002   0.75000   0.00000  Uiso   1.00
C280   C     0.58002   0.33002   0.25000   0.00000  Uiso   1.00
C281   C     0.91998   0.16998   0.75000   0.00000  Uiso   1.00
C282   C     0.66998   0.41998   0.75000   0.00000  Uiso   1.00
C283   C     0.83002   0.08002   0.25000   0.00000  Uiso   1.00
C284   C     0.91998   0.33002   0.75000   0.00000  Uiso   1.00
C285   C     0.75000   0.00000   0.64416   0.00000  Uiso   1.00
C286   C     0.58002   0.16998   0.25000   0.00000  Uiso   1.00
C287   C     0.83002   0.08002   0.75000   0.00000  Uiso   1.00
C288   C     0.66998   0.41998   0.25000   0.00000  Uiso   1.00
C289   C     0.58002   0.16998   0.75000   0.00000  Uiso   1.00
C290   C     0.91998   0.33002   0.25000   0.00000  Uiso   1.00
C291   C     0.63833   0.38833   0.25000   0.00000  Uiso   1.00
C292   C     0.86167   0.11167   0.75000   0.00000  Uiso   1.00
C293   C     0.61167   0.13833   0.25000   0.00000  Uiso   1.00
C294   C     0.88833   0.36167   0.75000   0.00000  Uiso   1.00
C295   C     0.86167   0.11167   0.25000   0.00000  Uiso   1.00
C296   C     0.50000   0.25000   0.35584   0.00000  Uiso   1.00
C297   C     0.63833   0.38833   0.75000   0.00000  Uiso   1.00
C298   C     0.88833   0.36167   0.25000   0.00000  Uiso   1.00
C299   C     0.61167   0.13833   0.75000   0.00000  Uiso   1.00
C300   C     0.63833   0.11167   0.75000   0.00000  Uiso   1.00
C301   C     0.86167   0.38833   0.25000   0.00000  Uiso   1.00
C302   C     0.61167   0.36167   0.75000   0.00000  Uiso   1.00
C303   C     0.88833   0.13833   0.25000   0.00000  Uiso   1.00
C304   C     0.86167   0.38833   0.75000   0.00000  Uiso   1.00
C305   C     0.63833   0.11167   0.25000   0.00000  Uiso   1.00
C306   C     0.88833   0.13833   0.75000   0.00000  Uiso   1.00
C307   C     0.50000   0.25000   0.64416   0.00000  Uiso   1.00
C308   C     0.61167   0.36167   0.25000   0.00000  Uiso   1.00
C309   C     0.51918   0.28371   0.41815   0.00000  Uiso   1.00
C310   C     0.98082   0.21629   0.58185   0.00000  Uiso   1.00
C311   C     0.71626   0.01912   0.41814   0.00000  Uiso   1.00
C312   C     0.78374   0.48088   0.58185   0.00000  Uiso   1.00
C313   C     0.98082   0.21629   0.41815   0.00000  Uiso   1.00
C314   C     0.51918   0.28371   0.58185   0.00000  Uiso   1.00
C315   C     0.78374   0.48088   0.41814   0.00000  Uiso   1.00
C316   C     0.71625   0.01912   0.58185   0.00000  Uiso   1.00
C317   C     0.73084   0.03372   0.91815   0.00000  Uiso   1.00
C318   C     0.50000   0.25000   0.85584   0.00000  Uiso   1.00
C319   C     0.76916   0.46628   0.08185   0.00000  Uiso   1.00
C320   C     0.96627   0.23086   0.91814   0.00000  Uiso   1.00
C321   C     0.53373   0.26914   0.08185   0.00000  Uiso   1.00
C322   C     0.76916   0.46628   0.91815   0.00000  Uiso   1.00
C323   C     0.73084   0.03372   0.08185   0.00000  Uiso   1.00
C324   C     0.53373   0.26914   0.91814   0.00000  Uiso   1.00
C325   C     0.96627   0.23086   0.08185   0.00000  Uiso   1.00
C326   C     0.50000   0.25000   0.39803   0.00000  Uiso   1.00
C327   C     0.50000   0.25000   0.60197   0.00000  Uiso   1.00
C328   C     0.75000   0.00000   0.39803   0.00000  Uiso   1.00
C329   C     0.50000   0.25000   0.14416   0.00000  Uiso   1.00
C330   C     0.75000   0.00000   0.60197   0.00000  Uiso   1.00
C331   C     0.75000   0.00000   0.89803   0.00000  Uiso   1.00
C332   C     0.75000   0.00000   0.10197   0.00000  Uiso   1.00
C333   C     0.50000   0.25000   0.89803   0.00000  Uiso   1.00
C334   C     0.50000   0.25000   0.10197   0.00000  Uiso   1.00
C335   C     0.97743   0.21872   0.45892   0.00000  Uiso   1.00
C336   C     0.52257   0.28128   0.54108   0.00000  Uiso   1.00
C337   C     0.78132   0.47748   0.45892   0.00000  Uiso   1.00
C338   C     0.71868   0.02252   0.54108   0.00000  Uiso   1.00
C339   C     0.52257   0.28128   0.45892   0.00000  Uiso   1.00
C340   C     0.75000   0.00000   0.85584   0.00000  Uiso   1.00
C341   C     0.97743   0.21872   0.54108   0.00000  Uiso   1.00
C342   C     0.71868   0.02252   0.45892   0.00000  Uiso   1.00
C343   C     0.78132   0.47748   0.54108   0.00000  Uiso   1.00
C344   C     0.77255   0.46871   0.95892   0.00000  Uiso   1.00
C345   C     0.72744   0.03129   0.04108   0.00000  Uiso   1.00
C346   C     0.53131   0.27254   0.95892   0.00000  Uiso   1.00
C347   C     0.96869   0.22746   0.04108   0.00000  Uiso   1.00
C348   C     0.72744   0.03129   0.95892   0.00000  Uiso   1.00
C349   C     0.77255   0.46871   0.04108   0.00000  Uiso   1.00
C350   C     0.96869   0.22746   0.95892   0.00000  Uiso   1.00
C351   C     0.75000   0.00000   0.14416   0.00000  Uiso   1.00
C352   C     0.53131   0.27254   0.04108   0.00000  Uiso   1.00
C353   C     0.50000   0.25000   0.47940   0.00000  Uiso   1.00
C354   C     0.50000   0.25000   0.52060   0.00000  Uiso   1.00
C355   C     0.75000   0.00000   0.47940   0.00000  Uiso   1.00
C356   C     0.75000   0.00000   0.52060   0.00000  Uiso   1.00
C357   C     0.75000  -0.00000   0.97940   0.00000  Uiso   1.00
C358   C     0.75000  -0.00000   0.02060   0.00000  Uiso   1.00
C359   C     0.50000   0.25000   0.97940   0.00000  Uiso   1.00
C360   C     0.50000   0.25000   0.02060   0.00000  Uiso   1.00
C361   C     0.95177   0.19088   0.47989   0.00000  Uiso   1.00
C362   C     0.66998   0.08002   0.25000   0.00000  Uiso   1.00
C363   C     0.54823   0.30912   0.52011   0.00000  Uiso   1.00
C364   C     0.80921   0.45188   0.47989   0.00000  Uiso   1.00
C365   C     0.69079   0.04812   0.52010   0.00000  Uiso   1.00
C366   C     0.54823   0.30912   0.47989   0.00000  Uiso   1.00
C367   C     0.95177   0.19088   0.52011   0.00000  Uiso   1.00
C368   C     0.69079   0.04812   0.47989   0.00000  Uiso   1.00
C369   C     0.80921   0.45188   0.52011   0.00000  Uiso   1.00
C370   C     0.79819   0.44085   0.97989   0.00000  Uiso   1.00
C371   C     0.70181   0.05915   0.02011   0.00000  Uiso   1.00
C372   C     0.55918   0.29816   0.97989   0.00000  Uiso   1.00
H373   H     0.93059   0.16928   0.46562   0.00000  Uiso   1.00
H374   H     0.68065   0.08076   0.03438   0.00000  Uiso   1.00
H375   H     0.58081   0.31930   0.96562   0.00000  Uiso   1.00
H376   H     0.91920   0.18070   0.03438   0.00000  Uiso   1.00
H377   H     0.68065   0.08076   0.96562   0.00000  Uiso   1.00
H378   H     0.81935   0.41924   0.03438   0.00000  Uiso   1.00
H379   H     0.91920   0.18069   0.96562   0.00000  Uiso   1.00
H380   H     0.58081   0.31930   0.03437   0.00000  Uiso   1.00
H381   H     0.52845   0.35755   0.33585   0.00000  Uiso   1.00
H382   H     0.97159   0.14241   0.66413   0.00000  Uiso   1.00
H383   H     0.64240   0.02833   0.33584   0.00000  Uiso   1.00
H384   H     0.56940   0.33072   0.53438   0.00000  Uiso   1.00
H385   H     0.85753   0.47163   0.66420   0.00000  Uiso   1.00
H386   H     0.97155   0.14245   0.33585   0.00000  Uiso   1.00
H387   H     0.52845   0.35755   0.66415   0.00000  Uiso   1.00
H388   H     0.85762   0.47169   0.33585   0.00000  Uiso   1.00
H389   H     0.64150   0.02762   0.66368   0.00000  Uiso   1.00
H390   H     0.72171   0.10772   0.83592   0.00000  Uiso   1.00
H391   H     0.77837   0.39238   0.16413   0.00000  Uiso   1.00
H392   H     0.89247   0.22159   0.83582   0.00000  Uiso   1.00
H393   H     0.60765   0.27833   0.16412   0.00000  Uiso   1.00
H394   H     0.77843   0.39247   0.83583   0.00000  Uiso   1.00
H395   H     0.83084   0.43074   0.46562   0.00000  Uiso   1.00
H396   H     0.72164   0.10763   0.16412   0.00000  Uiso   1.00
H397   H     0.60764   0.27833   0.83587   0.00000  Uiso   1.00
H398   H     0.89232   0.22170   0.16411   0.00000  Uiso   1.00
H399   H     0.66914   0.06924   0.53437   0.00000  Uiso   1.00
H400   H     0.56940   0.33072   0.46562   0.00000  Uiso   1.00
H401   H     0.93059   0.16928   0.53438   0.00000  Uiso   1.00
H402   H     0.66915   0.06925   0.46562   0.00000  Uiso   1.00
H403   H     0.83084   0.43075   0.53437   0.00000  Uiso   1.00
H404   H     0.81935   0.41924   0.96562   0.00000  Uiso   1.00
O405   O     0.75000   0.00000   0.25000   0.00000  Uiso   1.00
O406   O     0.75000   0.46539   0.66251   0.00000  Uiso   1.00
O407   O     0.91398   0.23818   0.15010   0.00000  Uiso   1.00
O408   O     0.96538   0.25000   0.33749   0.00000  Uiso   1.00
O409   O     0.53461   0.25000   0.66251   0.00000  Uiso   1.00
O410   O     0.50000   0.21539   0.83749   0.00000  Uiso   1.00
O411   O     0.50000   0.28462   0.16251   0.00000  Uiso   1.00
O412   O     0.78461   0.00000   0.83749   0.00000  Uiso   1.00
O413   O     0.71538   0.00000   0.16251   0.00000  Uiso   1.00
O414   O     0.50000   0.28462   0.83749   0.00000  Uiso   1.00
O415   O     0.50000   0.21539   0.16251   0.00000  Uiso   1.00
O416   O     0.71538   0.00000   0.83749   0.00000  Uiso   1.00
O417   O     0.75000   0.00000   0.75000   0.00000  Uiso   1.00
O418   O     0.78461   0.00000   0.16251   0.00000  Uiso   1.00
O419   O     0.70126   0.08332   0.27298   0.00000  Uiso   1.00
O420   O     0.79873   0.41668   0.72702   0.00000  Uiso   1.00
O421   O     0.91668   0.20127   0.27298   0.00000  Uiso   1.00
O422   O     0.58332   0.29874   0.72702   0.00000  Uiso   1.00
O423   O     0.79873   0.41668   0.27298   0.00000  Uiso   1.00
O424   O     0.70126   0.08332   0.72702   0.00000  Uiso   1.00
O425   O     0.58332   0.29874   0.27298   0.00000  Uiso   1.00
O426   O     0.91668   0.20127   0.72702   0.00000  Uiso   1.00
O427   O     0.70126   0.41668   0.72702   0.00000  Uiso   1.00
O428   O     0.50000   0.25000   0.25000   0.00000  Uiso   1.00
O429   O     0.79873   0.08332   0.27298   0.00000  Uiso   1.00
O430   O     0.91668   0.29874   0.72702   0.00000  Uiso   1.00
O431   O     0.58332   0.20127   0.27298   0.00000  Uiso   1.00
O432   O     0.79873   0.08332   0.72702   0.00000  Uiso   1.00
O433   O     0.70126   0.41668   0.27298   0.00000  Uiso   1.00
O434   O     0.58332   0.20127   0.72702   0.00000  Uiso   1.00
O435   O     0.91668   0.29874   0.27298   0.00000  Uiso   1.00
O436   O     0.95126   0.33332   0.77298   0.00000  Uiso   1.00
O437   O     0.54873   0.16668   0.22702   0.00000  Uiso   1.00
O438   O     0.66668   0.45127   0.77298   0.00000  Uiso   1.00
O439   O     0.50000   0.25000   0.75000   0.00000  Uiso   1.00
O440   O     0.83332   0.04874   0.22702   0.00000  Uiso   1.00
O441   O     0.54873   0.16668   0.77298   0.00000  Uiso   1.00
O442   O     0.95126   0.33332   0.22702   0.00000  Uiso   1.00
O443   O     0.83332   0.04874   0.77298   0.00000  Uiso   1.00
O444   O     0.66668   0.45127   0.22702   0.00000  Uiso   1.00
O445   O     0.95126   0.16668   0.22702   0.00000  Uiso   1.00
O446   O     0.54873   0.33332   0.77298   0.00000  Uiso   1.00
O447   O     0.66668   0.04874   0.22702   0.00000  Uiso   1.00
O448   O     0.83332   0.45127   0.77298   0.00000  Uiso   1.00
O449   O     0.54873   0.33332   0.22702   0.00000  Uiso   1.00
O450   O     0.75000   0.46539   0.33749   0.00000  Uiso   1.00
O451   O     0.95126   0.16668   0.77298   0.00000  Uiso   1.00
O452   O     0.83332   0.45127   0.22702   0.00000  Uiso   1.00
O453   O     0.66668   0.04874   0.77298   0.00000  Uiso   1.00
O454   O     0.52825   0.36845   0.41664   0.00000  Uiso   1.00
O455   O     0.58314   0.32602   0.38565   0.00000  Uiso   1.00
O456   O     0.51187   0.33603   0.34992   0.00000  Uiso   1.00
O457   O     0.91686   0.17398   0.61434   0.00000  Uiso   1.00
O458   O     0.97176   0.13155   0.58335   0.00000  Uiso   1.00
O459   O     0.98813   0.16397   0.65008   0.00000  Uiso   1.00
O460   O     0.63150   0.02804   0.41662   0.00000  Uiso   1.00
O461   O     0.75000   0.03462   0.66251   0.00000  Uiso   1.00
O462   O     0.67384   0.08304   0.38569   0.00000  Uiso   1.00
O463   O     0.66398   0.01179   0.34989   0.00000  Uiso   1.00
O464   O     0.82615   0.41696   0.61431   0.00000  Uiso   1.00
O465   O     0.86849   0.47195   0.58338   0.00000  Uiso   1.00
O466   O     0.83602   0.48822   0.65011   0.00000  Uiso   1.00
O467   O     0.97175   0.13155   0.41664   0.00000  Uiso   1.00
O468   O     0.91686   0.17398   0.38566   0.00000  Uiso   1.00
O469   O     0.98813   0.16397   0.34992   0.00000  Uiso   1.00
O470   O     0.58314   0.32602   0.61434   0.00000  Uiso   1.00
O471   O     0.52824   0.36845   0.58336   0.00000  Uiso   1.00
O472   O     0.53461   0.25000   0.33749   0.00000  Uiso   1.00
O473   O     0.51187   0.33603   0.65008   0.00000  Uiso   1.00
O474   O     0.86849   0.47196   0.41663   0.00000  Uiso   1.00
O475   O     0.82615   0.41696   0.38569   0.00000  Uiso   1.00
O476   O     0.83602   0.48821   0.34989   0.00000  Uiso   1.00
O477   O     0.67377   0.08303   0.61426   0.00000  Uiso   1.00
O478   O     0.63151   0.02795   0.58336   0.00000  Uiso   1.00
O479   O     0.66398   0.01182   0.65012   0.00000  Uiso   1.00
O480   O     0.66690   0.07608   0.88567   0.00000  Uiso   1.00
O481   O     0.72184   0.11846   0.91664   0.00000  Uiso   1.00
O482   O     0.73816   0.08603   0.84991   0.00000  Uiso   1.00
O483   O     0.96538   0.25000   0.66251   0.00000  Uiso   1.00
O484   O     0.77817   0.38153   0.08336   0.00000  Uiso   1.00
O485   O     0.83310   0.42393   0.11433   0.00000  Uiso   1.00
O486   O     0.76184   0.41397   0.15009   0.00000  Uiso   1.00
O487   O     0.92389   0.16692   0.88568   0.00000  Uiso   1.00
O488   O     0.88152   0.22189   0.91663   0.00000  Uiso   1.00
O489   O     0.91398   0.23818   0.84990   0.00000  Uiso   1.00
O490   O     0.61848   0.27809   0.08337   0.00000  Uiso   1.00
O491   O     0.57612   0.33307   0.11431   0.00000  Uiso   1.00
O492   O     0.58602   0.26183   0.15011   0.00000  Uiso   1.00
O493   O     0.83310   0.42394   0.88567   0.00000  Uiso   1.00
O494   O     0.75000   0.03462   0.33749   0.00000  Uiso   1.00
O495   O     0.77817   0.38153   0.91663   0.00000  Uiso   1.00
O496   O     0.76184   0.41398   0.84991   0.00000  Uiso   1.00
O497   O     0.72183   0.11847   0.08336   0.00000  Uiso   1.00
O498   O     0.66690   0.07607   0.11433   0.00000  Uiso   1.00
O499   O     0.73816   0.08603   0.15009   0.00000  Uiso   1.00
O500   O     0.57612   0.33307   0.88569   0.00000  Uiso   1.00
O501   O     0.61848   0.27810   0.91663   0.00000  Uiso   1.00
O502   O     0.58602   0.26182   0.84990   0.00000  Uiso   1.00
O503   O     0.88152   0.22190   0.08337   0.00000  Uiso   1.00
O504   O     0.92388   0.16693   0.11431   0.00000  Uiso   1.00
S505   S     0.53663   0.32981   0.39270   0.00000  Uiso   1.00
S506   S     0.78659   0.42017   0.10730   0.00000  Uiso   1.00
S507   S     0.92016   0.21344   0.89270   0.00000  Uiso   1.00
S508   S     0.57985   0.28655   0.10730   0.00000  Uiso   1.00
S509   S     0.78659   0.42017   0.89270   0.00000  Uiso   1.00
S510   S     0.71341   0.07983   0.10730   0.00000  Uiso   1.00
S511   S     0.57984   0.28655   0.89270   0.00000  Uiso   1.00
S512   S     0.92016   0.21345   0.10730   0.00000  Uiso   1.00
S513   S     0.96337   0.17019   0.60729   0.00000  Uiso   1.00
S514   S     0.67014   0.03651   0.39270   0.00000  Uiso   1.00
S515   S     0.82986   0.46348   0.60730   0.00000  Uiso   1.00
S516   S     0.96337   0.17019   0.39270   0.00000  Uiso   1.00
S517   S     0.53663   0.32981   0.60729   0.00000  Uiso   1.00
S518   S     0.82986   0.46348   0.39270   0.00000  Uiso   1.00
S519   S     0.67013   0.03650   0.60729   0.00000  Uiso   1.00
S520   S     0.71341   0.07983   0.89270   0.00000  Uiso   1.00
Zn521  Zn    0.70052   0.00000   0.21730   0.00000  Uiso   1.00
Zn522  Zn    0.54947   0.25000   0.28270   0.00000  Uiso   1.00
Zn523  Zn    0.75000   0.45053   0.71730   0.00000  Uiso   1.00
Zn524  Zn    0.75000   0.04948   0.28270   0.00000  Uiso   1.00
Zn525  Zn    0.54947   0.25000   0.71730   0.00000  Uiso   1.00
Zn526  Zn    0.95052   0.25000   0.28270   0.00000  Uiso   1.00
Zn527  Zn    0.75000   0.04948   0.71730   0.00000  Uiso   1.00
Zn528  Zn    0.75000   0.45053   0.28270   0.00000  Uiso   1.00
Zn529  Zn    0.79947   0.00000   0.78270   0.00000  Uiso   1.00
Zn530  Zn    0.50000   0.20053   0.21730   0.00000  Uiso   1.00
Zn531  Zn    0.50000   0.29948   0.78270   0.00000  Uiso   1.00
Zn532  Zn    0.79947   0.00000   0.21730   0.00000  Uiso   1.00
Zn533  Zn    0.70052   0.00000   0.78270   0.00000  Uiso   1.00
Zn534  Zn    0.50000   0.29948   0.21730   0.00000  Uiso   1.00
Zn535  Zn    0.50000   0.20053   0.78270   0.00000  Uiso   1.00
Zn536  Zn    0.95052   0.25000   0.71730   0.00000  Uiso   1.00
C537   C     0.25000   0.50000   0.35584   0.00000  Uiso   1.00
C538   C     0.33002   0.91998   0.75000   0.00000  Uiso   1.00
C539   C     0.44082   0.70184   0.02011   0.00000  Uiso   1.00
C540   C     0.20181   0.55915   0.97989   0.00000  Uiso   1.00
C541   C     0.29819   0.94085   0.02011   0.00000  Uiso   1.00
C542   C     0.44082   0.70184   0.97989   0.00000  Uiso   1.00
C543   C     0.05918   0.79816   0.02011   0.00000  Uiso   1.00
C544   C     0.41998   0.66998   0.25000   0.00000  Uiso   1.00
C545   C     0.08002   0.83002   0.75000   0.00000  Uiso   1.00
C546   C     0.33002   0.91998   0.25000   0.00000  Uiso   1.00
C547   C     0.16998   0.58002   0.75000   0.00000  Uiso   1.00
C548   C     0.08002   0.83002   0.25000   0.00000  Uiso   1.00
C549   C     0.41998   0.66998   0.75000   0.00000  Uiso   1.00
C550   C     0.16998   0.91998   0.75000   0.00000  Uiso   1.00
C551   C     0.33002   0.58002   0.25000   0.00000  Uiso   1.00
C552   C     0.41998   0.83002   0.75000   0.00000  Uiso   1.00
C553   C     0.25000   0.50000   0.64416   0.00000  Uiso   1.00
C554   C     0.08002   0.66998   0.25000   0.00000  Uiso   1.00
C555   C     0.33002   0.58002   0.75000   0.00000  Uiso   1.00
C556   C     0.16998   0.91998   0.25000   0.00000  Uiso   1.00
C557   C     0.08002   0.66998   0.75000   0.00000  Uiso   1.00
C558   C     0.41998   0.83002   0.25000   0.00000  Uiso   1.00
C559   C     0.13833   0.88833   0.25000   0.00000  Uiso   1.00
C560   C     0.36167   0.61167   0.75000   0.00000  Uiso   1.00
C561   C     0.11167   0.63833   0.25000   0.00000  Uiso   1.00
C562   C     0.38833   0.86167   0.75000   0.00000  Uiso   1.00
C563   C     0.36167   0.61167   0.25000   0.00000  Uiso   1.00
C564   C     0.00000   0.75000   0.35584   0.00000  Uiso   1.00
C565   C     0.13833   0.88833   0.75000   0.00000  Uiso   1.00
C566   C     0.38833   0.86167   0.25000   0.00000  Uiso   1.00
C567   C     0.11167   0.63833   0.75000   0.00000  Uiso   1.00
C568   C     0.13833   0.61167   0.75000   0.00000  Uiso   1.00
C569   C     0.36167   0.88833   0.25000   0.00000  Uiso   1.00
C570   C     0.11167   0.86167   0.75000   0.00000  Uiso   1.00
C571   C     0.38833   0.63833   0.25000   0.00000  Uiso   1.00
C572   C     0.36167   0.88833   0.75000   0.00000  Uiso   1.00
C573   C     0.13833   0.61167   0.25000   0.00000  Uiso   1.00
C574   C     0.38833   0.63833   0.75000   0.00000  Uiso   1.00
C575   C    -0.00000   0.75000   0.64416   0.00000  Uiso   1.00
C576   C     0.11167   0.86167   0.25000   0.00000  Uiso   1.00
C577   C     0.01918   0.78371   0.41815   0.00000  Uiso   1.00
C578   C     0.48082   0.71629   0.58185   0.00000  Uiso   1.00
C579   C     0.21626   0.51912   0.41814   0.00000  Uiso   1.00
C580   C     0.28374   0.98088   0.58185   0.00000  Uiso   1.00
C581   C     0.48082   0.71629   0.41815   0.00000  Uiso   1.00
C582   C     0.01918   0.78371   0.58185   0.00000  Uiso   1.00
C583   C     0.28374   0.98088   0.41814   0.00000  Uiso   1.00
C584   C     0.21625   0.51912   0.58185   0.00000  Uiso   1.00
C585   C     0.23084   0.53372   0.91815   0.00000  Uiso   1.00
C586   C     0.00000   0.75000   0.85584   0.00000  Uiso   1.00
C587   C     0.26916   0.96628   0.08185   0.00000  Uiso   1.00
C588   C     0.46627   0.73086   0.91814   0.00000  Uiso   1.00
C589   C     0.03373   0.76914   0.08185   0.00000  Uiso   1.00
C590   C     0.26916   0.96628   0.91815   0.00000  Uiso   1.00
C591   C     0.23084   0.53372   0.08185   0.00000  Uiso   1.00
C592   C     0.03373   0.76914   0.91814   0.00000  Uiso   1.00
C593   C     0.46627   0.73086   0.08185   0.00000  Uiso   1.00
C594   C     0.00000   0.75000   0.39803   0.00000  Uiso   1.00
C595   C    -0.00000   0.75000   0.60197   0.00000  Uiso   1.00
C596   C     0.25000   0.50000   0.39803   0.00000  Uiso   1.00
C597   C     0.00000   0.75000   0.14416   0.00000  Uiso   1.00
C598   C     0.25000   0.50000   0.60197   0.00000  Uiso   1.00
C599   C     0.25000   0.50000   0.89803   0.00000  Uiso   1.00
C600   C     0.25000   0.50000   0.10197   0.00000  Uiso   1.00
C601   C     0.00000   0.75000   0.89803   0.00000  Uiso   1.00
C602   C     0.00000   0.75000   0.10197   0.00000  Uiso   1.00
C603   C     0.47743   0.71872   0.45892   0.00000  Uiso   1.00
C604   C     0.02257   0.78128   0.54108   0.00000  Uiso   1.00
C605   C     0.28132   0.97748   0.45892   0.00000  Uiso   1.00
C606   C     0.21868   0.52252   0.54108   0.00000  Uiso   1.00
C607   C     0.02257   0.78128   0.45892   0.00000  Uiso   1.00
C608   C     0.25000   0.50000   0.85584   0.00000  Uiso   1.00
C609   C     0.47743   0.71872   0.54108   0.00000  Uiso   1.00
C610   C     0.21868   0.52252   0.45892   0.00000  Uiso   1.00
C611   C     0.28132   0.97748   0.54108   0.00000  Uiso   1.00
C612   C     0.27255   0.96871   0.95892   0.00000  Uiso   1.00
C613   C     0.22744   0.53129   0.04108   0.00000  Uiso   1.00
C614   C     0.03131   0.77254   0.95892   0.00000  Uiso   1.00
C615   C     0.46869   0.72746   0.04108   0.00000  Uiso   1.00
C616   C     0.22744   0.53129   0.95892   0.00000  Uiso   1.00
C617   C     0.27255   0.96871   0.04108   0.00000  Uiso   1.00
C618   C     0.46869   0.72746   0.95892   0.00000  Uiso   1.00
C619   C     0.25000   0.50000   0.14416   0.00000  Uiso   1.00
C620   C     0.03131   0.77254   0.04108   0.00000  Uiso   1.00
C621   C    -0.00000   0.75000   0.47940   0.00000  Uiso   1.00
C622   C    -0.00000   0.75000   0.52060   0.00000  Uiso   1.00
C623   C     0.25000   0.50000   0.47940   0.00000  Uiso   1.00
C624   C     0.25000   0.50000   0.52060   0.00000  Uiso   1.00
C625   C     0.25000   0.50000   0.97940   0.00000  Uiso   1.00
C626   C     0.25000   0.50000   0.02060   0.00000  Uiso   1.00
C627   C     0.00000   0.75000   0.97940   0.00000  Uiso   1.00
C628   C     0.00000   0.75000   0.02060   0.00000  Uiso   1.00
C629   C     0.45177   0.69088   0.47989   0.00000  Uiso   1.00
C630   C     0.16998   0.58002   0.25000   0.00000  Uiso   1.00
C631   C     0.04823   0.80912   0.52011   0.00000  Uiso   1.00
C632   C     0.30921   0.95188   0.47989   0.00000  Uiso   1.00
C633   C     0.19079   0.54812   0.52010   0.00000  Uiso   1.00
C634   C     0.04823   0.80912   0.47989   0.00000  Uiso   1.00
C635   C     0.45177   0.69088   0.52011   0.00000  Uiso   1.00
C636   C     0.19079   0.54812   0.47989   0.00000  Uiso   1.00
C637   C     0.30921   0.95188   0.52011   0.00000  Uiso   1.00
C638   C     0.29819   0.94085   0.97989   0.00000  Uiso   1.00
C639   C     0.20181   0.55915   0.02011   0.00000  Uiso   1.00
C640   C     0.05918   0.79816   0.97989   0.00000  Uiso   1.00
H641   H     0.43059   0.66928   0.46562   0.00000  Uiso   1.00
H642   H     0.18065   0.58076   0.03438   0.00000  Uiso   1.00
H643   H     0.08081   0.81930   0.96562   0.00000  Uiso   1.00
H644   H     0.41920   0.68070   0.03438   0.00000  Uiso   1.00
H645   H     0.18065   0.58076   0.96562   0.00000  Uiso   1.00
H646   H     0.31935   0.91924   0.03438   0.00000  Uiso   1.00
H647   H     0.41920   0.68069   0.96562   0.00000  Uiso   1.00
H648   H     0.08081   0.81930   0.03437   0.00000  Uiso   1.00
H649   H     0.02845   0.85755   0.33585   0.00000  Uiso   1.00
H650   H     0.47159   0.64241   0.66413   0.00000  Uiso   1.00
H651   H     0.14240   0.52833   0.33584   0.00000  Uiso   1.00
H652   H     0.06940   0.83072   0.53438   0.00000  Uiso   1.00
H653   H     0.35753   0.97163   0.66420   0.00000  Uiso   1.00
H654   H     0.47155   0.64245   0.33585   0.00000  Uiso   1.00
H655   H     0.02845   0.85755   0.66415   0.00000  Uiso   1.00
H656   H     0.35762   0.97169   0.33585   0.00000  Uiso   1.00
H657   H     0.14150   0.52762   0.66368   0.00000  Uiso   1.00
H658   H     0.22171   0.60772   0.83592   0.00000  Uiso   1.00
H659   H     0.27837   0.89238   0.16413   0.00000  Uiso   1.00
H660   H     0.39247   0.72159   0.83582   0.00000  Uiso   1.00
H661   H     0.10765   0.77833   0.16412   0.00000  Uiso   1.00
H662   H     0.27843   0.89247   0.83583   0.00000  Uiso   1.00
H663   H     0.33084   0.93074   0.46562   0.00000  Uiso   1.00
H664   H     0.22164   0.60763   0.16412   0.00000  Uiso   1.00
H665   H     0.10764   0.77833   0.83587   0.00000  Uiso   1.00
H666   H     0.39232   0.72170   0.16411   0.00000  Uiso   1.00
H667   H     0.16914   0.56924   0.53437   0.00000  Uiso   1.00
H668   H     0.06940   0.83072   0.46562   0.00000  Uiso   1.00
H669   H     0.43059   0.66928   0.53438   0.00000  Uiso   1.00
H670   H     0.16915   0.56925   0.46562   0.00000  Uiso   1.00
H671   H     0.33084   0.93075   0.53437   0.00000  Uiso   1.00
H672   H     0.31935   0.91924   0.96562   0.00000  Uiso   1.00
O673   O     0.25000   0.50000   0.25000   0.00000  Uiso   1.00
O674   O     0.25000   0.96539   0.66251   0.00000  Uiso   1.00
O675   O     0.41398   0.73818   0.15010   0.00000  Uiso   1.00
O676   O     0.46538   0.75000   0.33749   0.00000  Uiso   1.00
O677   O     0.03461   0.75000   0.66251   0.00000  Uiso   1.00
O678   O     0.00000   0.71539   0.83749   0.00000  Uiso   1.00
O679   O     0.00000   0.78462   0.16251   0.00000  Uiso   1.00
O680   O     0.28461   0.50000   0.83749   0.00000  Uiso   1.00
O681   O     0.21538   0.50000   0.16251   0.00000  Uiso   1.00
O682   O     0.00000   0.78462   0.83749   0.00000  Uiso   1.00
O683   O     0.00000   0.71539   0.16251   0.00000  Uiso   1.00
O684   O     0.21538   0.50000   0.83749   0.00000  Uiso   1.00
O685   O     0.25000   0.50000   0.75000   0.00000  Uiso   1.00
O686   O     0.28461   0.50000   0.16251   0.00000  Uiso   1.00
O687   O     0.20126   0.58332   0.27298   0.00000  Uiso   1.00
O688   O     0.29873   0.91668   0.72702   0.00000  Uiso   1.00
O689   O     0.41668   0.70127   0.27298   0.00000  Uiso   1.00
O690   O     0.08332   0.79874   0.72702   0.00000  Uiso   1.00
O691   O     0.29873   0.91668   0.27298   0.00000  Uiso   1.00
O692   O     0.20126   0.58332   0.72702   0.00000  Uiso   1.00
O693   O     0.08332   0.79874   0.27298   0.00000  Uiso   1.00
O694   O     0.41668   0.70127   0.72702   0.00000  Uiso   1.00
O695   O     0.20126   0.91668   0.72702   0.00000  Uiso   1.00
O696   O    -0.00000   0.75000   0.25000   0.00000  Uiso   1.00
O697   O     0.29873   0.58332   0.27298   0.00000  Uiso   1.00
O698   O     0.41668   0.79874   0.72702   0.00000  Uiso   1.00
O699   O     0.08332   0.70127   0.27298   0.00000  Uiso   1.00
O700   O     0.29873   0.58332   0.72702   0.00000  Uiso   1.00
O701   O     0.20126   0.91668   0.27298   0.00000  Uiso   1.00
O702   O     0.08332   0.70127   0.72702   0.00000  Uiso   1.00
O703   O     0.41668   0.79874   0.27298   0.00000  Uiso   1.00
O704   O     0.45126   0.83332   0.77298   0.00000  Uiso   1.00
O705   O     0.04873   0.66668   0.22702   0.00000  Uiso   1.00
O706   O     0.16668   0.95127   0.77298   0.00000  Uiso   1.00
O707   O     0.00000   0.75000   0.75000   0.00000  Uiso   1.00
O708   O     0.33332   0.54874   0.22702   0.00000  Uiso   1.00
O709   O     0.04873   0.66668   0.77298   0.00000  Uiso   1.00
O710   O     0.45126   0.83332   0.22702   0.00000  Uiso   1.00
O711   O     0.33332   0.54874   0.77298   0.00000  Uiso   1.00
O712   O     0.16668   0.95127   0.22702   0.00000  Uiso   1.00
O713   O     0.45126   0.66668   0.22702   0.00000  Uiso   1.00
O714   O     0.04873   0.83332   0.77298   0.00000  Uiso   1.00
O715   O     0.16668   0.54874   0.22702   0.00000  Uiso   1.00
O716   O     0.33332   0.95127   0.77298   0.00000  Uiso   1.00
O717   O     0.04873   0.83332   0.22702   0.00000  Uiso   1.00
O718   O     0.25000   0.96539   0.33749   0.00000  Uiso   1.00
O719   O     0.45126   0.66668   0.77298   0.00000  Uiso   1.00
O720   O     0.33332   0.95127   0.22702   0.00000  Uiso   1.00
O721   O     0.16668   0.54874   0.77298   0.00000  Uiso   1.00
O722   O     0.02825   0.86845   0.41664   0.00000  Uiso   1.00
O723   O     0.08314   0.82602   0.38565   0.00000  Uiso   1.00
O724   O     0.01187   0.83603   0.34992   0.00000  Uiso   1.00
O725   O     0.41686   0.67398   0.61434   0.00000  Uiso   1.00
O726   O     0.47176   0.63155   0.58335   0.00000  Uiso   1.00
O727   O     0.48813   0.66397   0.65008   0.00000  Uiso   1.00
O728   O     0.13150   0.52804   0.41662   0.00000  Uiso   1.00
O729   O     0.25000   0.53462   0.66251   0.00000  Uiso   1.00
O730   O     0.17384   0.58304   0.38569   0.00000  Uiso   1.00
O731   O     0.16398   0.51179   0.34989   0.00000  Uiso   1.00
O732   O     0.32615   0.91696   0.61431   0.00000  Uiso   1.00
O733   O     0.36849   0.97195   0.58338   0.00000  Uiso   1.00
O734   O     0.33602   0.98822   0.65011   0.00000  Uiso   1.00
O735   O     0.47175   0.63155   0.41664   0.00000  Uiso   1.00
O736   O     0.41686   0.67398   0.38566   0.00000  Uiso   1.00
O737   O     0.48813   0.66397   0.34992   0.00000  Uiso   1.00
O738   O     0.08314   0.82602   0.61434   0.00000  Uiso   1.00
O739   O     0.02824   0.86845   0.58336   0.00000  Uiso   1.00
O740   O     0.03461   0.75000   0.33749   0.00000  Uiso   1.00
O741   O     0.01187   0.83603   0.65008   0.00000  Uiso   1.00
O742   O     0.36849   0.97196   0.41663   0.00000  Uiso   1.00
O743   O     0.32615   0.91696   0.38569   0.00000  Uiso   1.00
O744   O     0.33602   0.98821   0.34989   0.00000  Uiso   1.00
O745   O     0.17377   0.58303   0.61426   0.00000  Uiso   1.00
O746   O     0.13151   0.52795   0.58336   0.00000  Uiso   1.00
O747   O     0.16398   0.51182   0.65012   0.00000  Uiso   1.00
O748   O     0.16690   0.57608   0.88567   0.00000  Uiso   1.00
O749   O     0.22184   0.61846   0.91664   0.00000  Uiso   1.00
O750   O     0.23816   0.58603   0.84991   0.00000  Uiso   1.00
O751   O     0.46538   0.75000   0.66251   0.00000  Uiso   1.00
O752   O     0.27817   0.88153   0.08336   0.00000  Uiso   1.00
O753   O     0.33310   0.92393   0.11433   0.00000  Uiso   1.00
O754   O     0.26184   0.91397   0.15009   0.00000  Uiso   1.00
O755   O     0.42389   0.66692   0.88568   0.00000  Uiso   1.00
O756   O     0.38152   0.72189   0.91663   0.00000  Uiso   1.00
O757   O     0.41398   0.73818   0.84990   0.00000  Uiso   1.00
O758   O     0.11848   0.77809   0.08337   0.00000  Uiso   1.00
O759   O     0.07612   0.83307   0.11431   0.00000  Uiso   1.00
O760   O     0.08602   0.76183   0.15011   0.00000  Uiso   1.00
O761   O     0.33310   0.92394   0.88567   0.00000  Uiso   1.00
O762   O     0.25000   0.53462   0.33749   0.00000  Uiso   1.00
O763   O     0.27817   0.88153   0.91663   0.00000  Uiso   1.00
O764   O     0.26184   0.91398   0.84991   0.00000  Uiso   1.00
O765   O     0.22183   0.61847   0.08336   0.00000  Uiso   1.00
O766   O     0.16690   0.57607   0.11433   0.00000  Uiso   1.00
O767   O     0.23816   0.58603   0.15009   0.00000  Uiso   1.00
O768   O     0.07612   0.83307   0.88569   0.00000  Uiso   1.00
O769   O     0.11848   0.77810   0.91663   0.00000  Uiso   1.00
O770   O     0.08602   0.76182   0.84990   0.00000  Uiso   1.00
O771   O     0.38152   0.72190   0.08337   0.00000  Uiso   1.00
O772   O     0.42388   0.66693   0.11431   0.00000  Uiso   1.00
S773   S     0.03663   0.82981   0.39270   0.00000  Uiso   1.00
S774   S     0.28659   0.92017   0.10730   0.00000  Uiso   1.00
S775   S     0.42016   0.71344   0.89270   0.00000  Uiso   1.00
S776   S     0.07985   0.78655   0.10730   0.00000  Uiso   1.00
S777   S     0.28659   0.92017   0.89270   0.00000  Uiso   1.00
S778   S     0.21341   0.57983   0.10730   0.00000  Uiso   1.00
S779   S     0.07984   0.78655   0.89270   0.00000  Uiso   1.00
S780   S     0.42016   0.71345   0.10730   0.00000  Uiso   1.00
S781   S     0.46337   0.67019   0.60729   0.00000  Uiso   1.00
S782   S     0.17014   0.53651   0.39270   0.00000  Uiso   1.00
S783   S     0.32986   0.96348   0.60730   0.00000  Uiso   1.00
S784   S     0.46337   0.67019   0.39270   0.00000  Uiso   1.00
S785   S     0.03663   0.82981   0.60729   0.00000  Uiso   1.00
S786   S     0.32986   0.96348   0.39270   0.00000  Uiso   1.00
S787   S     0.17013   0.53650   0.60729   0.00000  Uiso   1.00
S788   S     0.21341   0.57983   0.89270   0.00000  Uiso   1.00
Zn789  Zn    0.20052   0.50000   0.21730   0.00000  Uiso   1.00
Zn790  Zn    0.04947   0.75000   0.28270   0.00000  Uiso   1.00
Zn791  Zn    0.25000   0.95053   0.71730   0.00000  Uiso   1.00
Zn792  Zn    0.25000   0.54948   0.28270   0.00000  Uiso   1.00
Zn793  Zn    0.04947   0.75000   0.71730   0.00000  Uiso   1.00
Zn794  Zn    0.45052   0.75000   0.28270   0.00000  Uiso   1.00
Zn795  Zn    0.25000   0.54948   0.71730   0.00000  Uiso   1.00
Zn796  Zn    0.25000   0.95053   0.28270   0.00000  Uiso   1.00
Zn797  Zn    0.29947   0.50000   0.78270   0.00000  Uiso   1.00
Zn798  Zn   -0.00000   0.70053   0.21730   0.00000  Uiso   1.00
Zn799  Zn    0.00000   0.79948   0.78270   0.00000  Uiso   1.00
Zn800  Zn    0.29947   0.50000   0.21730   0.00000  Uiso   1.00
Zn801  Zn    0.20052   0.50000   0.78270   0.00000  Uiso   1.00
Zn802  Zn   -0.00000   0.79948   0.21730   0.00000  Uiso   1.00
Zn803  Zn    0.00000   0.70053   0.78270   0.00000  Uiso   1.00
Zn804  Zn    0.45052   0.75000   0.71730   0.00000  Uiso   1.00
C805   C     0.75000   0.50000   0.35584   0.00000  Uiso   1.00
C806   C     0.83002   0.91998   0.75000   0.00000  Uiso   1.00
C807   C     0.94082   0.70184   0.02011   0.00000  Uiso   1.00
C808   C     0.70181   0.55915   0.97989   0.00000  Uiso   1.00
C809   C     0.79819   0.94085   0.02011   0.00000  Uiso   1.00
C810   C     0.94082   0.70184   0.97989   0.00000  Uiso   1.00
C811   C     0.55918   0.79816   0.02011   0.00000  Uiso   1.00
C812   C     0.91998   0.66998   0.25000   0.00000  Uiso   1.00
C813   C     0.58002   0.83002   0.75000   0.00000  Uiso   1.00
C814   C     0.83002   0.91998   0.25000   0.00000  Uiso   1.00
C815   C     0.66998   0.58002   0.75000   0.00000  Uiso   1.00
C816   C     0.58002   0.83002   0.25000   0.00000  Uiso   1.00
C817   C     0.91998   0.66998   0.75000   0.00000  Uiso   1.00
C818   C     0.66998   0.91998   0.75000   0.00000  Uiso   1.00
C819   C     0.83002   0.58002   0.25000   0.00000  Uiso   1.00
C820   C     0.91998   0.83002   0.75000   0.00000  Uiso   1.00
C821   C     0.75000   0.50000   0.64416   0.00000  Uiso   1.00
C822   C     0.58002   0.66998   0.25000   0.00000  Uiso   1.00
C823   C     0.83002   0.58002   0.75000   0.00000  Uiso   1.00
C824   C     0.66998   0.91998   0.25000   0.00000  Uiso   1.00
C825   C     0.58002   0.66998   0.75000   0.00000  Uiso   1.00
C826   C     0.91998   0.83002   0.25000   0.00000  Uiso   1.00
C827   C     0.63833   0.88833   0.25000   0.00000  Uiso   1.00
C828   C     0.86167   0.61167   0.75000   0.00000  Uiso   1.00
C829   C     0.61167   0.63833   0.25000   0.00000  Uiso   1.00
C830   C     0.88833   0.86167   0.75000   0.00000  Uiso   1.00
C831   C     0.86167   0.61167   0.25000   0.00000  Uiso   1.00
C832   C     0.50000   0.75000   0.35584   0.00000  Uiso   1.00
C833   C     0.63833   0.88833   0.75000   0.00000  Uiso   1.00
C834   C     0.88833   0.86167   0.25000   0.00000  Uiso   1.00
C835   C     0.61167   0.63833   0.75000   0.00000  Uiso   1.00
C836   C     0.63833   0.61167   0.75000   0.00000  Uiso   1.00
C837   C     0.86167   0.88833   0.25000   0.00000  Uiso   1.00
C838   C     0.61167   0.86167   0.75000   0.00000  Uiso   1.00
C839   C     0.88833   0.63833   0.25000   0.00000  Uiso   1.00
C840   C     0.86167   0.88833   0.75000   0.00000  Uiso   1.00
C841   C     0.63833   0.61167   0.25000   0.00000  Uiso   1.00
C842   C     0.88833   0.63833   0.75000   0.00000  Uiso   1.00
C843   C     0.50000   0.75000   0.64416   0.00000  Uiso   1.00
C844   C     0.61167   0.86167   0.25000   0.00000  Uiso   1.00
C845   C     0.51918   0.78371   0.41815   0.00000  Uiso   1.00
C846   C     0.98082   0.71629   0.58185   0.00000  Uiso   1.00
C847   C     0.71626   0.51912   0.41814   0.00000  Uiso   1.00
C848   C     0.78374   0.98088   0.58185   0.00000  Uiso   1.00
C849   C     0.98082   0.71629   0.41815   0.00000  Uiso   1.00
C850   C     0.51918   0.78371   0.58185   0.00000  Uiso   1.00
C851   C     0.78374   0.98088   0.41814   0.00000  Uiso   1.00
C852   C     0.71625   0.51912   0.58185   0.00000  Uiso   1.00
C853   C     0.73084   0.53372   0.91815   0.00000  Uiso   1.00
C854   C     0.50000   0.75000   0.85584   0.00000  Uiso   1.00
C855   C     0.76916   0.96628   0.08185   0.00000  Uiso   1.00
C856   C     0.96627   0.73086   0.91814   0.00000  Uiso   1.00
C857   C     0.53373   0.76914   0.08185   0.00000  Uiso   1.00
C858   C     0.76916   0.96628   0.91815   0.00000  Uiso   1.00
C859   C     0.73084   0.53372   0.08185   0.00000  Uiso   1.00
C860   C     0.53373   0.76914   0.91814   0.00000  Uiso   1.00
C861   C     0.96627   0.73086   0.08185   0.00000  Uiso   1.00
C862   C     0.50000   0.75000   0.39803   0.00000  Uiso   1.00
C863   C     0.50000   0.75000   0.60197   0.00000  Uiso   1.00
C864   C     0.75000   0.50000   0.39803   0.00000  Uiso   1.00
C865   C     0.50000   0.75000   0.14416   0.00000  Uiso   1.00
C866   C     0.75000   0.50000   0.60197   0.00000  Uiso   1.00
C867   C     0.75000   0.50000   0.89803   0.00000  Uiso   1.00
C868   C     0.75000   0.50000   0.10197   0.00000  Uiso   1.00
C869   C     0.50000   0.75000   0.89803   0.00000  Uiso   1.00
C870   C     0.50000   0.75000   0.10197   0.00000  Uiso   1.00
C871   C     0.97743   0.71872   0.45892   0.00000  Uiso   1.00
C872   C     0.52257   0.78128   0.54108   0.00000  Uiso   1.00
C873   C     0.78132   0.97748   0.45892   0.00000  Uiso   1.00
C874   C     0.71868   0.52252   0.54108   0.00000  Uiso   1.00
C875   C     0.52257   0.78128   0.45892   0.00000  Uiso   1.00
C876   C     0.75000   0.50000   0.85584   0.00000  Uiso   1.00
C877   C     0.97743   0.71872   0.54108   0.00000  Uiso   1.00
C878   C     0.71868   0.52252   0.45892   0.00000  Uiso   1.00
C879   C     0.78132   0.97748   0.54108   0.00000  Uiso   1.00
C880   C     0.77255   0.96871   0.95892   0.00000  Uiso   1.00
C881   C     0.72744   0.53129   0.04108   0.00000  Uiso   1.00
C882   C     0.53131   0.77254   0.95892   0.00000  Uiso   1.00
C883   C     0.96869   0.72746   0.04108   0.00000  Uiso   1.00
C884   C     0.72744   0.53129   0.95892   0.00000  Uiso   1.00
C885   C     0.77255   0.96871   0.04108   0.00000  Uiso   1.00
C886   C     0.96869   0.72746   0.95892   0.00000  Uiso   1.00
C887   C     0.75000   0.50000   0.14416   0.00000  Uiso   1.00
C888   C     0.53131   0.77254   0.04108   0.00000  Uiso   1.00
C889   C     0.50000   0.75000   0.47940   0.00000  Uiso   1.00
C890   C     0.50000   0.75000   0.52060   0.00000  Uiso   1.00
C891   C     0.75000   0.50000   0.47940   0.00000  Uiso   1.00
C892   C     0.75000   0.50000   0.52060   0.00000  Uiso   1.00
C893   C     0.75000   0.50000   0.97940   0.00000  Uiso   1.00
C894   C     0.75000   0.50000   0.02060   0.00000  Uiso   1.00
C895   C     0.50000   0.75000   0.97940   0.00000  Uiso   1.00
C896   C     0.50000   0.75000   0.02060   0.00000  Uiso   1.00
C897   C     0.95177   0.69088   0.47989   0.00000  Uiso   1.00
C898   C     0.66998   0.58002   0.25000   0.00000  Uiso   1.00
C899   C     0.54823   0.80912   0.52011   0.00000  Uiso   1.00
C900   C     0.80921   0.95188   0.47989   0.00000  Uiso   1.00
C901   C     0.69079   0.54812   0.52010   0.00000  Uiso   1.00
C902   C     0.54823   0.80912   0.47989   0.00000  Uiso   1.00
C903   C     0.95177   0.69088   0.52011   0.00000  Uiso   1.00
C904   C     0.69079   0.54812   0.47989   0.00000  Uiso   1.00
C905   C     0.80921   0.95188   0.52011   0.00000  Uiso   1.00
C906   C     0.79819   0.94085   0.97989   0.00000  Uiso   1.00
C907   C     0.70181   0.55915   0.02011   0.00000  Uiso   1.00
C908   C     0.55918   0.79816   0.97989   0.00000  Uiso   1.00
H909   H     0.93059   0.66928   0.46562   0.00000  Uiso   1.00
H910   H     0.68065   0.58076   0.03438   0.00000  Uiso   1.00
H911   H     0.58081   0.81930   0.96562   0.00000  Uiso   1.00
H912   H     0.91920   0.68070   0.03438   0.00000  Uiso   1.00
H913   H     0.68065   0.58076   0.96562   0.00000  Uiso   1.00
H914   H     0.81935   0.91924   0.03438   0.00000  Uiso   1.00
H915   H     0.91920   0.68069   0.96562   0.00000  Uiso   1.00
H916   H     0.58081   0.81930   0.03437   0.00000  Uiso   1.00
H917   H     0.52845   0.85755   0.33585   0.00000  Uiso   1.00
H918   H     0.97159   0.64241   0.66413   0.00000  Uiso   1.00
H919   H     0.64240   0.52833   0.33584   0.00000  Uiso   1.00
H920   H     0.56940   0.83072   0.53438   0.00000  Uiso   1.00
H921   H     0.85753   0.97163   0.66420   0.00000  Uiso   1.00
H922   H     0.97155   0.64245   0.33585   0.00000  Uiso   1.00
H923   H     0.52845   0.85755   0.66415   0.00000  Uiso   1.00
H924   H     0.85762   0.97169   0.33585   0.00000  Uiso   1.00
H925   H     0.64150   0.52762   0.66368   0.00000  Uiso   1.00
H926   H     0.72171   0.60772   0.83592   0.00000  Uiso   1.00
H927   H     0.77837   0.89238   0.16413   0.00000  Uiso   1.00
H928   H     0.89247   0.72159   0.83582   0.00000  Uiso   1.00
H929   H     0.60765   0.77833   0.16412   0.00000  Uiso   1.00
H930   H     0.77843   0.89247   0.83583   0.00000  Uiso   1.00
H931   H     0.83084   0.93074   0.46562   0.00000  Uiso   1.00
H932   H     0.72164   0.60763   0.16412   0.00000  Uiso   1.00
H933   H     0.60764   0.77833   0.83587   0.00000  Uiso   1.00
H934   H     0.89232   0.72170   0.16411   0.00000  Uiso   1.00
H935   H     0.66914   0.56924   0.53437   0.00000  Uiso   1.00
H936   H     0.56940   0.83072   0.46562   0.00000  Uiso   1.00
H937   H     0.93059   0.66928   0.53438   0.00000  Uiso   1.00
H938   H     0.66915   0.56925   0.46562   0.00000  Uiso   1.00
H939   H     0.83084   0.93075   0.53437   0.00000  Uiso   1.00
H940   H     0.81935   0.91924   0.96562   0.00000  Uiso   1.00
O941   O     0.75000   0.50000   0.25000   0.00000  Uiso   1.00
O942   O     0.75000   0.96539   0.66251   0.00000  Uiso   1.00
O943   O     0.91398   0.73818   0.15010   0.00000  Uiso   1.00
O944   O     0.96538   0.75000   0.33749   0.00000  Uiso   1.00
O945   O     0.53461   0.75000   0.66251   0.00000  Uiso   1.00
O946   O     0.50000   0.71539   0.83749   0.00000  Uiso   1.00
O947   O     0.50000   0.78462   0.16251   0.00000  Uiso   1.00
O948   O     0.78461   0.50000   0.83749   0.00000  Uiso   1.00
O949   O     0.71538   0.50000   0.16251   0.00000  Uiso   1.00
O950   O     0.50000   0.78462   0.83749   0.00000  Uiso   1.00
O951   O     0.50000   0.71539   0.16251   0.00000  Uiso   1.00
O952   O     0.71538   0.50000   0.83749   0.00000  Uiso   1.00
O953   O     0.75000   0.50000   0.75000   0.00000  Uiso   1.00
O954   O     0.78461   0.50000   0.16251   0.00000  Uiso   1.00
O955   O     0.70126   0.58332   0.27298   0.00000  Uiso   1.00
O956   O     0.79873   0.91668   0.72702   0.00000  Uiso   1.00
O957   O     0.91668   0.70127   0.27298   0.00000  Uiso   1.00
O958   O     0.58332   0.79874   0.72702   0.00000  Uiso   1.00
O959   O     0.79873   0.91668   0.27298   0.00000  Uiso   1.00
O960   O     0.70126   0.58332   0.72702   0.00000  Uiso   1.00
O961   O     0.58332   0.79874   0.27298   0.00000  Uiso   1.00
O962   O     0.91668   0.70127   0.72702   0.00000  Uiso   1.00
O963   O     0.70126   0.91668   0.72702   0.00000  Uiso   1.00
O964   O     0.50000   0.75000   0.25000   0.00000  Uiso   1.00
O965   O     0.79873   0.58332   0.27298   0.00000  Uiso   1.00
O966   O     0.91668   0.79874   0.72702   0.00000  Uiso   1.00
O967   O     0.58332   0.70127   0.27298   0.00000  Uiso   1.00
O968   O     0.79873   0.58332   0.72702   0.00000  Uiso   1.00
O969   O     0.70126   0.91668   0.27298   0.00000  Uiso   1.00
O970   O     0.58332   0.70127   0.72702   0.00000  Uiso   1.00
O971   O     0.91668   0.79874   0.27298   0.00000  Uiso   1.00
O972   O     0.95126   0.83332   0.77298   0.00000  Uiso   1.00
O973   O     0.54873   0.66668   0.22702   0.00000  Uiso   1.00
O974   O     0.66668   0.95127   0.77298   0.00000  Uiso   1.00
O975   O     0.50000   0.75000   0.75000   0.00000  Uiso   1.00
O976   O     0.83332   0.54874   0.22702   0.00000  Uiso   1.00
O977   O     0.54873   0.66668   0.77298   0.00000  Uiso   1.00
O978   O     0.95126   0.83332   0.22702   0.00000  Uiso   1.00
O979   O     0.83332   0.54874   0.77298   0.00000  Uiso   1.00
O980   O     0.66668   0.95127   0.22702   0.00000  Uiso   1.00
O981   O     0.95126   0.66668   0.22702   0.00000  Uiso   1.00
O982   O     0.54873   0.83332   0.77298   0.00000  Uiso   1.00
O983   O     0.66668   0.54874   0.22702   0.00000  Uiso   1.00
O984   O     0.83332   0.95127   0.77298   0.00000  Uiso   1.00
O985   O     0.54873   0.83332   0.22702   0.00000  Uiso   1.00
O986   O     0.75000   0.96539   0.33749   0.00000  Uiso   1.00
O987   O     0.95126   0.66668   0.77298   0.00000  Uiso   1.00
O988   O     0.83332   0.95127   0.22702   0.00000  Uiso   1.00
O989   O     0.66668   0.54874   0.77298   0.00000  Uiso   1.00
O990   O     0.52825   0.86845   0.41664   0.00000  Uiso   1.00
O991   O     0.58314   0.82602   0.38565   0.00000  Uiso   1.00
O992   O     0.51187   0.83603   0.34992   0.00000  Uiso   1.00
O993   O     0.91686   0.67398   0.61434   0.00000  Uiso   1.00
O994   O     0.97176   0.63155   0.58335   0.00000  Uiso   1.00
O995   O     0.98813   0.66397   0.65008   0.00000  Uiso   1.00
O996   O     0.63150   0.52804   0.41662   0.00000  Uiso   1.00
O997   O     0.75000   0.53462   0.66251   0.00000  Uiso   1.00
O998   O     0.67384   0.58304   0.38569   0.00000  Uiso   1.00
O999   O     0.66398   0.51179   0.34989   0.00000  Uiso   1.00
O1000  O     0.82615   0.91696   0.61431   0.00000  Uiso   1.00
O1001  O     0.86849   0.97195   0.58338   0.00000  Uiso   1.00
O1002  O     0.83602   0.98822   0.65011   0.00000  Uiso   1.00
O1003  O     0.97175   0.63155   0.41664   0.00000  Uiso   1.00
O1004  O     0.91686   0.67398   0.38566   0.00000  Uiso   1.00
O1005  O     0.98813   0.66397   0.34992   0.00000  Uiso   1.00
O1006  O     0.58314   0.82602   0.61434   0.00000  Uiso   1.00
O1007  O     0.52824   0.86845   0.58336   0.00000  Uiso   1.00
O1008  O     0.53461   0.75000   0.33749   0.00000  Uiso   1.00
O1009  O     0.51187   0.83603   0.65008   0.00000  Uiso   1.00
O1010  O     0.86849   0.97196   0.41663   0.00000  Uiso   1.00
O1011  O     0.82615   0.91696   0.38569   0.00000  Uiso   1.00
O1012  O     0.83602   0.98821   0.34989   0.00000  Uiso   1.00
O1013  O     0.67377   0.58303   0.61426   0.00000  Uiso   1.00
O1014  O     0.63151   0.52795   0.58336   0.00000  Uiso   1.00
O1015  O     0.66398   0.51182   0.65012   0.00000  Uiso   1.00
O1016  O     0.66690   0.57608   0.88567   0.00000  Uiso   1.00
O1017  O     0.72184   0.61846   0.91664   0.00000  Uiso   1.00
O1018  O     0.73816   0.58603   0.84991   0.00000  Uiso   1.00
O1019  O     0.96538   0.75000   0.66251   0.00000  Uiso   1.00
O1020  O     0.77817   0.88153   0.08336   0.00000  Uiso   1.00
O1021  O     0.83310   0.92393   0.11433   0.00000  Uiso   1.00
O1022  O     0.76184   0.91397   0.15009   0.00000  Uiso   1.00
O1023  O     0.92389   0.66692   0.88568   0.00000  Uiso   1.00
O1024  O     0.88152   0.72189   0.91663   0.00000  Uiso   1.00
O1025  O     0.91398   0.73818   0.84990   0.00000  Uiso   1.00
O1026  O     0.61848   0.77809   0.08337   0.00000  Uiso   1.00
O1027  O     0.57612   0.83307   0.11431   0.00000  Uiso   1.00
O1028  O     0.58602   0.76183   0.15011   0.00000  Uiso   1.00
O1029  O     0.83310   0.92394   0.88567   0.00000  Uiso   1.00
O1030  O     0.75000   0.53462   0.33749   0.00000  Uiso   1.00
O1031  O     0.77817   0.88153   0.91663   0.00000  Uiso   1.00
O1032  O     0.76184   0.91398   0.84991   0.00000  Uiso   1.00
O1033  O     0.72183   0.61847   0.08336   0.00000  Uiso   1.00
O1034  O     0.66690   0.57607   0.11433   0.00000  Uiso   1.00
O1035  O     0.73816   0.58603   0.15009   0.00000  Uiso   1.00
O1036  O     0.57612   0.83307   0.88569   0.00000  Uiso   1.00
O1037  O     0.61848   0.77810   0.91663   0.00000  Uiso   1.00
O1038  O     0.58602   0.76182   0.84990   0.00000  Uiso   1.00
O1039  O     0.88152   0.72190   0.08337   0.00000  Uiso   1.00
O1040  O     0.92388   0.66693   0.11431   0.00000  Uiso   1.00
S1041  S     0.53663   0.82981   0.39270   0.00000  Uiso   1.00
S1042  S     0.78659   0.92017   0.10730   0.00000  Uiso   1.00
S1043  S     0.92016   0.71344   0.89270   0.00000  Uiso   1.00
S1044  S     0.57985   0.78655   0.10730   0.00000  Uiso   1.00
S1045  S     0.78659   0.92017   0.89270   0.00000  Uiso   1.00
S1046  S     0.71341   0.57983   0.10730   0.00000  Uiso   1.00
S1047  S     0.57984   0.78655   0.89270   0.00000  Uiso   1.00
S1048  S     0.92016   0.71345   0.10730   0.00000  Uiso   1.00
S1049  S     0.96337   0.67019   0.60729   0.00000  Uiso   1.00
S1050  S     0.67014   0.53651   0.39270   0.00000  Uiso   1.00
S1051  S     0.82986   0.96348   0.60730   0.00000  Uiso   1.00
S1052  S     0.96337   0.67019   0.39270   0.00000  Uiso   1.00
S1053  S     0.53663   0.82981   0.60729   0.00000  Uiso   1.00
S1054  S     0.82986   0.96348   0.39270   0.00000  Uiso   1.00
S1055  S     0.67013   0.53650   0.60729   0.00000  Uiso   1.00
S1056  S     0.71341   0.57983   0.89270   0.00000  Uiso   1.00
Zn1057 Zn    0.70052   0.50000   0.21730   0.00000  Uiso   1.00
Zn1058 Zn    0.54947   0.75000   0.28270   0.00000  Uiso   1.00
Zn1059 Zn    0.75000   0.95053   0.71730   0.00000  Uiso   1.00
Zn1060 Zn    0.75000   0.54948   0.28270   0.00000  Uiso   1.00
Zn1061 Zn    0.54947   0.75000   0.71730   0.00000  Uiso   1.00
Zn1062 Zn    0.95052   0.75000   0.28270   0.00000  Uiso   1.00
Zn1063 Zn    0.75000   0.54948   0.71730   0.00000  Uiso   1.00
Zn1064 Zn    0.75000   0.95053   0.28270   0.00000  Uiso   1.00
Zn1065 Zn    0.79947   0.50000   0.78270   0.00000  Uiso   1.00
Zn1066 Zn    0.50000   0.70053   0.21730   0.00000  Uiso   1.00
Zn1067 Zn    0.50000   0.79948   0.78270   0.00000  Uiso   1.00
Zn1068 Zn    0.79947   0.50000   0.21730   0.00000  Uiso   1.00
Zn1069 Zn    0.70052   0.50000   0.78270   0.00000  Uiso   1.00
Zn1070 Zn    0.50000   0.79948   0.21730   0.00000  Uiso   1.00
Zn1071 Zn    0.50000   0.70053   0.78270   0.00000  Uiso   1.00
Zn1072 Zn    0.95052   0.75000   0.71730   0.00000  Uiso   1.00
loop_
_geom_bond_atom_site_label_1
_geom_bond_atom_site_label_2
_geom_bond_distance
_geom_bond_site_symmetry_2
_ccdc_geom_bond_type
C1     C60     1.454   .     S
C1     O718    1.269   1_545 A
C1     O226    1.269   .     S
C2     O180    1.276   .     A
C2     O152    1.276   .     A
C2     C36     1.423   .     S
C3     H108    1.080   .     S
C3     C79     1.404   .     A
C3     C6      1.386   1_554 S
C4     H109    1.080   .     S
C4     C80     1.404   .     A
C4     C103    1.386   1_556 S
C5     H110    1.080   .     S
C5     C81     1.404   .     A
C5     C102    1.386   1_554 S
C6     C82     1.404   .     A
C6     H111    1.080   .     S
C6     C3      1.386   1_556 S
C7     H112    1.080   .     S
C7     C84     1.404   .     A
C7     C104    1.386   1_554 S
C8     O177    1.276   .     A
C8     C35     1.423   .     S
C8     O153    1.276   .     A
C9     O178    1.276   .     A
C9     O154    1.276   .     A
C9     C34     1.423   .     S
C10    C33     1.423   .     S
C10    O155    1.276   .     A
C10    O184    1.276   .     A
C11    O185    1.276   .     A
C11    C32     1.423   .     S
C11    O156    1.276   .     A
C12    C40     1.423   .     S
C12    O181    1.276   .     A
C12    O157    1.276   .     A
C13    O183    1.276   .     A
C13    C38     1.423   .     S
C13    O158    1.276   .     A
C14    O170    1.276   .     A
C14    C29     1.423   .     S
C14    O159    1.276   .     A
C15    C27     1.423   .     S
C15    O172    1.276   .     A
C15    O161    1.276   .     A
C16    C26     1.423   .     S
C16    O162    1.276   .     A
C16    O168    1.276   .     A
C17    O193    1.269   .     A
C17    C62     1.454   .     S
C17    O674    1.269   1_545 S
C18    C25     1.423   .     S
C18    O163    1.276   .     A
C18    O169    1.276   .     A
C19    O164    1.276   .     A
C19    C24     1.423   .     S
C19    O175    1.276   .     A
C20    O165    1.276   .     A
C20    C23     1.423   .     S
C20    O176    1.276   .     A
C21    C31     1.423   .     S
C21    O166    1.276   .     A
C21    O173    1.276   .     A
C22    O174    1.276   .     A
C22    O167    1.276   .     A
C22    C30     1.423   .     S
C23    C40     1.199   .     T
C24    C38     1.199   .     T
C25    C37     1.199   .     T
C26    C36     1.199   .     T
C27    C35     1.199   .     T
C28    O204    1.269   .     A
C28    C58     1.454   .     S
C28    O408    1.269   1_455 S
C29    C34     1.199   .     T
C30    C33     1.199   .     T
C31    C32     1.199   .     T
C37    C94     1.423   .     S
C39    C59     1.454   .     S
C39    O483    1.269   1_455 A
C39    O141    1.269   .     S
C41    S237    1.796   .     S
C41    C58     1.415   .     A
C41    C71     1.412   .     A
C42    S245    1.796   .     S
C42    C73     1.412   .     A
C42    C327    1.415   .     A
C43    S246    1.796   .     S
C43    C74     1.412   .     A
C43    C60     1.415   .     S
C44    C75     1.412   .     A
C44    S247    1.796   .     S
C44    C598    1.415   .     S
C45    C67     1.412   .     A
C45    S248    1.796   .     S
C45    C326    1.415   .     S
C46    S249    1.796   .     S
C46    C68     1.412   .     A
C46    C59     1.415   .     S
C47    S250    1.796   .     S
C47    C69     1.412   .     A
C47    C596    1.415   .     A
C48    C62     1.415   .     A
C48    C70     1.412   .     A
C48    S251    1.796   .     S
C49    C63     1.415   .     A
C49    S252    1.796   .     S
C49    C80     1.412   .     A
C50    C65     1.454   .     S
C50    O142    1.269   .     A
C50    O146    1.269   .     A
C51    C600    1.415   .     A
C51    C81     1.412   .     A
C51    S238    1.796   .     S
C52    S239    1.796   .     S
C52    C82     1.412   .     A
C52    C333    1.415   .     S
C53    C84     1.412   .     A
C53    S240    1.796   .     S
C53    C66     1.415   .     A
C54    S241    1.796   .     S
C54    C76     1.412   .     A
C54    C599    1.415   .     S
C55    S242    1.796   .     S
C55    C77     1.412   .     A
C55    C64     1.415   .     S
C56    C78     1.412   .     A
C56    S243    1.796   .     S
C56    C65     1.415   .     A
C57    C79     1.412   .     A
C57    S244    1.796   .     S
C57    C334    1.415   .     S
C58    C313    1.415   1_455 S
C59    C310    1.415   1_455 A
C60    C583    1.415   1_545 A
C61    O143    1.269   .     A
C61    C66     1.454   .     S
C61    O147    1.269   .     A
C62    C580    1.415   1_545 S
C63    C72     1.454   .     S
C63    C590    1.415   1_545 S
C64    C587    1.415   1_545 A
C64    C83     1.454   .     S
C65    C320    1.415   1_455 S
C66    C325    1.415   1_455 S
C67    C353    1.415   .     A
C67    C93     1.404   .     A
C68    C95     1.404   .     A
C68    C86     1.415   .     S
C69    C96     1.404   .     A
C69    C623    1.415   .     S
C70    C88     1.415   .     A
C70    C97     1.404   .     A
C71    C98     1.404   .     A
C71    C85     1.415   .     S
C72    O144    1.269   .     S
C72    O148    1.269   .     S
C73    C99     1.404   .     A
C73    C354    1.415   .     A
C74    C87     1.415   .     A
C74    C100    1.404   .     A
C75    C101    1.404   .     A
C75    C624    1.415   .     S
C76    C102    1.404   .     A
C76    C625    1.415   .     A
C77    C103    1.404   .     A
C77    C90     1.415   .     S
C78    C104    1.404   .     A
C78    C91     1.415   .     A
C79    C360    1.415   .     S
C80    C89     1.415   .     S
C81    C626    1.415   .     A
C82    C359    1.415   .     S
C83    O145    1.269   .     S
C83    O150    1.269   .     S
C84    C92     1.415   .     A
C85    C86     1.420   .     A
C85    C335    1.415   1_455 A
C86    C341    1.415   1_455 A
C87    C88     1.420   .     A
C87    C605    1.415   1_545 S
C88    C611    1.415   1_545 S
C89    C612    1.415   1_545 A
C89    C90     1.420   1_556 S
C90    C617    1.415   1_545 A
C90    C89     1.420   1_554 S
C91    C350    1.415   1_455 S
C91    C92     1.420   1_556 S
C92    C347    1.415   1_455 S
C92    C91     1.420   1_554 S
C93    H105    1.080   .     S
C93    C99     1.386   .     A
C94    O151    1.276   .     A
C94    O179    1.276   .     A
C95    C98     1.386   .     A
C95    H116    1.080   .     S
C96    C101    1.386   .     A
C96    H127    1.080   .     S
C97    H131    1.080   .     S
C97    C100    1.386   .     A
C98    H132    1.080   .     S
C99    H133    1.080   .     S
C100   H134    1.080   .     S
C101   H135    1.080   .     S
C102   H136    1.080   .     S
C102   C5      1.386   1_556 S
C103   H106    1.080   .     S
C103   C4      1.386   1_554 S
C104   H107    1.080   .     S
C104   C7      1.386   1_556 S
H113   O188    0.991   .     S
H114   O191    0.991   .     S
H115   O195    0.991   .     S
H117   O198    0.991   .     S
H118   O201    0.991   .     S
H119   O205    0.991   .     S
H120   O208    0.991   .     S
H121   O211    0.991   .     S
H122   O214    0.991   .     S
H123   O218    0.991   .     S
H124   O221    0.991   .     S
H125   O224    0.991   .     S
H126   O228    0.991   .     S
H128   O231    0.991   .     S
H129   O234    0.991   .     S
H130   O139    0.991   .     S
O137   Zn796   1.935   1_545 S
O137   Zn253   1.935   .     S
O137   Zn256   1.935   .     S
O137   Zn264   1.935   .     S
O138   Zn255   1.947   .     S
O138   C553    1.269   .     S
O139   S244    1.683   .     S
O140   Zn258   1.947   .     S
O140   C296    1.269   .     S
O141   Zn257   1.947   .     S
O142   Zn267   1.947   .     S
O143   Zn266   1.947   .     S
O144   Zn261   1.947   .     S
O145   Zn253   1.947   .     S
O146   Zn263   1.947   .     S
O147   Zn262   1.947   .     S
O148   Zn265   1.947   .     S
O149   Zn265   1.935   .     S
O149   Zn261   1.935   .     S
O149   Zn791   1.935   1_545 S
O149   Zn259   1.935   .     S
O150   Zn264   1.947   .     S
O151   Zn256   1.916   .     S
O152   Zn255   1.916   .     S
O153   Zn258   1.916   .     S
O154   Zn257   1.916   .     S
O155   Zn260   1.916   .     S
O156   Zn259   1.916   .     S
O157   Zn254   1.916   .     S
O158   Zn268   1.916   .     S
O159   Zn255   1.916   .     S
O160   Zn266   1.935   .     S
O160   Zn262   1.935   .     S
O160   Zn526   1.935   1_455 S
O160   Zn254   1.935   .     S
O161   Zn256   1.916   .     S
O162   Zn268   1.916   .     S
O163   Zn254   1.916   .     S
O164   Zn259   1.916   .     S
O165   Zn260   1.916   .     S
O166   Zn257   1.916   .     S
O167   Zn258   1.916   .     S
O168   Zn531   1.916   .     S
O169   Zn262   1.916   .     S
O170   Zn801   1.916   .     S
O171   Zn267   1.935   .     S
O171   Zn257   1.935   .     S
O171   Zn263   1.935   .     S
O171   Zn536   1.935   1_455 S
O172   Zn264   1.916   .     S
O173   Zn267   1.916   .     S
O174   Zn534   1.916   .     S
O175   Zn261   1.916   .     S
O176   Zn789   1.916   .     S
O177   Zn530   1.916   .     S
O178   Zn263   1.916   .     S
O179   Zn253   1.916   .     S
O180   Zn797   1.916   .     S
O181   Zn266   1.916   .     S
O182   C537    1.269   .     A
O182   Zn260   1.947   .     S
O183   Zn535   1.916   .     S
O184   Zn800   1.916   .     S
O185   Zn265   1.916   .     S
O186   S237    1.504   .     D
O187   S237    1.503   .     D
O188   S237    1.683   .     S
O189   S245    1.503   .     D
O190   S245    1.504   .     D
O191   S245    1.683   .     S
O192   S246    1.504   .     D
O193   Zn259   1.947   .     S
O194   S246    1.503   .     D
O195   S246    1.683   .     S
O196   S247    1.503   .     D
O197   S247    1.504   .     D
O198   S247    1.683   .     S
O199   S248    1.504   .     D
O200   S248    1.503   .     D
O201   S248    1.683   .     S
O202   S249    1.503   .     D
O203   S249    1.504   .     D
O204   Zn254   1.947   .     S
O205   S249    1.683   .     S
O206   S250    1.504   .     D
O207   S250    1.503   .     D
O208   S250    1.683   .     S
O209   S251    1.503   .     D
O210   S251    1.504   .     D
O211   S251    1.683   .     S
O212   S252    1.503   .     D
O213   S252    1.504   .     D
O214   S252    1.683   .     S
O215   Zn268   1.947   .     S
O215   C307    1.269   .     A
O216   S238    1.504   .     D
O217   S238    1.503   .     D
O218   S238    1.683   .     S
O219   S239    1.503   .     D
O220   S239    1.504   .     D
O221   S239    1.683   .     S
O222   S240    1.504   .     D
O223   S240    1.503   .     D
O224   S240    1.683   .     S
O225   S241    1.503   .     D
O226   Zn256   1.947   .     S
O227   S241    1.504   .     D
O228   S241    1.683   .     S
O229   S242    1.504   .     D
O230   S242    1.503   .     D
O231   S242    1.683   .     S
O232   S243    1.503   .     D
O233   S243    1.504   .     D
O234   S243    1.683   .     S
O235   S244    1.504   .     D
O236   S244    1.503   .     D
Zn253  O712    1.916   1_545 S
Zn255  O685    1.935   .     S
Zn258  O428    1.935   .     S
Zn260  O673    1.935   .     S
Zn261  O716    1.916   1_545 S
Zn262  O445    1.916   1_455 S
Zn263  O436    1.916   1_455 S
Zn264  O720    1.916   1_545 S
Zn265  O706    1.916   1_545 S
Zn266  O442    1.916   1_455 S
Zn267  O451    1.916   1_455 S
Zn268  O439    1.935   .     S
C269   C328    1.454   .     S
C269   O986    1.269   1_545 A
C269   O494    1.269   .     S
C270   O448    1.276   .     A
C270   O420    1.276   .     A
C270   C304    1.423   .     S
C271   H376    1.080   .     S
C271   C347    1.404   .     A
C271   C274    1.386   1_554 S
C272   H377    1.080   .     S
C272   C348    1.404   .     A
C272   C371    1.386   1_556 S
C273   H378    1.080   .     S
C273   C349    1.404   .     A
C273   C370    1.386   1_554 S
C274   C350    1.404   .     A
C274   H379    1.080   .     S
C274   C271    1.386   1_556 S
C275   H380    1.080   .     S
C275   C352    1.404   .     A
C275   C372    1.386   1_554 S
C276   O445    1.276   .     A
C276   C303    1.423   .     S
C276   O421    1.276   .     A
C277   O446    1.276   .     A
C277   O422    1.276   .     A
C277   C302    1.423   .     S
C278   C301    1.423   .     S
C278   O423    1.276   .     A
C278   O452    1.276   .     A
C279   O453    1.276   .     A
C279   C300    1.423   .     S
C279   O424    1.276   .     A
C280   C308    1.423   .     S
C280   O449    1.276   .     A
C280   O425    1.276   .     A
C281   O451    1.276   .     A
C281   C306    1.423   .     S
C281   O426    1.276   .     A
C282   O438    1.276   .     A
C282   C297    1.423   .     S
C282   O427    1.276   .     A
C283   C295    1.423   .     S
C283   O440    1.276   .     A
C283   O429    1.276   .     A
C284   C294    1.423   .     S
C284   O430    1.276   .     A
C284   O436    1.276   .     A
C285   O461    1.269   .     A
C285   C330    1.454   .     S
C285   O942    1.269   1_545 S
C286   C293    1.423   .     S
C286   O431    1.276   .     A
C286   O437    1.276   .     A
C287   O432    1.276   .     A
C287   C292    1.423   .     S
C287   O443    1.276   .     A
C288   O433    1.276   .     A
C288   C291    1.423   .     S
C288   O444    1.276   .     A
C289   C299    1.423   .     S
C289   O434    1.276   .     A
C289   O441    1.276   .     A
C290   O442    1.276   .     A
C290   O435    1.276   .     A
C290   C298    1.423   .     S
C291   C308    1.199   .     T
C292   C306    1.199   .     T
C293   C305    1.199   .     T
C294   C304    1.199   .     T
C295   C303    1.199   .     T
C296   O472    1.269   .     A
C296   C326    1.454   .     S
C297   C302    1.199   .     T
C298   C301    1.199   .     T
C299   C300    1.199   .     T
C305   C362    1.423   .     S
C307   C327    1.454   .     S
C307   O409    1.269   .     S
C309   S505    1.796   .     S
C309   C326    1.415   .     A
C309   C339    1.412   .     A
C310   S513    1.796   .     S
C310   C341    1.412   .     A
C310   C59     1.415   1_655 A
C311   S514    1.796   .     S
C311   C342    1.412   .     A
C311   C328    1.415   .     S
C312   C343    1.412   .     A
C312   S515    1.796   .     S
C312   C866    1.415   .     S
C313   C335    1.412   .     A
C313   S516    1.796   .     S
C313   C58     1.415   1_655 S
C314   S517    1.796   .     S
C314   C336    1.412   .     A
C314   C327    1.415   .     S
C315   S518    1.796   .     S
C315   C337    1.412   .     A
C315   C864    1.415   .     A
C316   C330    1.415   .     A
C316   C338    1.412   .     A
C316   S519    1.796   .     S
C317   C331    1.415   .     A
C317   S520    1.796   .     S
C317   C348    1.412   .     A
C318   C333    1.454   .     S
C318   O410    1.269   .     A
C318   O414    1.269   .     A
C319   C868    1.415   .     A
C319   C349    1.412   .     A
C319   S506    1.796   .     S
C320   S507    1.796   .     S
C320   C350    1.412   .     A
C320   C65     1.415   1_655 S
C321   C352    1.412   .     A
C321   S508    1.796   .     S
C321   C334    1.415   .     A
C322   S509    1.796   .     S
C322   C344    1.412   .     A
C322   C867    1.415   .     S
C323   S510    1.796   .     S
C323   C345    1.412   .     A
C323   C332    1.415   .     S
C324   C346    1.412   .     A
C324   S511    1.796   .     S
C324   C333    1.415   .     A
C325   C347    1.412   .     A
C325   S512    1.796   .     S
C325   C66     1.415   1_655 S
C328   C851    1.415   1_545 A
C329   O411    1.269   .     A
C329   C334    1.454   .     S
C329   O415    1.269   .     A
C330   C848    1.415   1_545 S
C331   C340    1.454   .     S
C331   C858    1.415   1_545 S
C332   C855    1.415   1_545 A
C332   C351    1.454   .     S
C335   C85     1.415   1_655 A
C335   C361    1.404   .     A
C336   C363    1.404   .     A
C336   C354    1.415   .     S
C337   C364    1.404   .     A
C337   C891    1.415   .     S
C338   C356    1.415   .     A
C338   C365    1.404   .     A
C339   C366    1.404   .     A
C339   C353    1.415   .     S
C340   O412    1.269   .     S
C340   O416    1.269   .     S
C341   C367    1.404   .     A
C341   C86     1.415   1_655 A
C342   C355    1.415   .     A
C342   C368    1.404   .     A
C343   C369    1.404   .     A
C343   C892    1.415   .     S
C344   C370    1.404   .     A
C344   C893    1.415   .     A
C345   C371    1.404   .     A
C345   C358    1.415   .     S
C346   C372    1.404   .     A
C346   C359    1.415   .     A
C347   C92     1.415   1_655 S
C348   C357    1.415   .     S
C349   C894    1.415   .     A
C350   C91     1.415   1_655 S
C351   O413    1.269   .     S
C351   O418    1.269   .     S
C352   C360    1.415   .     A
C353   C354    1.420   .     A
C355   C356    1.420   .     A
C355   C873    1.415   1_545 S
C356   C879    1.415   1_545 S
C357   C880    1.415   1_545 A
C357   C358    1.420   1_556 S
C358   C885    1.415   1_545 A
C358   C357    1.420   1_554 S
C359   C360    1.420   1_556 S
C360   C359    1.420   1_554 S
C361   H373    1.080   .     S
C361   C367    1.386   .     A
C362   O419    1.276   .     A
C362   O447    1.276   .     A
C363   C366    1.386   .     A
C363   H384    1.080   .     S
C364   C369    1.386   .     A
C364   H395    1.080   .     S
C365   H399    1.080   .     S
C365   C368    1.386   .     A
C366   H400    1.080   .     S
C367   H401    1.080   .     S
C368   H402    1.080   .     S
C369   H403    1.080   .     S
C370   H404    1.080   .     S
C370   C273    1.386   1_556 S
C371   H374    1.080   .     S
C371   C272    1.386   1_554 S
C372   H375    1.080   .     S
C372   C275    1.386   1_556 S
H381   O456    0.991   .     S
H382   O459    0.991   .     S
H383   O463    0.991   .     S
H385   O466    0.991   .     S
H386   O469    0.991   .     S
H387   O473    0.991   .     S
H388   O476    0.991   .     S
H389   O479    0.991   .     S
H390   O482    0.991   .     S
H391   O486    0.991   .     S
H392   O489    0.991   .     S
H393   O492    0.991   .     S
H394   O496    0.991   .     S
H396   O499    0.991   .     S
H397   O502    0.991   .     S
H398   O407    0.991   .     S
O405   Zn1064  1.935   1_545 S
O405   Zn521   1.935   .     S
O405   Zn524   1.935   .     S
O405   Zn532   1.935   .     S
O406   Zn523   1.947   .     S
O406   C821    1.269   .     S
O407   S512    1.683   .     S
O408   Zn526   1.947   .     S
O408   C28     1.269   1_655 S
O409   Zn525   1.947   .     S
O410   Zn535   1.947   .     S
O411   Zn534   1.947   .     S
O412   Zn529   1.947   .     S
O413   Zn521   1.947   .     S
O414   Zn531   1.947   .     S
O415   Zn530   1.947   .     S
O416   Zn533   1.947   .     S
O417   Zn533   1.935   .     S
O417   Zn529   1.935   .     S
O417   Zn1059  1.935   1_545 S
O417   Zn527   1.935   .     S
O418   Zn532   1.947   .     S
O419   Zn524   1.916   .     S
O420   Zn523   1.916   .     S
O421   Zn526   1.916   .     S
O422   Zn525   1.916   .     S
O423   Zn528   1.916   .     S
O424   Zn527   1.916   .     S
O425   Zn522   1.916   .     S
O426   Zn536   1.916   .     S
O427   Zn523   1.916   .     S
O428   Zn534   1.935   .     S
O428   Zn530   1.935   .     S
O428   Zn522   1.935   .     S
O429   Zn524   1.916   .     S
O430   Zn536   1.916   .     S
O431   Zn522   1.916   .     S
O432   Zn527   1.916   .     S
O433   Zn528   1.916   .     S
O434   Zn525   1.916   .     S
O435   Zn526   1.916   .     S
O436   Zn263   1.916   1_655 S
O437   Zn530   1.916   .     S
O438   Zn1069  1.916   .     S
O439   Zn535   1.935   .     S
O439   Zn525   1.935   .     S
O439   Zn531   1.935   .     S
O440   Zn532   1.916   .     S
O441   Zn535   1.916   .     S
O442   Zn266   1.916   1_655 S
O443   Zn529   1.916   .     S
O444   Zn1057  1.916   .     S
O445   Zn262   1.916   1_655 S
O446   Zn531   1.916   .     S
O447   Zn521   1.916   .     S
O448   Zn1065  1.916   .     S
O449   Zn534   1.916   .     S
O450   C805    1.269   .     A
O450   Zn528   1.947   .     S
O451   Zn267   1.916   1_655 S
O452   Zn1068  1.916   .     S
O453   Zn533   1.916   .     S
O454   S505    1.504   .     D
O455   S505    1.503   .     D
O456   S505    1.683   .     S
O457   S513    1.503   .     D
O458   S513    1.504   .     D
O459   S513    1.683   .     S
O460   S514    1.504   .     D
O461   Zn527   1.947   .     S
O462   S514    1.503   .     D
O463   S514    1.683   .     S
O464   S515    1.503   .     D
O465   S515    1.504   .     D
O466   S515    1.683   .     S
O467   S516    1.504   .     D
O468   S516    1.503   .     D
O469   S516    1.683   .     S
O470   S517    1.503   .     D
O471   S517    1.504   .     D
O472   Zn522   1.947   .     S
O473   S517    1.683   .     S
O474   S518    1.504   .     D
O475   S518    1.503   .     D
O476   S518    1.683   .     S
O477   S519    1.503   .     D
O478   S519    1.504   .     D
O479   S519    1.683   .     S
O480   S520    1.503   .     D
O481   S520    1.504   .     D
O482   S520    1.683   .     S
O483   Zn536   1.947   .     S
O483   C39     1.269   1_655 A
O484   S506    1.504   .     D
O485   S506    1.503   .     D
O486   S506    1.683   .     S
O487   S507    1.503   .     D
O488   S507    1.504   .     D
O489   S507    1.683   .     S
O490   S508    1.504   .     D
O491   S508    1.503   .     D
O492   S508    1.683   .     S
O493   S509    1.503   .     D
O494   Zn524   1.947   .     S
O495   S509    1.504   .     D
O496   S509    1.683   .     S
O497   S510    1.504   .     D
O498   S510    1.503   .     D
O499   S510    1.683   .     S
O500   S511    1.503   .     D
O501   S511    1.504   .     D
O502   S511    1.683   .     S
O503   S512    1.504   .     D
O504   S512    1.503   .     D
Zn521  O980    1.916   1_545 S
Zn523  O953    1.935   .     S
Zn526  O160    1.935   1_655 S
Zn528  O941    1.935   .     S
Zn529  O984    1.916   1_545 S
Zn532  O988    1.916   1_545 S
Zn533  O974    1.916   1_545 S
Zn536  O171    1.935   1_655 S
C537   C596    1.454   .     S
C537   O762    1.269   .     S
C538   O716    1.276   .     A
C538   O688    1.276   .     A
C538   C572    1.423   .     S
C539   H644    1.080   .     S
C539   C615    1.404   .     A
C539   C542    1.386   1_554 S
C540   H645    1.080   .     S
C540   C616    1.404   .     A
C540   C639    1.386   1_556 S
C541   H646    1.080   .     S
C541   C617    1.404   .     A
C541   C638    1.386   1_554 S
C542   C618    1.404   .     A
C542   H647    1.080   .     S
C542   C539    1.386   1_556 S
C543   H648    1.080   .     S
C543   C620    1.404   .     A
C543   C640    1.386   1_554 S
C544   O713    1.276   .     A
C544   C571    1.423   .     S
C544   O689    1.276   .     A
C545   O714    1.276   .     A
C545   O690    1.276   .     A
C545   C570    1.423   .     S
C546   C569    1.423   .     S
C546   O691    1.276   .     A
C546   O720    1.276   .     A
C547   O721    1.276   .     A
C547   C568    1.423   .     S
C547   O692    1.276   .     A
C548   C576    1.423   .     S
C548   O717    1.276   .     A
C548   O693    1.276   .     A
C549   O719    1.276   .     A
C549   C574    1.423   .     S
C549   O694    1.276   .     A
C550   O706    1.276   .     A
C550   C565    1.423   .     S
C550   O695    1.276   .     A
C551   C563    1.423   .     S
C551   O708    1.276   .     A
C551   O697    1.276   .     A
C552   C562    1.423   .     S
C552   O698    1.276   .     A
C552   O704    1.276   .     A
C553   O729    1.269   .     A
C553   C598    1.454   .     S
C554   C561    1.423   .     S
C554   O699    1.276   .     A
C554   O705    1.276   .     A
C555   O700    1.276   .     A
C555   C560    1.423   .     S
C555   O711    1.276   .     A
C556   O701    1.276   .     A
C556   C559    1.423   .     S
C556   O712    1.276   .     A
C557   C567    1.423   .     S
C557   O702    1.276   .     A
C557   O709    1.276   .     A
C558   O710    1.276   .     A
C558   O703    1.276   .     A
C558   C566    1.423   .     S
C559   C576    1.199   .     T
C560   C574    1.199   .     T
C561   C573    1.199   .     T
C562   C572    1.199   .     T
C563   C571    1.199   .     T
C564   O740    1.269   .     A
C564   C594    1.454   .     S
C564   O944    1.269   1_455 S
C565   C570    1.199   .     T
C566   C569    1.199   .     T
C567   C568    1.199   .     T
C573   C630    1.423   .     S
C575   C595    1.454   .     S
C575   O1019   1.269   1_455 A
C575   O677    1.269   .     S
C577   S773    1.796   .     S
C577   C594    1.415   .     A
C577   C607    1.412   .     A
C578   S781    1.796   .     S
C578   C609    1.412   .     A
C578   C863    1.415   .     A
C579   S782    1.796   .     S
C579   C610    1.412   .     A
C579   C596    1.415   .     S
C580   C611    1.412   .     A
C580   S783    1.796   .     S
C580   C62     1.415   1_565 S
C581   C603    1.412   .     A
C581   S784    1.796   .     S
C581   C862    1.415   .     S
C582   S785    1.796   .     S
C582   C604    1.412   .     A
C582   C595    1.415   .     S
C583   S786    1.796   .     S
C583   C605    1.412   .     A
C583   C60     1.415   1_565 A
C584   C598    1.415   .     A
C584   C606    1.412   .     A
C584   S787    1.796   .     S
C585   C599    1.415   .     A
C585   S788    1.796   .     S
C585   C616    1.412   .     A
C586   C601    1.454   .     S
C586   O678    1.269   .     A
C586   O682    1.269   .     A
C587   C64     1.415   1_565 A
C587   C617    1.412   .     A
C587   S774    1.796   .     S
C588   S775    1.796   .     S
C588   C618    1.412   .     A
C588   C869    1.415   .     S
C589   C620    1.412   .     A
C589   S776    1.796   .     S
C589   C602    1.415   .     A
C590   S777    1.796   .     S
C590   C612    1.412   .     A
C590   C63     1.415   1_565 S
C591   S778    1.796   .     S
C591   C613    1.412   .     A
C591   C600    1.415   .     S
C592   C614    1.412   .     A
C592   S779    1.796   .     S
C592   C601    1.415   .     A
C593   C615    1.412   .     A
C593   S780    1.796   .     S
C593   C870    1.415   .     S
C594   C849    1.415   1_455 S
C595   C846    1.415   1_455 A
C597   O679    1.269   .     A
C597   C602    1.454   .     S
C597   O683    1.269   .     A
C599   C608    1.454   .     S
C600   C619    1.454   .     S
C601   C856    1.415   1_455 S
C602   C861    1.415   1_455 S
C603   C889    1.415   .     A
C603   C629    1.404   .     A
C604   C631    1.404   .     A
C604   C622    1.415   .     S
C605   C632    1.404   .     A
C605   C87     1.415   1_565 S
C606   C624    1.415   .     A
C606   C633    1.404   .     A
C607   C634    1.404   .     A
C607   C621    1.415   .     S
C608   O680    1.269   .     S
C608   O684    1.269   .     S
C609   C635    1.404   .     A
C609   C890    1.415   .     A
C610   C623    1.415   .     A
C610   C636    1.404   .     A
C611   C637    1.404   .     A
C611   C88     1.415   1_565 S
C612   C638    1.404   .     A
C612   C89     1.415   1_565 A
C613   C639    1.404   .     A
C613   C626    1.415   .     S
C614   C640    1.404   .     A
C614   C627    1.415   .     A
C615   C896    1.415   .     S
C616   C625    1.415   .     S
C617   C90     1.415   1_565 A
C618   C895    1.415   .     S
C619   O681    1.269   .     S
C619   O686    1.269   .     S
C620   C628    1.415   .     A
C621   C622    1.420   .     A
C621   C871    1.415   1_455 A
C622   C877    1.415   1_455 A
C623   C624    1.420   .     A
C625   C626    1.420   1_556 S
C626   C625    1.420   1_554 S
C627   C886    1.415   1_455 S
C627   C628    1.420   1_556 S
C628   C883    1.415   1_455 S
C628   C627    1.420   1_554 S
C629   H641    1.080   .     S
C629   C635    1.386   .     A
C630   O687    1.276   .     A
C630   O715    1.276   .     A
C631   C634    1.386   .     A
C631   H652    1.080   .     S
C632   C637    1.386   .     A
C632   H663    1.080   .     S
C633   H667    1.080   .     S
C633   C636    1.386   .     A
C634   H668    1.080   .     S
C635   H669    1.080   .     S
C636   H670    1.080   .     S
C637   H671    1.080   .     S
C638   H672    1.080   .     S
C638   C541    1.386   1_556 S
C639   H642    1.080   .     S
C639   C540    1.386   1_554 S
C640   H643    1.080   .     S
C640   C543    1.386   1_556 S
H649   O724    0.991   .     S
H650   O727    0.991   .     S
H651   O731    0.991   .     S
H653   O734    0.991   .     S
H654   O737    0.991   .     S
H655   O741    0.991   .     S
H656   O744    0.991   .     S
H657   O747    0.991   .     S
H658   O750    0.991   .     S
H659   O754    0.991   .     S
H660   O757    0.991   .     S
H661   O760    0.991   .     S
H662   O764    0.991   .     S
H664   O767    0.991   .     S
H665   O770    0.991   .     S
H666   O675    0.991   .     S
O673   Zn789   1.935   .     S
O673   Zn792   1.935   .     S
O673   Zn800   1.935   .     S
O674   Zn791   1.947   .     S
O674   C17     1.269   1_565 S
O675   S780    1.683   .     S
O676   Zn794   1.947   .     S
O676   C832    1.269   .     S
O677   Zn793   1.947   .     S
O678   Zn803   1.947   .     S
O679   Zn802   1.947   .     S
O680   Zn797   1.947   .     S
O681   Zn789   1.947   .     S
O682   Zn799   1.947   .     S
O683   Zn798   1.947   .     S
O684   Zn801   1.947   .     S
O685   Zn801   1.935   .     S
O685   Zn797   1.935   .     S
O685   Zn795   1.935   .     S
O686   Zn800   1.947   .     S
O687   Zn792   1.916   .     S
O688   Zn791   1.916   .     S
O689   Zn794   1.916   .     S
O690   Zn793   1.916   .     S
O691   Zn796   1.916   .     S
O692   Zn795   1.916   .     S
O693   Zn790   1.916   .     S
O694   Zn804   1.916   .     S
O695   Zn791   1.916   .     S
O696   Zn802   1.935   .     S
O696   Zn798   1.935   .     S
O696   Zn1062  1.935   1_455 S
O696   Zn790   1.935   .     S
O697   Zn792   1.916   .     S
O698   Zn804   1.916   .     S
O699   Zn790   1.916   .     S
O700   Zn795   1.916   .     S
O701   Zn796   1.916   .     S
O702   Zn793   1.916   .     S
O703   Zn794   1.916   .     S
O704   Zn1067  1.916   .     S
O705   Zn798   1.916   .     S
O706   Zn265   1.916   1_565 S
O707   Zn803   1.935   .     S
O707   Zn793   1.935   .     S
O707   Zn799   1.935   .     S
O707   Zn1072  1.935   1_455 S
O708   Zn800   1.916   .     S
O709   Zn803   1.916   .     S
O710   Zn1070  1.916   .     S
O711   Zn797   1.916   .     S
O712   Zn253   1.916   1_565 S
O713   Zn1066  1.916   .     S
O714   Zn799   1.916   .     S
O715   Zn789   1.916   .     S
O716   Zn261   1.916   1_565 S
O717   Zn802   1.916   .     S
O718   C1      1.269   1_565 A
O718   Zn796   1.947   .     S
O719   Zn1071  1.916   .     S
O720   Zn264   1.916   1_565 S
O721   Zn801   1.916   .     S
O722   S773    1.504   .     D
O723   S773    1.503   .     D
O724   S773    1.683   .     S
O725   S781    1.503   .     D
O726   S781    1.504   .     D
O727   S781    1.683   .     S
O728   S782    1.504   .     D
O729   Zn795   1.947   .     S
O730   S782    1.503   .     D
O731   S782    1.683   .     S
O732   S783    1.503   .     D
O733   S783    1.504   .     D
O734   S783    1.683   .     S
O735   S784    1.504   .     D
O736   S784    1.503   .     D
O737   S784    1.683   .     S
O738   S785    1.503   .     D
O739   S785    1.504   .     D
O740   Zn790   1.947   .     S
O741   S785    1.683   .     S
O742   S786    1.504   .     D
O743   S786    1.503   .     D
O744   S786    1.683   .     S
O745   S787    1.503   .     D
O746   S787    1.504   .     D
O747   S787    1.683   .     S
O748   S788    1.503   .     D
O749   S788    1.504   .     D
O750   S788    1.683   .     S
O751   Zn804   1.947   .     S
O751   C843    1.269   .     A
O752   S774    1.504   .     D
O753   S774    1.503   .     D
O754   S774    1.683   .     S
O755   S775    1.503   .     D
O756   S775    1.504   .     D
O757   S775    1.683   .     S
O758   S776    1.504   .     D
O759   S776    1.503   .     D
O760   S776    1.683   .     S
O761   S777    1.503   .     D
O762   Zn792   1.947   .     S
O763   S777    1.504   .     D
O764   S777    1.683   .     S
O765   S778    1.504   .     D
O766   S778    1.503   .     D
O767   S778    1.683   .     S
O768   S779    1.503   .     D
O769   S779    1.504   .     D
O770   S779    1.683   .     S
O771   S780    1.504   .     D
O772   S780    1.503   .     D
Zn791  O149    1.935   1_565 S
Zn794  O964    1.935   .     S
Zn796  O137    1.935   1_565 S
Zn798  O981    1.916   1_455 S
Zn799  O972    1.916   1_455 S
Zn802  O978    1.916   1_455 S
Zn803  O987    1.916   1_455 S
Zn804  O975    1.935   .     S
C805   C864    1.454   .     S
C805   O1030   1.269   .     S
C806   O984    1.276   .     A
C806   O956    1.276   .     A
C806   C840    1.423   .     S
C807   H912    1.080   .     S
C807   C883    1.404   .     A
C807   C810    1.386   1_554 S
C808   H913    1.080   .     S
C808   C884    1.404   .     A
C808   C907    1.386   1_556 S
C809   H914    1.080   .     S
C809   C885    1.404   .     A
C809   C906    1.386   1_554 S
C810   C886    1.404   .     A
C810   H915    1.080   .     S
C810   C807    1.386   1_556 S
C811   H916    1.080   .     S
C811   C888    1.404   .     A
C811   C908    1.386   1_554 S
C812   O981    1.276   .     A
C812   C839    1.423   .     S
C812   O957    1.276   .     A
C813   O982    1.276   .     A
C813   O958    1.276   .     A
C813   C838    1.423   .     S
C814   C837    1.423   .     S
C814   O959    1.276   .     A
C814   O988    1.276   .     A
C815   O989    1.276   .     A
C815   C836    1.423   .     S
C815   O960    1.276   .     A
C816   C844    1.423   .     S
C816   O985    1.276   .     A
C816   O961    1.276   .     A
C817   O987    1.276   .     A
C817   C842    1.423   .     S
C817   O962    1.276   .     A
C818   O974    1.276   .     A
C818   C833    1.423   .     S
C818   O963    1.276   .     A
C819   C831    1.423   .     S
C819   O976    1.276   .     A
C819   O965    1.276   .     A
C820   C830    1.423   .     S
C820   O966    1.276   .     A
C820   O972    1.276   .     A
C821   O997    1.269   .     A
C821   C866    1.454   .     S
C822   C829    1.423   .     S
C822   O967    1.276   .     A
C822   O973    1.276   .     A
C823   O968    1.276   .     A
C823   C828    1.423   .     S
C823   O979    1.276   .     A
C824   O969    1.276   .     A
C824   C827    1.423   .     S
C824   O980    1.276   .     A
C825   C835    1.423   .     S
C825   O970    1.276   .     A
C825   O977    1.276   .     A
C826   O978    1.276   .     A
C826   O971    1.276   .     A
C826   C834    1.423   .     S
C827   C844    1.199   .     T
C828   C842    1.199   .     T
C829   C841    1.199   .     T
C830   C840    1.199   .     T
C831   C839    1.199   .     T
C832   O1008   1.269   .     A
C832   C862    1.454   .     S
C833   C838    1.199   .     T
C834   C837    1.199   .     T
C835   C836    1.199   .     T
C841   C898    1.423   .     S
C843   C863    1.454   .     S
C843   O945    1.269   .     S
C845   S1041   1.796   .     S
C845   C862    1.415   .     A
C845   C875    1.412   .     A
C846   S1049   1.796   .     S
C846   C877    1.412   .     A
C846   C595    1.415   1_655 A
C847   S1050   1.796   .     S
C847   C878    1.412   .     A
C847   C864    1.415   .     S
C848   C879    1.412   .     A
C848   S1051   1.796   .     S
C848   C330    1.415   1_565 S
C849   C871    1.412   .     A
C849   S1052   1.796   .     S
C849   C594    1.415   1_655 S
C850   S1053   1.796   .     S
C850   C872    1.412   .     A
C850   C863    1.415   .     S
C851   S1054   1.796   .     S
C851   C873    1.412   .     A
C851   C328    1.415   1_565 A
C852   C866    1.415   .     A
C852   C874    1.412   .     A
C852   S1055   1.796   .     S
C853   C867    1.415   .     A
C853   S1056   1.796   .     S
C853   C884    1.412   .     A
C854   C869    1.454   .     S
C854   O946    1.269   .     A
C854   O950    1.269   .     A
C855   C332    1.415   1_565 A
C855   C885    1.412   .     A
C855   S1042   1.796   .     S
C856   S1043   1.796   .     S
C856   C886    1.412   .     A
C856   C601    1.415   1_655 S
C857   C888    1.412   .     A
C857   S1044   1.796   .     S
C857   C870    1.415   .     A
C858   S1045   1.796   .     S
C858   C880    1.412   .     A
C858   C331    1.415   1_565 S
C859   S1046   1.796   .     S
C859   C881    1.412   .     A
C859   C868    1.415   .     S
C860   C882    1.412   .     A
C860   S1047   1.796   .     S
C860   C869    1.415   .     A
C861   C883    1.412   .     A
C861   S1048   1.796   .     S
C861   C602    1.415   1_655 S
C865   O947    1.269   .     A
C865   C870    1.454   .     S
C865   O951    1.269   .     A
C867   C876    1.454   .     S
C868   C887    1.454   .     S
C871   C621    1.415   1_655 A
C871   C897    1.404   .     A
C872   C899    1.404   .     A
C872   C890    1.415   .     S
C873   C900    1.404   .     A
C873   C355    1.415   1_565 S
C874   C892    1.415   .     A
C874   C901    1.404   .     A
C875   C902    1.404   .     A
C875   C889    1.415   .     S
C876   O948    1.269   .     S
C876   O952    1.269   .     S
C877   C903    1.404   .     A
C877   C622    1.415   1_655 A
C878   C891    1.415   .     A
C878   C904    1.404   .     A
C879   C905    1.404   .     A
C879   C356    1.415   1_565 S
C880   C906    1.404   .     A
C880   C357    1.415   1_565 A
C881   C907    1.404   .     A
C881   C894    1.415   .     S
C882   C908    1.404   .     A
C882   C895    1.415   .     A
C883   C628    1.415   1_655 S
C884   C893    1.415   .     S
C885   C358    1.415   1_565 A
C886   C627    1.415   1_655 S
C887   O949    1.269   .     S
C887   O954    1.269   .     S
C888   C896    1.415   .     A
C889   C890    1.420   .     A
C891   C892    1.420   .     A
C893   C894    1.420   1_556 S
C894   C893    1.420   1_554 S
C895   C896    1.420   1_556 S
C896   C895    1.420   1_554 S
C897   H909    1.080   .     S
C897   C903    1.386   .     A
C898   O955    1.276   .     A
C898   O983    1.276   .     A
C899   C902    1.386   .     A
C899   H920    1.080   .     S
C900   C905    1.386   .     A
C900   H931    1.080   .     S
C901   H935    1.080   .     S
C901   C904    1.386   .     A
C902   H936    1.080   .     S
C903   H937    1.080   .     S
C904   H938    1.080   .     S
C905   H939    1.080   .     S
C906   H940    1.080   .     S
C906   C809    1.386   1_556 S
C907   H910    1.080   .     S
C907   C808    1.386   1_554 S
C908   H911    1.080   .     S
C908   C811    1.386   1_556 S
H917   O992    0.991   .     S
H918   O995    0.991   .     S
H919   O999    0.991   .     S
H921   O1002   0.991   .     S
H922   O1005   0.991   .     S
H923   O1009   0.991   .     S
H924   O1012   0.991   .     S
H925   O1015   0.991   .     S
H926   O1018   0.991   .     S
H927   O1022   0.991   .     S
H928   O1025   0.991   .     S
H929   O1028   0.991   .     S
H930   O1032   0.991   .     S
H932   O1035   0.991   .     S
H933   O1038   0.991   .     S
H934   O943    0.991   .     S
O941   Zn1057  1.935   .     S
O941   Zn1060  1.935   .     S
O941   Zn1068  1.935   .     S
O942   Zn1059  1.947   .     S
O942   C285    1.269   1_565 S
O943   S1048   1.683   .     S
O944   Zn1062  1.947   .     S
O944   C564    1.269   1_655 S
O945   Zn1061  1.947   .     S
O946   Zn1071  1.947   .     S
O947   Zn1070  1.947   .     S
O948   Zn1065  1.947   .     S
O949   Zn1057  1.947   .     S
O950   Zn1067  1.947   .     S
O951   Zn1066  1.947   .     S
O952   Zn1069  1.947   .     S
O953   Zn1069  1.935   .     S
O953   Zn1065  1.935   .     S
O953   Zn1063  1.935   .     S
O954   Zn1068  1.947   .     S
O955   Zn1060  1.916   .     S
O956   Zn1059  1.916   .     S
O957   Zn1062  1.916   .     S
O958   Zn1061  1.916   .     S
O959   Zn1064  1.916   .     S
O960   Zn1063  1.916   .     S
O961   Zn1058  1.916   .     S
O962   Zn1072  1.916   .     S
O963   Zn1059  1.916   .     S
O964   Zn1070  1.935   .     S
O964   Zn1066  1.935   .     S
O964   Zn1058  1.935   .     S
O965   Zn1060  1.916   .     S
O966   Zn1072  1.916   .     S
O967   Zn1058  1.916   .     S
O968   Zn1063  1.916   .     S
O969   Zn1064  1.916   .     S
O970   Zn1061  1.916   .     S
O971   Zn1062  1.916   .     S
O972   Zn799   1.916   1_655 S
O973   Zn1066  1.916   .     S
O974   Zn533   1.916   1_565 S
O975   Zn1071  1.935   .     S
O975   Zn1061  1.935   .     S
O975   Zn1067  1.935   .     S
O976   Zn1068  1.916   .     S
O977   Zn1071  1.916   .     S
O978   Zn802   1.916   1_655 S
O979   Zn1065  1.916   .     S
O980   Zn521   1.916   1_565 S
O981   Zn798   1.916   1_655 S
O982   Zn1067  1.916   .     S
O983   Zn1057  1.916   .     S
O984   Zn529   1.916   1_565 S
O985   Zn1070  1.916   .     S
O986   C269    1.269   1_565 A
O986   Zn1064  1.947   .     S
O987   Zn803   1.916   1_655 S
O988   Zn532   1.916   1_565 S
O989   Zn1069  1.916   .     S
O990   S1041   1.504   .     D
O991   S1041   1.503   .     D
O992   S1041   1.683   .     S
O993   S1049   1.503   .     D
O994   S1049   1.504   .     D
O995   S1049   1.683   .     S
O996   S1050   1.504   .     D
O997   Zn1063  1.947   .     S
O998   S1050   1.503   .     D
O999   S1050   1.683   .     S
O1000  S1051   1.503   .     D
O1001  S1051   1.504   .     D
O1002  S1051   1.683   .     S
O1003  S1052   1.504   .     D
O1004  S1052   1.503   .     D
O1005  S1052   1.683   .     S
O1006  S1053   1.503   .     D
O1007  S1053   1.504   .     D
O1008  Zn1058  1.947   .     S
O1009  S1053   1.683   .     S
O1010  S1054   1.504   .     D
O1011  S1054   1.503   .     D
O1012  S1054   1.683   .     S
O1013  S1055   1.503   .     D
O1014  S1055   1.504   .     D
O1015  S1055   1.683   .     S
O1016  S1056   1.503   .     D
O1017  S1056   1.504   .     D
O1018  S1056   1.683   .     S
O1019  Zn1072  1.947   .     S
O1019  C575    1.269   1_655 A
O1020  S1042   1.504   .     D
O1021  S1042   1.503   .     D
O1022  S1042   1.683   .     S
O1023  S1043   1.503   .     D
O1024  S1043   1.504   .     D
O1025  S1043   1.683   .     S
O1026  S1044   1.504   .     D
O1027  S1044   1.503   .     D
O1028  S1044   1.683   .     S
O1029  S1045   1.503   .     D
O1030  Zn1060  1.947   .     S
O1031  S1045   1.504   .     D
O1032  S1045   1.683   .     S
O1033  S1046   1.504   .     D
O1034  S1046   1.503   .     D
O1035  S1046   1.683   .     S
O1036  S1047   1.503   .     D
O1037  S1047   1.504   .     D
O1038  S1047   1.683   .     S
O1039  S1048   1.504   .     D
O1040  S1048   1.503   .     D
Zn1059 O417    1.935   1_565 S
Zn1062 O696    1.935   1_655 S
Zn1064 O405    1.935   1_565 S
Zn1072 O707    1.935   1_655 S
