data_str_m1_o1_o2_pcu_sym.57
_audit_creation_date              2020-01-03
_audit_creation_method            'Materials Studio'
_symmetry_space_group_name_H-M    'P1'
_symmetry_Int_Tables_number       1
_symmetry_cell_setting            triclinic
loop_
_symmetry_equiv_pos_as_xyz
  x,y,z
_cell_length_a                    36.7098
_cell_length_b                    36.7097
_cell_length_c                    34.4120
_cell_angle_alpha                 90.0000
_cell_angle_beta                  90.0000
_cell_angle_gamma                 89.9996
loop_
_atom_site_label
_atom_site_type_symbol
_atom_site_fract_x
_atom_site_fract_y
_atom_site_fract_z
_atom_site_U_iso_or_equiv
_atom_site_adp_type
_atom_site_occupancy
Zn1    Zn    0.20660  -0.00000   0.21760   0.00000  Uiso   1.00
Zn2    Zn    0.29340  -0.00000   0.78240   0.00000  Uiso   1.00
Zn3    Zn    0.00000   0.20660   0.21760   0.00000  Uiso   1.00
Zn4    Zn    0.00000   0.29340   0.78240   0.00000  Uiso   1.00
Zn5    Zn    0.29340  -0.00000   0.21760   0.00000  Uiso   1.00
Zn6    Zn    0.20660  -0.00000   0.78240   0.00000  Uiso   1.00
Zn7    Zn    0.00000   0.29340   0.21760   0.00000  Uiso   1.00
Zn8    Zn    0.00000   0.20660   0.78240   0.00000  Uiso   1.00
Zn9    Zn    0.45660   0.25000   0.71760   0.00000  Uiso   1.00
Zn10   Zn    0.04340   0.25000   0.28240   0.00000  Uiso   1.00
Zn11   Zn    0.25000   0.45660   0.71760   0.00000  Uiso   1.00
Zn12   Zn    0.25000   0.04340   0.28240   0.00000  Uiso   1.00
Zn13   Zn    0.04340   0.25000   0.71760   0.00000  Uiso   1.00
Zn14   Zn    0.45660   0.25000   0.28240   0.00000  Uiso   1.00
Zn15   Zn    0.25000   0.04340   0.71760   0.00000  Uiso   1.00
Zn16   Zn    0.25000   0.45660   0.28240   0.00000  Uiso   1.00
C17    C     0.23355   0.02859   0.04144   0.00000  Uiso   1.00
C18    C     0.26573   0.02899   0.95853   0.00000  Uiso   1.00
C19    C     0.02896   0.23421   0.04147   0.00000  Uiso   1.00
C20    C     0.02896   0.26579   0.95853   0.00000  Uiso   1.00
C21    C     0.26645   0.47141   0.04144   0.00000  Uiso   1.00
C22    C     0.23427   0.47100   0.95853   0.00000  Uiso   1.00
C23    C     0.47104   0.26579   0.04147   0.00000  Uiso   1.00
C24    C     0.47104   0.23421   0.95853   0.00000  Uiso   1.00
C25    C     0.48425   0.27898   0.54147   0.00000  Uiso   1.00
C26    C     0.01575   0.27898   0.45853   0.00000  Uiso   1.00
C27    C     0.22102   0.48425   0.54147   0.00000  Uiso   1.00
C28    C     0.22102   0.01575   0.45853   0.00000  Uiso   1.00
C29    C     0.01575   0.22102   0.54147   0.00000  Uiso   1.00
C30    C     0.48425   0.22102   0.45853   0.00000  Uiso   1.00
C31    C     0.27898   0.01575   0.54147   0.00000  Uiso   1.00
C32    C     0.27898   0.48425   0.45853   0.00000  Uiso   1.00
H33    H     0.22106   0.05072   0.02541   0.00000  Uiso   1.00
H34    H     0.27766   0.05142   0.97457   0.00000  Uiso   1.00
H35    H     0.05136   0.22222   0.02544   0.00000  Uiso   1.00
H36    H     0.05137   0.27777   0.97456   0.00000  Uiso   1.00
H37    H     0.27893   0.44927   0.02541   0.00000  Uiso   1.00
H38    H     0.22234   0.44857   0.97457   0.00000  Uiso   1.00
H39    H     0.44864   0.27778   0.02544   0.00000  Uiso   1.00
H40    H     0.44863   0.22223   0.97456   0.00000  Uiso   1.00
H41    H     0.47229   0.30140   0.52545   0.00000  Uiso   1.00
H42    H     0.02771   0.30140   0.47456   0.00000  Uiso   1.00
H43    H     0.19860   0.47229   0.52545   0.00000  Uiso   1.00
H44    H     0.19860   0.02772   0.47456   0.00000  Uiso   1.00
H45    H     0.02771   0.19860   0.52545   0.00000  Uiso   1.00
H46    H     0.47229   0.19860   0.47456   0.00000  Uiso   1.00
H47    H     0.30140   0.02771   0.52545   0.00000  Uiso   1.00
H48    H     0.30140   0.47228   0.47456   0.00000  Uiso   1.00
C49    C     0.23343   0.02911   0.08205   0.00000  Uiso   1.00
C50    C     0.26585   0.02951   0.91792   0.00000  Uiso   1.00
C51    C     0.02949   0.23411   0.08208   0.00000  Uiso   1.00
C52    C     0.02949   0.26589   0.91792   0.00000  Uiso   1.00
C53    C     0.26657   0.47088   0.08205   0.00000  Uiso   1.00
C54    C     0.23415   0.47048   0.91792   0.00000  Uiso   1.00
C55    C     0.47051   0.26589   0.08208   0.00000  Uiso   1.00
C56    C     0.47051   0.23411   0.91792   0.00000  Uiso   1.00
C57    C     0.48415   0.27951   0.58208   0.00000  Uiso   1.00
C58    C     0.01585   0.27951   0.41792   0.00000  Uiso   1.00
C59    C     0.22049   0.48415   0.58208   0.00000  Uiso   1.00
C60    C     0.22049   0.01585   0.41792   0.00000  Uiso   1.00
C61    C     0.01585   0.22049   0.58208   0.00000  Uiso   1.00
C62    C     0.48415   0.22049   0.41792   0.00000  Uiso   1.00
C63    C     0.27951   0.01585   0.58208   0.00000  Uiso   1.00
C64    C     0.27951   0.48415   0.41792   0.00000  Uiso   1.00
O65    O     0.25000  -0.00000   0.25000   0.00000  Uiso   1.00
O66    O     0.25000  -0.00000   0.75000   0.00000  Uiso   1.00
O67    O     0.00000   0.25000   0.25000   0.00000  Uiso   1.00
O68    O     0.00000   0.25000   0.75000   0.00000  Uiso   1.00
O69    O     0.25000   0.46964   0.33683   0.00000  Uiso   1.00
O70    O     0.25000   0.03036   0.66317   0.00000  Uiso   1.00
O71    O     0.03036   0.25000   0.33683   0.00000  Uiso   1.00
O72    O     0.46964   0.25000   0.66317   0.00000  Uiso   1.00
O73    O     0.25000   0.03036   0.33683   0.00000  Uiso   1.00
O74    O     0.25000   0.46964   0.66317   0.00000  Uiso   1.00
O75    O     0.46964   0.25000   0.33683   0.00000  Uiso   1.00
O76    O     0.03036   0.25000   0.66317   0.00000  Uiso   1.00
O77    O     0.00000   0.21964   0.83683   0.00000  Uiso   1.00
O78    O     0.00000   0.28036   0.16317   0.00000  Uiso   1.00
O79    O     0.28036  -0.00000   0.83683   0.00000  Uiso   1.00
O80    O     0.21964  -0.00000   0.16317   0.00000  Uiso   1.00
O81    O     0.00000   0.28036   0.83683   0.00000  Uiso   1.00
O82    O     0.00000   0.21964   0.16317   0.00000  Uiso   1.00
O83    O     0.21964  -0.00000   0.83683   0.00000  Uiso   1.00
O84    O     0.28036  -0.00000   0.16317   0.00000  Uiso   1.00
O85    O     0.20726   0.07307   0.27282   0.00000  Uiso   1.00
O86    O     0.29275   0.42693   0.72718   0.00000  Uiso   1.00
O87    O     0.42693   0.20726   0.27282   0.00000  Uiso   1.00
O88    O     0.07307   0.29275   0.72718   0.00000  Uiso   1.00
O89    O     0.29275   0.42693   0.27282   0.00000  Uiso   1.00
O90    O     0.20726   0.07307   0.72718   0.00000  Uiso   1.00
O91    O     0.07307   0.29275   0.27282   0.00000  Uiso   1.00
O92    O     0.42693   0.20726   0.72718   0.00000  Uiso   1.00
O93    O     0.20726   0.42693   0.72718   0.00000  Uiso   1.00
O94    O     0.29275   0.07307   0.27282   0.00000  Uiso   1.00
O95    O     0.42693   0.29275   0.72718   0.00000  Uiso   1.00
O96    O     0.07307   0.20726   0.27282   0.00000  Uiso   1.00
O97    O     0.29275   0.07307   0.72718   0.00000  Uiso   1.00
O98    O     0.20726   0.42693   0.27282   0.00000  Uiso   1.00
O99    O     0.07307   0.20726   0.72718   0.00000  Uiso   1.00
O100   O     0.42693   0.29275   0.27282   0.00000  Uiso   1.00
O101   O     0.45726   0.32307   0.77282   0.00000  Uiso   1.00
O102   O     0.04275   0.17693   0.22718   0.00000  Uiso   1.00
O103   O     0.17693   0.45726   0.77282   0.00000  Uiso   1.00
O104   O     0.32307   0.04275   0.22718   0.00000  Uiso   1.00
O105   O     0.04275   0.17693   0.77282   0.00000  Uiso   1.00
O106   O     0.45726   0.32307   0.22718   0.00000  Uiso   1.00
O107   O     0.32307   0.04275   0.77282   0.00000  Uiso   1.00
O108   O     0.17693   0.45726   0.22718   0.00000  Uiso   1.00
O109   O     0.45726   0.17693   0.22718   0.00000  Uiso   1.00
O110   O     0.04275   0.32307   0.77282   0.00000  Uiso   1.00
O111   O     0.17693   0.04275   0.22718   0.00000  Uiso   1.00
O112   O     0.32307   0.45726   0.77282   0.00000  Uiso   1.00
O113   O     0.04275   0.32307   0.22718   0.00000  Uiso   1.00
O114   O     0.45726   0.17693   0.77282   0.00000  Uiso   1.00
O115   O     0.32307   0.45726   0.22718   0.00000  Uiso   1.00
O116   O     0.17693   0.04275   0.77282   0.00000  Uiso   1.00
C117   C     0.25000  -0.00000   0.02124   0.00000  Uiso   1.00
C118   C     0.25000  -0.00000   0.97873   0.00000  Uiso   1.00
C119   C     0.00000   0.25000   0.02126   0.00000  Uiso   1.00
C120   C     0.00000   0.25000   0.97874   0.00000  Uiso   1.00
C121   C     0.00000   0.25000   0.52126   0.00000  Uiso   1.00
C122   C     0.00000   0.25000   0.47874   0.00000  Uiso   1.00
C123   C     0.25000  -0.00000   0.52126   0.00000  Uiso   1.00
C124   C     0.25000  -0.00000   0.47874   0.00000  Uiso   1.00
C125   C     0.25000  -0.00000   0.35509   0.00000  Uiso   1.00
C126   C     0.25000   0.00000   0.64491   0.00000  Uiso   1.00
C127   C     0.00000   0.25000   0.35509   0.00000  Uiso   1.00
C128   C     0.00000   0.25000   0.64491   0.00000  Uiso   1.00
C129   C     0.00000   0.25000   0.85509   0.00000  Uiso   1.00
C130   C     0.00000   0.25000   0.14491   0.00000  Uiso   1.00
C131   C     0.25000   0.00000   0.85509   0.00000  Uiso   1.00
C132   C     0.25000  -0.00000   0.14490   0.00000  Uiso   1.00
C133   C     0.17992   0.07009   0.24999   0.00000  Uiso   1.00
C134   C     0.32009   0.42992   0.74999   0.00000  Uiso   1.00
C135   C     0.42992   0.17991   0.25001   0.00000  Uiso   1.00
C136   C     0.07009   0.32008   0.75001   0.00000  Uiso   1.00
C137   C     0.32008   0.42991   0.24999   0.00000  Uiso   1.00
C138   C     0.17991   0.07008   0.74999   0.00000  Uiso   1.00
C139   C     0.07008   0.32009   0.25001   0.00000  Uiso   1.00
C140   C     0.42991   0.17992   0.75001   0.00000  Uiso   1.00
C141   C     0.17992   0.42991   0.75001   0.00000  Uiso   1.00
C142   C     0.32009   0.07008   0.25001   0.00000  Uiso   1.00
C143   C     0.42992   0.32009   0.74999   0.00000  Uiso   1.00
C144   C     0.07009   0.17992   0.24999   0.00000  Uiso   1.00
C145   C     0.32008   0.07009   0.75001   0.00000  Uiso   1.00
C146   C     0.17991   0.42992   0.25001   0.00000  Uiso   1.00
C147   C     0.07008   0.17991   0.74999   0.00000  Uiso   1.00
C148   C     0.42991   0.32008   0.24999   0.00000  Uiso   1.00
C149   C     0.12190   0.40481   0.22493   0.00000  Uiso   1.00
C150   C     0.37782   0.09546   0.77548   0.00000  Uiso   1.00
C151   C     0.09548   0.12219   0.22450   0.00000  Uiso   1.00
C152   C     0.40481   0.37810   0.77506   0.00000  Uiso   1.00
C153   C     0.37810   0.09519   0.22493   0.00000  Uiso   1.00
C154   C     0.12218   0.40454   0.77548   0.00000  Uiso   1.00
C155   C     0.40452   0.37781   0.22450   0.00000  Uiso   1.00
C156   C     0.09519   0.12190   0.77506   0.00000  Uiso   1.00
C157   C     0.12190   0.09519   0.77507   0.00000  Uiso   1.00
C158   C     0.37781   0.40453   0.22451   0.00000  Uiso   1.00
C159   C     0.09547   0.37782   0.77549   0.00000  Uiso   1.00
C160   C     0.40482   0.12190   0.22494   0.00000  Uiso   1.00
C161   C     0.37810   0.40481   0.77507   0.00000  Uiso   1.00
C162   C     0.12219   0.09547   0.22451   0.00000  Uiso   1.00
C163   C     0.40453   0.12218   0.77549   0.00000  Uiso   1.00
C164   C     0.09519   0.37810   0.22494   0.00000  Uiso   1.00
C165   C     0.37213   0.15459   0.72460   0.00000  Uiso   1.00
C166   C     0.12805   0.34524   0.27515   0.00000  Uiso   1.00
C167   C     0.34524   0.37195   0.72486   0.00000  Uiso   1.00
C168   C     0.15458   0.12786   0.27541   0.00000  Uiso   1.00
C169   C     0.12788   0.34542   0.72460   0.00000  Uiso   1.00
C170   C     0.37195   0.15476   0.27515   0.00000  Uiso   1.00
C171   C     0.15476   0.12805   0.72486   0.00000  Uiso   1.00
C172   C     0.34542   0.37214   0.27541   0.00000  Uiso   1.00
C173   C     0.37213   0.34542   0.27541   0.00000  Uiso   1.00
C174   C     0.12805   0.15476   0.72485   0.00000  Uiso   1.00
C175   C     0.34524   0.12806   0.27514   0.00000  Uiso   1.00
C176   C     0.15458   0.37213   0.72459   0.00000  Uiso   1.00
C177   C     0.12787   0.15458   0.27541   0.00000  Uiso   1.00
C178   C     0.37195   0.34524   0.72485   0.00000  Uiso   1.00
C179   C     0.15476   0.37195   0.27514   0.00000  Uiso   1.00
C180   C     0.34542   0.12787   0.72459   0.00000  Uiso   1.00
H181   H     0.11909   0.42770   0.20529   0.00000  Uiso   1.00
H182   H     0.38044   0.07277   0.79540   0.00000  Uiso   1.00
H183   H     0.07279   0.11957   0.20458   0.00000  Uiso   1.00
H184   H     0.42770   0.38091   0.79470   0.00000  Uiso   1.00
H185   H     0.38091   0.07230   0.20529   0.00000  Uiso   1.00
H186   H     0.11956   0.42723   0.79540   0.00000  Uiso   1.00
H187   H     0.42721   0.38043   0.20458   0.00000  Uiso   1.00
H188   H     0.07230   0.11909   0.79470   0.00000  Uiso   1.00
H189   H     0.11909   0.07231   0.79471   0.00000  Uiso   1.00
H190   H     0.38043   0.42722   0.20458   0.00000  Uiso   1.00
H191   H     0.07277   0.38044   0.79541   0.00000  Uiso   1.00
H192   H     0.42770   0.11909   0.20530   0.00000  Uiso   1.00
H193   H     0.38091   0.42769   0.79471   0.00000  Uiso   1.00
H194   H     0.11957   0.07278   0.20458   0.00000  Uiso   1.00
H195   H     0.42723   0.11956   0.79541   0.00000  Uiso   1.00
H196   H     0.07230   0.38091   0.20530   0.00000  Uiso   1.00
H197   H     0.36950   0.17729   0.70469   0.00000  Uiso   1.00
H198   H     0.13085   0.32236   0.29480   0.00000  Uiso   1.00
H199   H     0.32235   0.36914   0.70522   0.00000  Uiso   1.00
H200   H     0.17727   0.13047   0.29534   0.00000  Uiso   1.00
H201   H     0.13050   0.32272   0.70469   0.00000  Uiso   1.00
H202   H     0.36915   0.17764   0.29480   0.00000  Uiso   1.00
H203   H     0.17765   0.13087   0.70522   0.00000  Uiso   1.00
H204   H     0.32273   0.36953   0.29534   0.00000  Uiso   1.00
H205   H     0.36951   0.32273   0.29532   0.00000  Uiso   1.00
H206   H     0.13085   0.17764   0.70520   0.00000  Uiso   1.00
H207   H     0.32235   0.13087   0.29478   0.00000  Uiso   1.00
H208   H     0.17728   0.36951   0.70467   0.00000  Uiso   1.00
H209   H     0.13049   0.17727   0.29532   0.00000  Uiso   1.00
H210   H     0.36915   0.32236   0.70520   0.00000  Uiso   1.00
H211   H     0.17765   0.36913   0.29478   0.00000  Uiso   1.00
H212   H     0.32272   0.13049   0.70468   0.00000  Uiso   1.00
C213   C     0.09812   0.34817   0.25004   0.00000  Uiso   1.00
C214   C     0.40183   0.15188   0.75004   0.00000  Uiso   1.00
C215   C     0.15187   0.09816   0.24997   0.00000  Uiso   1.00
C216   C     0.34816   0.40187   0.74997   0.00000  Uiso   1.00
C217   C     0.40188   0.15183   0.25004   0.00000  Uiso   1.00
C218   C     0.09817   0.34812   0.75004   0.00000  Uiso   1.00
C219   C     0.34813   0.40184   0.24997   0.00000  Uiso   1.00
C220   C     0.15184   0.09813   0.74997   0.00000  Uiso   1.00
C221   C     0.09812   0.15183   0.74996   0.00000  Uiso   1.00
C222   C     0.40183   0.34812   0.24996   0.00000  Uiso   1.00
C223   C     0.15187   0.40184   0.75003   0.00000  Uiso   1.00
C224   C     0.34816   0.09813   0.25003   0.00000  Uiso   1.00
C225   C     0.40188   0.34817   0.74996   0.00000  Uiso   1.00
C226   C     0.09817   0.15188   0.24996   0.00000  Uiso   1.00
C227   C     0.34813   0.09816   0.75003   0.00000  Uiso   1.00
C228   C     0.15184   0.40187   0.25003   0.00000  Uiso   1.00
C229   C     0.25000  -0.00000   0.10253   0.00000  Uiso   1.00
C230   C     0.25000  -0.00000   0.89745   0.00000  Uiso   1.00
C231   C     0.00000   0.25000   0.10255   0.00000  Uiso   1.00
C232   C     0.00000   0.25000   0.89745   0.00000  Uiso   1.00
C233   C     0.00000   0.25000   0.60255   0.00000  Uiso   1.00
C234   C     0.00000   0.25000   0.39745   0.00000  Uiso   1.00
C235   C     0.25000  -0.00000   0.60255   0.00000  Uiso   1.00
C236   C     0.25000  -0.00000   0.39745   0.00000  Uiso   1.00
N237   N     0.21714   0.05963   0.10182   0.00000  Uiso   1.00
O238   O     0.18981   0.07679   0.08616   0.00000  Uiso   1.00
O239   O     0.23211   0.07320   0.13290   0.00000  Uiso   1.00
N240   N     0.28142   0.06041   0.89815   0.00000  Uiso   1.00
O241   O     0.30814   0.07839   0.91396   0.00000  Uiso   1.00
O242   O     0.26635   0.07341   0.86685   0.00000  Uiso   1.00
N243   N     0.06038   0.21852   0.10186   0.00000  Uiso   1.00
O244   O     0.07839   0.19183   0.08601   0.00000  Uiso   1.00
O245   O     0.07337   0.23356   0.13318   0.00000  Uiso   1.00
N246   N     0.06039   0.28148   0.89814   0.00000  Uiso   1.00
O247   O     0.07840   0.30816   0.91399   0.00000  Uiso   1.00
O248   O     0.07337   0.26644   0.86682   0.00000  Uiso   1.00
N249   N     0.28284   0.44035   0.10182   0.00000  Uiso   1.00
O250   O     0.31014   0.42315   0.08613   0.00000  Uiso   1.00
O251   O     0.26789   0.42682   0.13293   0.00000  Uiso   1.00
N252   N     0.21858   0.43958   0.89814   0.00000  Uiso   1.00
O253   O     0.19187   0.42159   0.91396   0.00000  Uiso   1.00
O254   O     0.23365   0.42659   0.86684   0.00000  Uiso   1.00
N255   N     0.43962   0.28148   0.10186   0.00000  Uiso   1.00
O256   O     0.42161   0.30817   0.08601   0.00000  Uiso   1.00
O257   O     0.42663   0.26644   0.13318   0.00000  Uiso   1.00
N258   N     0.43961   0.21852   0.89814   0.00000  Uiso   1.00
O259   O     0.42160   0.19184   0.91399   0.00000  Uiso   1.00
O260   O     0.42663   0.23356   0.86682   0.00000  Uiso   1.00
N261   N     0.46861   0.31043   0.60186   0.00000  Uiso   1.00
O262   O     0.48366   0.32339   0.63319   0.00000  Uiso   1.00
O263   O     0.44196   0.32848   0.58601   0.00000  Uiso   1.00
N264   N     0.03139   0.31043   0.39814   0.00000  Uiso   1.00
O265   O     0.01634   0.32339   0.36681   0.00000  Uiso   1.00
O266   O     0.05804   0.32848   0.41399   0.00000  Uiso   1.00
N267   N     0.18958   0.46860   0.60186   0.00000  Uiso   1.00
O268   O     0.17661   0.48365   0.63319   0.00000  Uiso   1.00
O269   O     0.17153   0.44194   0.58601   0.00000  Uiso   1.00
N270   N     0.18958   0.03140   0.39814   0.00000  Uiso   1.00
O271   O     0.17661   0.01635   0.36681   0.00000  Uiso   1.00
O272   O     0.17153   0.05806   0.41399   0.00000  Uiso   1.00
N273   N     0.03139   0.18957   0.60186   0.00000  Uiso   1.00
O274   O     0.01634   0.17661   0.63319   0.00000  Uiso   1.00
O275   O     0.05804   0.17152   0.58601   0.00000  Uiso   1.00
N276   N     0.46861   0.18957   0.39814   0.00000  Uiso   1.00
O277   O     0.48366   0.17661   0.36681   0.00000  Uiso   1.00
O278   O     0.44196   0.17152   0.41399   0.00000  Uiso   1.00
N279   N     0.31043   0.03140   0.60186   0.00000  Uiso   1.00
O280   O     0.32339   0.01635   0.63319   0.00000  Uiso   1.00
O281   O     0.32847   0.05806   0.58601   0.00000  Uiso   1.00
N282   N     0.31042   0.46860   0.39814   0.00000  Uiso   1.00
O283   O     0.32339   0.48365   0.36681   0.00000  Uiso   1.00
O284   O     0.32847   0.44194   0.41399   0.00000  Uiso   1.00
Zn285  Zn    0.70660  -0.00000   0.21760   0.00000  Uiso   1.00
Zn286  Zn    0.79340  -0.00000   0.78240   0.00000  Uiso   1.00
Zn287  Zn    0.50000   0.20660   0.21760   0.00000  Uiso   1.00
Zn288  Zn    0.50000   0.29340   0.78240   0.00000  Uiso   1.00
Zn289  Zn    0.79340  -0.00000   0.21760   0.00000  Uiso   1.00
Zn290  Zn    0.70660  -0.00000   0.78240   0.00000  Uiso   1.00
Zn291  Zn    0.50000   0.29340   0.21760   0.00000  Uiso   1.00
Zn292  Zn    0.50000   0.20660   0.78240   0.00000  Uiso   1.00
Zn293  Zn    0.95660   0.25000   0.71760   0.00000  Uiso   1.00
Zn294  Zn    0.54340   0.25000   0.28240   0.00000  Uiso   1.00
Zn295  Zn    0.75000   0.45660   0.71760   0.00000  Uiso   1.00
Zn296  Zn    0.75000   0.04340   0.28240   0.00000  Uiso   1.00
Zn297  Zn    0.54340   0.25000   0.71760   0.00000  Uiso   1.00
Zn298  Zn    0.95660   0.25000   0.28240   0.00000  Uiso   1.00
Zn299  Zn    0.75000   0.04340   0.71760   0.00000  Uiso   1.00
Zn300  Zn    0.75000   0.45660   0.28240   0.00000  Uiso   1.00
C301   C     0.73355   0.02859   0.04144   0.00000  Uiso   1.00
C302   C     0.76573   0.02899   0.95853   0.00000  Uiso   1.00
C303   C     0.52896   0.23421   0.04147   0.00000  Uiso   1.00
C304   C     0.52896   0.26579   0.95853   0.00000  Uiso   1.00
C305   C     0.76645   0.47141   0.04144   0.00000  Uiso   1.00
C306   C     0.73427   0.47100   0.95853   0.00000  Uiso   1.00
C307   C     0.97104   0.26579   0.04147   0.00000  Uiso   1.00
C308   C     0.97104   0.23421   0.95853   0.00000  Uiso   1.00
C309   C     0.98425   0.27898   0.54147   0.00000  Uiso   1.00
C310   C     0.51575   0.27898   0.45853   0.00000  Uiso   1.00
C311   C     0.72102   0.48425   0.54147   0.00000  Uiso   1.00
C312   C     0.72102   0.01575   0.45853   0.00000  Uiso   1.00
C313   C     0.51575   0.22102   0.54147   0.00000  Uiso   1.00
C314   C     0.98425   0.22102   0.45853   0.00000  Uiso   1.00
C315   C     0.77898   0.01575   0.54147   0.00000  Uiso   1.00
C316   C     0.77898   0.48425   0.45853   0.00000  Uiso   1.00
H317   H     0.72106   0.05072   0.02541   0.00000  Uiso   1.00
H318   H     0.77766   0.05142   0.97457   0.00000  Uiso   1.00
H319   H     0.55136   0.22222   0.02544   0.00000  Uiso   1.00
H320   H     0.55137   0.27777   0.97456   0.00000  Uiso   1.00
H321   H     0.77893   0.44927   0.02541   0.00000  Uiso   1.00
H322   H     0.72234   0.44857   0.97457   0.00000  Uiso   1.00
H323   H     0.94864   0.27778   0.02544   0.00000  Uiso   1.00
H324   H     0.94863   0.22223   0.97456   0.00000  Uiso   1.00
H325   H     0.97229   0.30140   0.52545   0.00000  Uiso   1.00
H326   H     0.52771   0.30140   0.47456   0.00000  Uiso   1.00
H327   H     0.69860   0.47229   0.52545   0.00000  Uiso   1.00
H328   H     0.69860   0.02772   0.47456   0.00000  Uiso   1.00
H329   H     0.52771   0.19860   0.52545   0.00000  Uiso   1.00
H330   H     0.97229   0.19860   0.47456   0.00000  Uiso   1.00
H331   H     0.80140   0.02771   0.52545   0.00000  Uiso   1.00
H332   H     0.80140   0.47228   0.47456   0.00000  Uiso   1.00
C333   C     0.73343   0.02911   0.08205   0.00000  Uiso   1.00
C334   C     0.76585   0.02951   0.91792   0.00000  Uiso   1.00
C335   C     0.52949   0.23411   0.08208   0.00000  Uiso   1.00
C336   C     0.52949   0.26589   0.91792   0.00000  Uiso   1.00
C337   C     0.76657   0.47088   0.08205   0.00000  Uiso   1.00
C338   C     0.73415   0.47048   0.91792   0.00000  Uiso   1.00
C339   C     0.97051   0.26589   0.08208   0.00000  Uiso   1.00
C340   C     0.97051   0.23411   0.91792   0.00000  Uiso   1.00
C341   C     0.98415   0.27951   0.58208   0.00000  Uiso   1.00
C342   C     0.51585   0.27951   0.41792   0.00000  Uiso   1.00
C343   C     0.72049   0.48415   0.58208   0.00000  Uiso   1.00
C344   C     0.72049   0.01585   0.41792   0.00000  Uiso   1.00
C345   C     0.51585   0.22049   0.58208   0.00000  Uiso   1.00
C346   C     0.98415   0.22049   0.41792   0.00000  Uiso   1.00
C347   C     0.77951   0.01585   0.58208   0.00000  Uiso   1.00
C348   C     0.77951   0.48415   0.41792   0.00000  Uiso   1.00
O349   O     0.75000  -0.00000   0.25000   0.00000  Uiso   1.00
O350   O     0.75000  -0.00000   0.75000   0.00000  Uiso   1.00
O351   O     0.50000   0.25000   0.25000   0.00000  Uiso   1.00
O352   O     0.50000   0.25000   0.75000   0.00000  Uiso   1.00
O353   O     0.75000   0.46964   0.33683   0.00000  Uiso   1.00
O354   O     0.75000   0.03036   0.66317   0.00000  Uiso   1.00
O355   O     0.53036   0.25000   0.33683   0.00000  Uiso   1.00
O356   O     0.96964   0.25000   0.66317   0.00000  Uiso   1.00
O357   O     0.75000   0.03036   0.33683   0.00000  Uiso   1.00
O358   O     0.75000   0.46964   0.66317   0.00000  Uiso   1.00
O359   O     0.96964   0.25000   0.33683   0.00000  Uiso   1.00
O360   O     0.53036   0.25000   0.66317   0.00000  Uiso   1.00
O361   O     0.50000   0.21964   0.83683   0.00000  Uiso   1.00
O362   O     0.50000   0.28036   0.16317   0.00000  Uiso   1.00
O363   O     0.78036  -0.00000   0.83683   0.00000  Uiso   1.00
O364   O     0.71964  -0.00000   0.16317   0.00000  Uiso   1.00
O365   O     0.50000   0.28036   0.83683   0.00000  Uiso   1.00
O366   O     0.50000   0.21964   0.16317   0.00000  Uiso   1.00
O367   O     0.71964  -0.00000   0.83683   0.00000  Uiso   1.00
O368   O     0.78036  -0.00000   0.16317   0.00000  Uiso   1.00
O369   O     0.70726   0.07307   0.27282   0.00000  Uiso   1.00
O370   O     0.79275   0.42693   0.72718   0.00000  Uiso   1.00
O371   O     0.92693   0.20726   0.27282   0.00000  Uiso   1.00
O372   O     0.57307   0.29275   0.72718   0.00000  Uiso   1.00
O373   O     0.79275   0.42693   0.27282   0.00000  Uiso   1.00
O374   O     0.70726   0.07307   0.72718   0.00000  Uiso   1.00
O375   O     0.57307   0.29275   0.27282   0.00000  Uiso   1.00
O376   O     0.92693   0.20726   0.72718   0.00000  Uiso   1.00
O377   O     0.70726   0.42693   0.72718   0.00000  Uiso   1.00
O378   O     0.79275   0.07307   0.27282   0.00000  Uiso   1.00
O379   O     0.92693   0.29275   0.72718   0.00000  Uiso   1.00
O380   O     0.57307   0.20726   0.27282   0.00000  Uiso   1.00
O381   O     0.79275   0.07307   0.72718   0.00000  Uiso   1.00
O382   O     0.70726   0.42693   0.27282   0.00000  Uiso   1.00
O383   O     0.57307   0.20726   0.72718   0.00000  Uiso   1.00
O384   O     0.92693   0.29275   0.27282   0.00000  Uiso   1.00
O385   O     0.95726   0.32307   0.77282   0.00000  Uiso   1.00
O386   O     0.54275   0.17693   0.22718   0.00000  Uiso   1.00
O387   O     0.67693   0.45726   0.77282   0.00000  Uiso   1.00
O388   O     0.82307   0.04275   0.22718   0.00000  Uiso   1.00
O389   O     0.54275   0.17693   0.77282   0.00000  Uiso   1.00
O390   O     0.95726   0.32307   0.22718   0.00000  Uiso   1.00
O391   O     0.82307   0.04275   0.77282   0.00000  Uiso   1.00
O392   O     0.67693   0.45726   0.22718   0.00000  Uiso   1.00
O393   O     0.95726   0.17693   0.22718   0.00000  Uiso   1.00
O394   O     0.54275   0.32307   0.77282   0.00000  Uiso   1.00
O395   O     0.67693   0.04275   0.22718   0.00000  Uiso   1.00
O396   O     0.82307   0.45726   0.77282   0.00000  Uiso   1.00
O397   O     0.54275   0.32307   0.22718   0.00000  Uiso   1.00
O398   O     0.95726   0.17693   0.77282   0.00000  Uiso   1.00
O399   O     0.82307   0.45726   0.22718   0.00000  Uiso   1.00
O400   O     0.67693   0.04275   0.77282   0.00000  Uiso   1.00
C401   C     0.75000  -0.00000   0.02124   0.00000  Uiso   1.00
C402   C     0.75000  -0.00000   0.97873   0.00000  Uiso   1.00
C403   C     0.50000   0.25000   0.02126   0.00000  Uiso   1.00
C404   C     0.50000   0.25000   0.97874   0.00000  Uiso   1.00
C405   C     0.50000   0.25000   0.52126   0.00000  Uiso   1.00
C406   C     0.50000   0.25000   0.47874   0.00000  Uiso   1.00
C407   C     0.75000  -0.00000   0.52126   0.00000  Uiso   1.00
C408   C     0.75000  -0.00000   0.47874   0.00000  Uiso   1.00
C409   C     0.75000  -0.00000   0.35509   0.00000  Uiso   1.00
C410   C     0.75000   0.00000   0.64491   0.00000  Uiso   1.00
C411   C     0.50000   0.25000   0.35509   0.00000  Uiso   1.00
C412   C     0.50000   0.25000   0.64491   0.00000  Uiso   1.00
C413   C     0.50000   0.25000   0.85509   0.00000  Uiso   1.00
C414   C     0.50000   0.25000   0.14491   0.00000  Uiso   1.00
C415   C     0.75000   0.00000   0.85509   0.00000  Uiso   1.00
C416   C     0.75000  -0.00000   0.14490   0.00000  Uiso   1.00
C417   C     0.67992   0.07009   0.24999   0.00000  Uiso   1.00
C418   C     0.82009   0.42992   0.74999   0.00000  Uiso   1.00
C419   C     0.92992   0.17991   0.25001   0.00000  Uiso   1.00
C420   C     0.57009   0.32008   0.75001   0.00000  Uiso   1.00
C421   C     0.82008   0.42991   0.24999   0.00000  Uiso   1.00
C422   C     0.67991   0.07008   0.74999   0.00000  Uiso   1.00
C423   C     0.57008   0.32009   0.25001   0.00000  Uiso   1.00
C424   C     0.92991   0.17992   0.75001   0.00000  Uiso   1.00
C425   C     0.67992   0.42991   0.75001   0.00000  Uiso   1.00
C426   C     0.82009   0.07008   0.25001   0.00000  Uiso   1.00
C427   C     0.92992   0.32009   0.74999   0.00000  Uiso   1.00
C428   C     0.57009   0.17992   0.24999   0.00000  Uiso   1.00
C429   C     0.82008   0.07009   0.75001   0.00000  Uiso   1.00
C430   C     0.67991   0.42992   0.25001   0.00000  Uiso   1.00
C431   C     0.57008   0.17991   0.74999   0.00000  Uiso   1.00
C432   C     0.92991   0.32008   0.24999   0.00000  Uiso   1.00
C433   C     0.62190   0.40481   0.22493   0.00000  Uiso   1.00
C434   C     0.87782   0.09546   0.77548   0.00000  Uiso   1.00
C435   C     0.59548   0.12219   0.22450   0.00000  Uiso   1.00
C436   C     0.90481   0.37810   0.77506   0.00000  Uiso   1.00
C437   C     0.87810   0.09519   0.22493   0.00000  Uiso   1.00
C438   C     0.62218   0.40454   0.77548   0.00000  Uiso   1.00
C439   C     0.90452   0.37781   0.22450   0.00000  Uiso   1.00
C440   C     0.59519   0.12190   0.77506   0.00000  Uiso   1.00
C441   C     0.62190   0.09519   0.77507   0.00000  Uiso   1.00
C442   C     0.87781   0.40453   0.22451   0.00000  Uiso   1.00
C443   C     0.59547   0.37782   0.77549   0.00000  Uiso   1.00
C444   C     0.90482   0.12190   0.22494   0.00000  Uiso   1.00
C445   C     0.87810   0.40481   0.77507   0.00000  Uiso   1.00
C446   C     0.62219   0.09547   0.22451   0.00000  Uiso   1.00
C447   C     0.90453   0.12218   0.77549   0.00000  Uiso   1.00
C448   C     0.59519   0.37810   0.22494   0.00000  Uiso   1.00
C449   C     0.87213   0.15459   0.72460   0.00000  Uiso   1.00
C450   C     0.62805   0.34524   0.27515   0.00000  Uiso   1.00
C451   C     0.84524   0.37195   0.72486   0.00000  Uiso   1.00
C452   C     0.65458   0.12786   0.27541   0.00000  Uiso   1.00
C453   C     0.62788   0.34542   0.72460   0.00000  Uiso   1.00
C454   C     0.87195   0.15476   0.27515   0.00000  Uiso   1.00
C455   C     0.65476   0.12805   0.72486   0.00000  Uiso   1.00
C456   C     0.84542   0.37214   0.27541   0.00000  Uiso   1.00
C457   C     0.87213   0.34542   0.27541   0.00000  Uiso   1.00
C458   C     0.62805   0.15476   0.72485   0.00000  Uiso   1.00
C459   C     0.84524   0.12806   0.27514   0.00000  Uiso   1.00
C460   C     0.65458   0.37213   0.72459   0.00000  Uiso   1.00
C461   C     0.62787   0.15458   0.27541   0.00000  Uiso   1.00
C462   C     0.87195   0.34524   0.72485   0.00000  Uiso   1.00
C463   C     0.65476   0.37195   0.27514   0.00000  Uiso   1.00
C464   C     0.84542   0.12787   0.72459   0.00000  Uiso   1.00
H465   H     0.61909   0.42770   0.20529   0.00000  Uiso   1.00
H466   H     0.88044   0.07277   0.79540   0.00000  Uiso   1.00
H467   H     0.57279   0.11957   0.20458   0.00000  Uiso   1.00
H468   H     0.92770   0.38091   0.79470   0.00000  Uiso   1.00
H469   H     0.88091   0.07230   0.20529   0.00000  Uiso   1.00
H470   H     0.61956   0.42723   0.79540   0.00000  Uiso   1.00
H471   H     0.92721   0.38043   0.20458   0.00000  Uiso   1.00
H472   H     0.57230   0.11909   0.79470   0.00000  Uiso   1.00
H473   H     0.61909   0.07231   0.79471   0.00000  Uiso   1.00
H474   H     0.88043   0.42722   0.20458   0.00000  Uiso   1.00
H475   H     0.57277   0.38044   0.79541   0.00000  Uiso   1.00
H476   H     0.92770   0.11909   0.20530   0.00000  Uiso   1.00
H477   H     0.88091   0.42769   0.79471   0.00000  Uiso   1.00
H478   H     0.61957   0.07278   0.20458   0.00000  Uiso   1.00
H479   H     0.92723   0.11956   0.79541   0.00000  Uiso   1.00
H480   H     0.57230   0.38091   0.20530   0.00000  Uiso   1.00
H481   H     0.86950   0.17729   0.70469   0.00000  Uiso   1.00
H482   H     0.63085   0.32236   0.29480   0.00000  Uiso   1.00
H483   H     0.82235   0.36914   0.70522   0.00000  Uiso   1.00
H484   H     0.67727   0.13047   0.29534   0.00000  Uiso   1.00
H485   H     0.63050   0.32272   0.70469   0.00000  Uiso   1.00
H486   H     0.86915   0.17764   0.29480   0.00000  Uiso   1.00
H487   H     0.67765   0.13087   0.70522   0.00000  Uiso   1.00
H488   H     0.82273   0.36953   0.29534   0.00000  Uiso   1.00
H489   H     0.86951   0.32273   0.29532   0.00000  Uiso   1.00
H490   H     0.63085   0.17764   0.70520   0.00000  Uiso   1.00
H491   H     0.82235   0.13087   0.29478   0.00000  Uiso   1.00
H492   H     0.67728   0.36951   0.70467   0.00000  Uiso   1.00
H493   H     0.63049   0.17727   0.29532   0.00000  Uiso   1.00
H494   H     0.86915   0.32236   0.70520   0.00000  Uiso   1.00
H495   H     0.67765   0.36913   0.29478   0.00000  Uiso   1.00
H496   H     0.82272   0.13049   0.70468   0.00000  Uiso   1.00
C497   C     0.59812   0.34817   0.25004   0.00000  Uiso   1.00
C498   C     0.90183   0.15188   0.75004   0.00000  Uiso   1.00
C499   C     0.65187   0.09816   0.24997   0.00000  Uiso   1.00
C500   C     0.84816   0.40187   0.74997   0.00000  Uiso   1.00
C501   C     0.90188   0.15183   0.25004   0.00000  Uiso   1.00
C502   C     0.59817   0.34812   0.75004   0.00000  Uiso   1.00
C503   C     0.84813   0.40184   0.24997   0.00000  Uiso   1.00
C504   C     0.65184   0.09813   0.74997   0.00000  Uiso   1.00
C505   C     0.59812   0.15183   0.74996   0.00000  Uiso   1.00
C506   C     0.90183   0.34812   0.24996   0.00000  Uiso   1.00
C507   C     0.65187   0.40184   0.75003   0.00000  Uiso   1.00
C508   C     0.84816   0.09813   0.25003   0.00000  Uiso   1.00
C509   C     0.90188   0.34817   0.74996   0.00000  Uiso   1.00
C510   C     0.59817   0.15188   0.24996   0.00000  Uiso   1.00
C511   C     0.84813   0.09816   0.75003   0.00000  Uiso   1.00
C512   C     0.65184   0.40187   0.25003   0.00000  Uiso   1.00
C513   C     0.75000  -0.00000   0.10253   0.00000  Uiso   1.00
C514   C     0.75000  -0.00000   0.89745   0.00000  Uiso   1.00
C515   C     0.50000   0.25000   0.10255   0.00000  Uiso   1.00
C516   C     0.50000   0.25000   0.89745   0.00000  Uiso   1.00
C517   C     0.50000   0.25000   0.60255   0.00000  Uiso   1.00
C518   C     0.50000   0.25000   0.39745   0.00000  Uiso   1.00
C519   C     0.75000  -0.00000   0.60255   0.00000  Uiso   1.00
C520   C     0.75000  -0.00000   0.39745   0.00000  Uiso   1.00
N521   N     0.71714   0.05963   0.10182   0.00000  Uiso   1.00
O522   O     0.68981   0.07679   0.08616   0.00000  Uiso   1.00
O523   O     0.73211   0.07320   0.13290   0.00000  Uiso   1.00
N524   N     0.78142   0.06041   0.89815   0.00000  Uiso   1.00
O525   O     0.80814   0.07839   0.91396   0.00000  Uiso   1.00
O526   O     0.76635   0.07341   0.86685   0.00000  Uiso   1.00
N527   N     0.56038   0.21852   0.10186   0.00000  Uiso   1.00
O528   O     0.57839   0.19183   0.08601   0.00000  Uiso   1.00
O529   O     0.57337   0.23356   0.13318   0.00000  Uiso   1.00
N530   N     0.56039   0.28148   0.89814   0.00000  Uiso   1.00
O531   O     0.57840   0.30816   0.91399   0.00000  Uiso   1.00
O532   O     0.57337   0.26644   0.86682   0.00000  Uiso   1.00
N533   N     0.78284   0.44035   0.10182   0.00000  Uiso   1.00
O534   O     0.81014   0.42315   0.08613   0.00000  Uiso   1.00
O535   O     0.76789   0.42682   0.13293   0.00000  Uiso   1.00
N536   N     0.71858   0.43958   0.89814   0.00000  Uiso   1.00
O537   O     0.69187   0.42159   0.91396   0.00000  Uiso   1.00
O538   O     0.73365   0.42659   0.86684   0.00000  Uiso   1.00
N539   N     0.93962   0.28148   0.10186   0.00000  Uiso   1.00
O540   O     0.92161   0.30817   0.08601   0.00000  Uiso   1.00
O541   O     0.92663   0.26644   0.13318   0.00000  Uiso   1.00
N542   N     0.93961   0.21852   0.89814   0.00000  Uiso   1.00
O543   O     0.92160   0.19184   0.91399   0.00000  Uiso   1.00
O544   O     0.92663   0.23356   0.86682   0.00000  Uiso   1.00
N545   N     0.96861   0.31043   0.60186   0.00000  Uiso   1.00
O546   O     0.98366   0.32339   0.63319   0.00000  Uiso   1.00
O547   O     0.94196   0.32848   0.58601   0.00000  Uiso   1.00
N548   N     0.53139   0.31043   0.39814   0.00000  Uiso   1.00
O549   O     0.51634   0.32339   0.36681   0.00000  Uiso   1.00
O550   O     0.55804   0.32848   0.41399   0.00000  Uiso   1.00
N551   N     0.68958   0.46860   0.60186   0.00000  Uiso   1.00
O552   O     0.67661   0.48365   0.63319   0.00000  Uiso   1.00
O553   O     0.67153   0.44194   0.58601   0.00000  Uiso   1.00
N554   N     0.68958   0.03140   0.39814   0.00000  Uiso   1.00
O555   O     0.67661   0.01635   0.36681   0.00000  Uiso   1.00
O556   O     0.67153   0.05806   0.41399   0.00000  Uiso   1.00
N557   N     0.53139   0.18957   0.60186   0.00000  Uiso   1.00
O558   O     0.51634   0.17661   0.63319   0.00000  Uiso   1.00
O559   O     0.55804   0.17152   0.58601   0.00000  Uiso   1.00
N560   N     0.96861   0.18957   0.39814   0.00000  Uiso   1.00
O561   O     0.98366   0.17661   0.36681   0.00000  Uiso   1.00
O562   O     0.94196   0.17152   0.41399   0.00000  Uiso   1.00
N563   N     0.81043   0.03140   0.60186   0.00000  Uiso   1.00
O564   O     0.82339   0.01635   0.63319   0.00000  Uiso   1.00
O565   O     0.82847   0.05806   0.58601   0.00000  Uiso   1.00
N566   N     0.81042   0.46860   0.39814   0.00000  Uiso   1.00
O567   O     0.82339   0.48365   0.36681   0.00000  Uiso   1.00
O568   O     0.82847   0.44194   0.41399   0.00000  Uiso   1.00
Zn569  Zn    0.20660   0.50000   0.21760   0.00000  Uiso   1.00
Zn570  Zn    0.29340   0.50000   0.78240   0.00000  Uiso   1.00
Zn571  Zn    0.00000   0.70660   0.21760   0.00000  Uiso   1.00
Zn572  Zn    0.00000   0.79340   0.78240   0.00000  Uiso   1.00
Zn573  Zn    0.29340   0.50000   0.21760   0.00000  Uiso   1.00
Zn574  Zn    0.20660   0.50000   0.78240   0.00000  Uiso   1.00
Zn575  Zn    0.00000   0.79340   0.21760   0.00000  Uiso   1.00
Zn576  Zn    0.00000   0.70660   0.78240   0.00000  Uiso   1.00
Zn577  Zn    0.45660   0.75000   0.71760   0.00000  Uiso   1.00
Zn578  Zn    0.04340   0.75000   0.28240   0.00000  Uiso   1.00
Zn579  Zn    0.25000   0.95660   0.71760   0.00000  Uiso   1.00
Zn580  Zn    0.25000   0.54340   0.28240   0.00000  Uiso   1.00
Zn581  Zn    0.04340   0.75000   0.71760   0.00000  Uiso   1.00
Zn582  Zn    0.45660   0.75000   0.28240   0.00000  Uiso   1.00
Zn583  Zn    0.25000   0.54340   0.71760   0.00000  Uiso   1.00
Zn584  Zn    0.25000   0.95660   0.28240   0.00000  Uiso   1.00
C585   C     0.23355   0.52859   0.04144   0.00000  Uiso   1.00
C586   C     0.26573   0.52899   0.95853   0.00000  Uiso   1.00
C587   C     0.02896   0.73421   0.04147   0.00000  Uiso   1.00
C588   C     0.02896   0.76579   0.95853   0.00000  Uiso   1.00
C589   C     0.26645   0.97141   0.04144   0.00000  Uiso   1.00
C590   C     0.23427   0.97100   0.95853   0.00000  Uiso   1.00
C591   C     0.47104   0.76579   0.04147   0.00000  Uiso   1.00
C592   C     0.47104   0.73421   0.95853   0.00000  Uiso   1.00
C593   C     0.48425   0.77898   0.54147   0.00000  Uiso   1.00
C594   C     0.01575   0.77898   0.45853   0.00000  Uiso   1.00
C595   C     0.22102   0.98425   0.54147   0.00000  Uiso   1.00
C596   C     0.22102   0.51575   0.45853   0.00000  Uiso   1.00
C597   C     0.01575   0.72102   0.54147   0.00000  Uiso   1.00
C598   C     0.48425   0.72102   0.45853   0.00000  Uiso   1.00
C599   C     0.27898   0.51575   0.54147   0.00000  Uiso   1.00
C600   C     0.27898   0.98425   0.45853   0.00000  Uiso   1.00
H601   H     0.22106   0.55072   0.02541   0.00000  Uiso   1.00
H602   H     0.27766   0.55142   0.97457   0.00000  Uiso   1.00
H603   H     0.05136   0.72222   0.02544   0.00000  Uiso   1.00
H604   H     0.05137   0.77777   0.97456   0.00000  Uiso   1.00
H605   H     0.27893   0.94927   0.02541   0.00000  Uiso   1.00
H606   H     0.22234   0.94857   0.97457   0.00000  Uiso   1.00
H607   H     0.44864   0.77778   0.02544   0.00000  Uiso   1.00
H608   H     0.44863   0.72223   0.97456   0.00000  Uiso   1.00
H609   H     0.47229   0.80140   0.52545   0.00000  Uiso   1.00
H610   H     0.02771   0.80140   0.47456   0.00000  Uiso   1.00
H611   H     0.19860   0.97229   0.52545   0.00000  Uiso   1.00
H612   H     0.19860   0.52772   0.47456   0.00000  Uiso   1.00
H613   H     0.02771   0.69860   0.52545   0.00000  Uiso   1.00
H614   H     0.47229   0.69860   0.47456   0.00000  Uiso   1.00
H615   H     0.30140   0.52771   0.52545   0.00000  Uiso   1.00
H616   H     0.30140   0.97228   0.47456   0.00000  Uiso   1.00
C617   C     0.23343   0.52911   0.08205   0.00000  Uiso   1.00
C618   C     0.26585   0.52951   0.91792   0.00000  Uiso   1.00
C619   C     0.02949   0.73411   0.08208   0.00000  Uiso   1.00
C620   C     0.02949   0.76589   0.91792   0.00000  Uiso   1.00
C621   C     0.26657   0.97088   0.08205   0.00000  Uiso   1.00
C622   C     0.23415   0.97048   0.91792   0.00000  Uiso   1.00
C623   C     0.47051   0.76589   0.08208   0.00000  Uiso   1.00
C624   C     0.47051   0.73411   0.91792   0.00000  Uiso   1.00
C625   C     0.48415   0.77951   0.58208   0.00000  Uiso   1.00
C626   C     0.01585   0.77951   0.41792   0.00000  Uiso   1.00
C627   C     0.22049   0.98415   0.58208   0.00000  Uiso   1.00
C628   C     0.22049   0.51585   0.41792   0.00000  Uiso   1.00
C629   C     0.01585   0.72049   0.58208   0.00000  Uiso   1.00
C630   C     0.48415   0.72049   0.41792   0.00000  Uiso   1.00
C631   C     0.27951   0.51585   0.58208   0.00000  Uiso   1.00
C632   C     0.27951   0.98415   0.41792   0.00000  Uiso   1.00
O633   O     0.25000   0.50000   0.25000   0.00000  Uiso   1.00
O634   O     0.25000   0.50000   0.75000   0.00000  Uiso   1.00
O635   O     0.00000   0.75000   0.25000   0.00000  Uiso   1.00
O636   O     0.00000   0.75000   0.75000   0.00000  Uiso   1.00
O637   O     0.25000   0.96964   0.33683   0.00000  Uiso   1.00
O638   O     0.25000   0.53036   0.66317   0.00000  Uiso   1.00
O639   O     0.03036   0.75000   0.33683   0.00000  Uiso   1.00
O640   O     0.46964   0.75000   0.66317   0.00000  Uiso   1.00
O641   O     0.25000   0.53036   0.33683   0.00000  Uiso   1.00
O642   O     0.25000   0.96964   0.66317   0.00000  Uiso   1.00
O643   O     0.46964   0.75000   0.33683   0.00000  Uiso   1.00
O644   O     0.03036   0.75000   0.66317   0.00000  Uiso   1.00
O645   O     0.00000   0.71964   0.83683   0.00000  Uiso   1.00
O646   O     0.00000   0.78036   0.16317   0.00000  Uiso   1.00
O647   O     0.28036   0.50000   0.83683   0.00000  Uiso   1.00
O648   O     0.21964   0.50000   0.16317   0.00000  Uiso   1.00
O649   O     0.00000   0.78036   0.83683   0.00000  Uiso   1.00
O650   O     0.00000   0.71964   0.16317   0.00000  Uiso   1.00
O651   O     0.21964   0.50000   0.83683   0.00000  Uiso   1.00
O652   O     0.28036   0.50000   0.16317   0.00000  Uiso   1.00
O653   O     0.20726   0.57307   0.27282   0.00000  Uiso   1.00
O654   O     0.29275   0.92693   0.72718   0.00000  Uiso   1.00
O655   O     0.42693   0.70726   0.27282   0.00000  Uiso   1.00
O656   O     0.07307   0.79275   0.72718   0.00000  Uiso   1.00
O657   O     0.29275   0.92693   0.27282   0.00000  Uiso   1.00
O658   O     0.20726   0.57307   0.72718   0.00000  Uiso   1.00
O659   O     0.07307   0.79275   0.27282   0.00000  Uiso   1.00
O660   O     0.42693   0.70726   0.72718   0.00000  Uiso   1.00
O661   O     0.20726   0.92693   0.72718   0.00000  Uiso   1.00
O662   O     0.29275   0.57307   0.27282   0.00000  Uiso   1.00
O663   O     0.42693   0.79275   0.72718   0.00000  Uiso   1.00
O664   O     0.07307   0.70726   0.27282   0.00000  Uiso   1.00
O665   O     0.29275   0.57307   0.72718   0.00000  Uiso   1.00
O666   O     0.20726   0.92693   0.27282   0.00000  Uiso   1.00
O667   O     0.07307   0.70726   0.72718   0.00000  Uiso   1.00
O668   O     0.42693   0.79275   0.27282   0.00000  Uiso   1.00
O669   O     0.45726   0.82307   0.77282   0.00000  Uiso   1.00
O670   O     0.04275   0.67693   0.22718   0.00000  Uiso   1.00
O671   O     0.17693   0.95726   0.77282   0.00000  Uiso   1.00
O672   O     0.32307   0.54275   0.22718   0.00000  Uiso   1.00
O673   O     0.04275   0.67693   0.77282   0.00000  Uiso   1.00
O674   O     0.45726   0.82307   0.22718   0.00000  Uiso   1.00
O675   O     0.32307   0.54275   0.77282   0.00000  Uiso   1.00
O676   O     0.17693   0.95726   0.22718   0.00000  Uiso   1.00
O677   O     0.45726   0.67693   0.22718   0.00000  Uiso   1.00
O678   O     0.04275   0.82307   0.77282   0.00000  Uiso   1.00
O679   O     0.17693   0.54275   0.22718   0.00000  Uiso   1.00
O680   O     0.32307   0.95726   0.77282   0.00000  Uiso   1.00
O681   O     0.04275   0.82307   0.22718   0.00000  Uiso   1.00
O682   O     0.45726   0.67693   0.77282   0.00000  Uiso   1.00
O683   O     0.32307   0.95726   0.22718   0.00000  Uiso   1.00
O684   O     0.17693   0.54275   0.77282   0.00000  Uiso   1.00
C685   C     0.25000   0.50000   0.02124   0.00000  Uiso   1.00
C686   C     0.25000   0.50000   0.97873   0.00000  Uiso   1.00
C687   C     0.00000   0.75000   0.02126   0.00000  Uiso   1.00
C688   C     0.00000   0.75000   0.97874   0.00000  Uiso   1.00
C689   C     0.00000   0.75000   0.52126   0.00000  Uiso   1.00
C690   C     0.00000   0.75000   0.47874   0.00000  Uiso   1.00
C691   C     0.25000   0.50000   0.52126   0.00000  Uiso   1.00
C692   C     0.25000   0.50000   0.47874   0.00000  Uiso   1.00
C693   C     0.25000   0.50000   0.35509   0.00000  Uiso   1.00
C694   C     0.25000   0.50000   0.64491   0.00000  Uiso   1.00
C695   C     0.00000   0.75000   0.35509   0.00000  Uiso   1.00
C696   C     0.00000   0.75000   0.64491   0.00000  Uiso   1.00
C697   C     0.00000   0.75000   0.85509   0.00000  Uiso   1.00
C698   C     0.00000   0.75000   0.14491   0.00000  Uiso   1.00
C699   C     0.25000   0.50000   0.85509   0.00000  Uiso   1.00
C700   C     0.25000   0.50000   0.14490   0.00000  Uiso   1.00
C701   C     0.17992   0.57009   0.24999   0.00000  Uiso   1.00
C702   C     0.32009   0.92992   0.74999   0.00000  Uiso   1.00
C703   C     0.42992   0.67991   0.25001   0.00000  Uiso   1.00
C704   C     0.07009   0.82008   0.75001   0.00000  Uiso   1.00
C705   C     0.32008   0.92991   0.24999   0.00000  Uiso   1.00
C706   C     0.17991   0.57008   0.74999   0.00000  Uiso   1.00
C707   C     0.07008   0.82009   0.25001   0.00000  Uiso   1.00
C708   C     0.42991   0.67992   0.75001   0.00000  Uiso   1.00
C709   C     0.17992   0.92991   0.75001   0.00000  Uiso   1.00
C710   C     0.32009   0.57008   0.25001   0.00000  Uiso   1.00
C711   C     0.42992   0.82009   0.74999   0.00000  Uiso   1.00
C712   C     0.07009   0.67992   0.24999   0.00000  Uiso   1.00
C713   C     0.32008   0.57009   0.75001   0.00000  Uiso   1.00
C714   C     0.17991   0.92992   0.25001   0.00000  Uiso   1.00
C715   C     0.07008   0.67991   0.74999   0.00000  Uiso   1.00
C716   C     0.42991   0.82008   0.24999   0.00000  Uiso   1.00
C717   C     0.12190   0.90481   0.22493   0.00000  Uiso   1.00
C718   C     0.37782   0.59546   0.77548   0.00000  Uiso   1.00
C719   C     0.09548   0.62219   0.22450   0.00000  Uiso   1.00
C720   C     0.40481   0.87810   0.77506   0.00000  Uiso   1.00
C721   C     0.37810   0.59519   0.22493   0.00000  Uiso   1.00
C722   C     0.12218   0.90454   0.77548   0.00000  Uiso   1.00
C723   C     0.40452   0.87781   0.22450   0.00000  Uiso   1.00
C724   C     0.09519   0.62190   0.77506   0.00000  Uiso   1.00
C725   C     0.12190   0.59519   0.77507   0.00000  Uiso   1.00
C726   C     0.37781   0.90453   0.22451   0.00000  Uiso   1.00
C727   C     0.09547   0.87782   0.77549   0.00000  Uiso   1.00
C728   C     0.40482   0.62190   0.22494   0.00000  Uiso   1.00
C729   C     0.37810   0.90481   0.77507   0.00000  Uiso   1.00
C730   C     0.12219   0.59547   0.22451   0.00000  Uiso   1.00
C731   C     0.40453   0.62218   0.77549   0.00000  Uiso   1.00
C732   C     0.09519   0.87810   0.22494   0.00000  Uiso   1.00
C733   C     0.37213   0.65459   0.72460   0.00000  Uiso   1.00
C734   C     0.12805   0.84524   0.27515   0.00000  Uiso   1.00
C735   C     0.34524   0.87195   0.72486   0.00000  Uiso   1.00
C736   C     0.15458   0.62786   0.27541   0.00000  Uiso   1.00
C737   C     0.12788   0.84542   0.72460   0.00000  Uiso   1.00
C738   C     0.37195   0.65476   0.27515   0.00000  Uiso   1.00
C739   C     0.15476   0.62805   0.72486   0.00000  Uiso   1.00
C740   C     0.34542   0.87214   0.27541   0.00000  Uiso   1.00
C741   C     0.37213   0.84542   0.27541   0.00000  Uiso   1.00
C742   C     0.12805   0.65476   0.72485   0.00000  Uiso   1.00
C743   C     0.34524   0.62806   0.27514   0.00000  Uiso   1.00
C744   C     0.15458   0.87213   0.72459   0.00000  Uiso   1.00
C745   C     0.12787   0.65458   0.27541   0.00000  Uiso   1.00
C746   C     0.37195   0.84524   0.72485   0.00000  Uiso   1.00
C747   C     0.15476   0.87195   0.27514   0.00000  Uiso   1.00
C748   C     0.34542   0.62787   0.72459   0.00000  Uiso   1.00
H749   H     0.11909   0.92770   0.20529   0.00000  Uiso   1.00
H750   H     0.38044   0.57277   0.79540   0.00000  Uiso   1.00
H751   H     0.07279   0.61957   0.20458   0.00000  Uiso   1.00
H752   H     0.42770   0.88091   0.79470   0.00000  Uiso   1.00
H753   H     0.38091   0.57230   0.20529   0.00000  Uiso   1.00
H754   H     0.11956   0.92723   0.79540   0.00000  Uiso   1.00
H755   H     0.42721   0.88043   0.20458   0.00000  Uiso   1.00
H756   H     0.07230   0.61909   0.79470   0.00000  Uiso   1.00
H757   H     0.11909   0.57231   0.79471   0.00000  Uiso   1.00
H758   H     0.38043   0.92722   0.20458   0.00000  Uiso   1.00
H759   H     0.07277   0.88044   0.79541   0.00000  Uiso   1.00
H760   H     0.42770   0.61909   0.20530   0.00000  Uiso   1.00
H761   H     0.38091   0.92769   0.79471   0.00000  Uiso   1.00
H762   H     0.11957   0.57278   0.20458   0.00000  Uiso   1.00
H763   H     0.42723   0.61956   0.79541   0.00000  Uiso   1.00
H764   H     0.07230   0.88091   0.20530   0.00000  Uiso   1.00
H765   H     0.36950   0.67729   0.70469   0.00000  Uiso   1.00
H766   H     0.13085   0.82236   0.29480   0.00000  Uiso   1.00
H767   H     0.32235   0.86914   0.70522   0.00000  Uiso   1.00
H768   H     0.17727   0.63047   0.29534   0.00000  Uiso   1.00
H769   H     0.13050   0.82272   0.70469   0.00000  Uiso   1.00
H770   H     0.36915   0.67764   0.29480   0.00000  Uiso   1.00
H771   H     0.17765   0.63087   0.70522   0.00000  Uiso   1.00
H772   H     0.32273   0.86953   0.29534   0.00000  Uiso   1.00
H773   H     0.36951   0.82273   0.29532   0.00000  Uiso   1.00
H774   H     0.13085   0.67764   0.70520   0.00000  Uiso   1.00
H775   H     0.32235   0.63087   0.29478   0.00000  Uiso   1.00
H776   H     0.17728   0.86951   0.70467   0.00000  Uiso   1.00
H777   H     0.13049   0.67727   0.29532   0.00000  Uiso   1.00
H778   H     0.36915   0.82236   0.70520   0.00000  Uiso   1.00
H779   H     0.17765   0.86913   0.29478   0.00000  Uiso   1.00
H780   H     0.32272   0.63049   0.70468   0.00000  Uiso   1.00
C781   C     0.09812   0.84817   0.25004   0.00000  Uiso   1.00
C782   C     0.40183   0.65188   0.75004   0.00000  Uiso   1.00
C783   C     0.15187   0.59816   0.24997   0.00000  Uiso   1.00
C784   C     0.34816   0.90187   0.74997   0.00000  Uiso   1.00
C785   C     0.40188   0.65183   0.25004   0.00000  Uiso   1.00
C786   C     0.09817   0.84812   0.75004   0.00000  Uiso   1.00
C787   C     0.34813   0.90184   0.24997   0.00000  Uiso   1.00
C788   C     0.15184   0.59813   0.74997   0.00000  Uiso   1.00
C789   C     0.09812   0.65183   0.74996   0.00000  Uiso   1.00
C790   C     0.40183   0.84812   0.24996   0.00000  Uiso   1.00
C791   C     0.15187   0.90184   0.75003   0.00000  Uiso   1.00
C792   C     0.34816   0.59813   0.25003   0.00000  Uiso   1.00
C793   C     0.40188   0.84817   0.74996   0.00000  Uiso   1.00
C794   C     0.09817   0.65188   0.24996   0.00000  Uiso   1.00
C795   C     0.34813   0.59816   0.75003   0.00000  Uiso   1.00
C796   C     0.15184   0.90187   0.25003   0.00000  Uiso   1.00
C797   C     0.25000   0.50000   0.10253   0.00000  Uiso   1.00
C798   C     0.25000   0.50000   0.89745   0.00000  Uiso   1.00
C799   C     0.00000   0.75000   0.10255   0.00000  Uiso   1.00
C800   C     0.00000   0.75000   0.89745   0.00000  Uiso   1.00
C801   C     0.00000   0.75000   0.60255   0.00000  Uiso   1.00
C802   C     0.00000   0.75000   0.39745   0.00000  Uiso   1.00
C803   C     0.25000   0.50000   0.60255   0.00000  Uiso   1.00
C804   C     0.25000   0.50000   0.39745   0.00000  Uiso   1.00
N805   N     0.21714   0.55963   0.10182   0.00000  Uiso   1.00
O806   O     0.18981   0.57679   0.08616   0.00000  Uiso   1.00
O807   O     0.23211   0.57320   0.13290   0.00000  Uiso   1.00
N808   N     0.28142   0.56041   0.89815   0.00000  Uiso   1.00
O809   O     0.30814   0.57839   0.91396   0.00000  Uiso   1.00
O810   O     0.26635   0.57341   0.86685   0.00000  Uiso   1.00
N811   N     0.06038   0.71852   0.10186   0.00000  Uiso   1.00
O812   O     0.07839   0.69183   0.08601   0.00000  Uiso   1.00
O813   O     0.07337   0.73356   0.13318   0.00000  Uiso   1.00
N814   N     0.06039   0.78148   0.89814   0.00000  Uiso   1.00
O815   O     0.07840   0.80816   0.91399   0.00000  Uiso   1.00
O816   O     0.07337   0.76644   0.86682   0.00000  Uiso   1.00
N817   N     0.28284   0.94035   0.10182   0.00000  Uiso   1.00
O818   O     0.31014   0.92315   0.08613   0.00000  Uiso   1.00
O819   O     0.26789   0.92682   0.13293   0.00000  Uiso   1.00
N820   N     0.21858   0.93958   0.89814   0.00000  Uiso   1.00
O821   O     0.19187   0.92159   0.91396   0.00000  Uiso   1.00
O822   O     0.23365   0.92659   0.86684   0.00000  Uiso   1.00
N823   N     0.43962   0.78148   0.10186   0.00000  Uiso   1.00
O824   O     0.42161   0.80817   0.08601   0.00000  Uiso   1.00
O825   O     0.42663   0.76644   0.13318   0.00000  Uiso   1.00
N826   N     0.43961   0.71852   0.89814   0.00000  Uiso   1.00
O827   O     0.42160   0.69184   0.91399   0.00000  Uiso   1.00
O828   O     0.42663   0.73356   0.86682   0.00000  Uiso   1.00
N829   N     0.46861   0.81043   0.60186   0.00000  Uiso   1.00
O830   O     0.48366   0.82339   0.63319   0.00000  Uiso   1.00
O831   O     0.44196   0.82848   0.58601   0.00000  Uiso   1.00
N832   N     0.03139   0.81043   0.39814   0.00000  Uiso   1.00
O833   O     0.01634   0.82339   0.36681   0.00000  Uiso   1.00
O834   O     0.05804   0.82848   0.41399   0.00000  Uiso   1.00
N835   N     0.18958   0.96860   0.60186   0.00000  Uiso   1.00
O836   O     0.17661   0.98365   0.63319   0.00000  Uiso   1.00
O837   O     0.17153   0.94194   0.58601   0.00000  Uiso   1.00
N838   N     0.18958   0.53140   0.39814   0.00000  Uiso   1.00
O839   O     0.17661   0.51635   0.36681   0.00000  Uiso   1.00
O840   O     0.17153   0.55806   0.41399   0.00000  Uiso   1.00
N841   N     0.03139   0.68957   0.60186   0.00000  Uiso   1.00
O842   O     0.01634   0.67661   0.63319   0.00000  Uiso   1.00
O843   O     0.05804   0.67152   0.58601   0.00000  Uiso   1.00
N844   N     0.46861   0.68957   0.39814   0.00000  Uiso   1.00
O845   O     0.48366   0.67661   0.36681   0.00000  Uiso   1.00
O846   O     0.44196   0.67152   0.41399   0.00000  Uiso   1.00
N847   N     0.31043   0.53140   0.60186   0.00000  Uiso   1.00
O848   O     0.32339   0.51635   0.63319   0.00000  Uiso   1.00
O849   O     0.32847   0.55806   0.58601   0.00000  Uiso   1.00
N850   N     0.31042   0.96860   0.39814   0.00000  Uiso   1.00
O851   O     0.32339   0.98365   0.36681   0.00000  Uiso   1.00
O852   O     0.32847   0.94194   0.41399   0.00000  Uiso   1.00
Zn853  Zn    0.70660   0.50000   0.21760   0.00000  Uiso   1.00
Zn854  Zn    0.79340   0.50000   0.78240   0.00000  Uiso   1.00
Zn855  Zn    0.50000   0.70660   0.21760   0.00000  Uiso   1.00
Zn856  Zn    0.50000   0.79340   0.78240   0.00000  Uiso   1.00
Zn857  Zn    0.79340   0.50000   0.21760   0.00000  Uiso   1.00
Zn858  Zn    0.70660   0.50000   0.78240   0.00000  Uiso   1.00
Zn859  Zn    0.50000   0.79340   0.21760   0.00000  Uiso   1.00
Zn860  Zn    0.50000   0.70660   0.78240   0.00000  Uiso   1.00
Zn861  Zn    0.95660   0.75000   0.71760   0.00000  Uiso   1.00
Zn862  Zn    0.54340   0.75000   0.28240   0.00000  Uiso   1.00
Zn863  Zn    0.75000   0.95660   0.71760   0.00000  Uiso   1.00
Zn864  Zn    0.75000   0.54340   0.28240   0.00000  Uiso   1.00
Zn865  Zn    0.54340   0.75000   0.71760   0.00000  Uiso   1.00
Zn866  Zn    0.95660   0.75000   0.28240   0.00000  Uiso   1.00
Zn867  Zn    0.75000   0.54340   0.71760   0.00000  Uiso   1.00
Zn868  Zn    0.75000   0.95660   0.28240   0.00000  Uiso   1.00
C869   C     0.73355   0.52859   0.04144   0.00000  Uiso   1.00
C870   C     0.76573   0.52899   0.95853   0.00000  Uiso   1.00
C871   C     0.52896   0.73421   0.04147   0.00000  Uiso   1.00
C872   C     0.52896   0.76579   0.95853   0.00000  Uiso   1.00
C873   C     0.76645   0.97141   0.04144   0.00000  Uiso   1.00
C874   C     0.73427   0.97100   0.95853   0.00000  Uiso   1.00
C875   C     0.97104   0.76579   0.04147   0.00000  Uiso   1.00
C876   C     0.97104   0.73421   0.95853   0.00000  Uiso   1.00
C877   C     0.98425   0.77898   0.54147   0.00000  Uiso   1.00
C878   C     0.51575   0.77898   0.45853   0.00000  Uiso   1.00
C879   C     0.72102   0.98425   0.54147   0.00000  Uiso   1.00
C880   C     0.72102   0.51575   0.45853   0.00000  Uiso   1.00
C881   C     0.51575   0.72102   0.54147   0.00000  Uiso   1.00
C882   C     0.98425   0.72102   0.45853   0.00000  Uiso   1.00
C883   C     0.77898   0.51575   0.54147   0.00000  Uiso   1.00
C884   C     0.77898   0.98425   0.45853   0.00000  Uiso   1.00
H885   H     0.72106   0.55072   0.02541   0.00000  Uiso   1.00
H886   H     0.77766   0.55142   0.97457   0.00000  Uiso   1.00
H887   H     0.55136   0.72222   0.02544   0.00000  Uiso   1.00
H888   H     0.55137   0.77777   0.97456   0.00000  Uiso   1.00
H889   H     0.77893   0.94927   0.02541   0.00000  Uiso   1.00
H890   H     0.72234   0.94857   0.97457   0.00000  Uiso   1.00
H891   H     0.94864   0.77778   0.02544   0.00000  Uiso   1.00
H892   H     0.94863   0.72223   0.97456   0.00000  Uiso   1.00
H893   H     0.97229   0.80140   0.52545   0.00000  Uiso   1.00
H894   H     0.52771   0.80140   0.47456   0.00000  Uiso   1.00
H895   H     0.69860   0.97229   0.52545   0.00000  Uiso   1.00
H896   H     0.69860   0.52772   0.47456   0.00000  Uiso   1.00
H897   H     0.52771   0.69860   0.52545   0.00000  Uiso   1.00
H898   H     0.97229   0.69860   0.47456   0.00000  Uiso   1.00
H899   H     0.80140   0.52771   0.52545   0.00000  Uiso   1.00
H900   H     0.80140   0.97228   0.47456   0.00000  Uiso   1.00
C901   C     0.73343   0.52911   0.08205   0.00000  Uiso   1.00
C902   C     0.76585   0.52951   0.91792   0.00000  Uiso   1.00
C903   C     0.52949   0.73411   0.08208   0.00000  Uiso   1.00
C904   C     0.52949   0.76589   0.91792   0.00000  Uiso   1.00
C905   C     0.76657   0.97088   0.08205   0.00000  Uiso   1.00
C906   C     0.73415   0.97048   0.91792   0.00000  Uiso   1.00
C907   C     0.97051   0.76589   0.08208   0.00000  Uiso   1.00
C908   C     0.97051   0.73411   0.91792   0.00000  Uiso   1.00
C909   C     0.98415   0.77951   0.58208   0.00000  Uiso   1.00
C910   C     0.51585   0.77951   0.41792   0.00000  Uiso   1.00
C911   C     0.72049   0.98415   0.58208   0.00000  Uiso   1.00
C912   C     0.72049   0.51585   0.41792   0.00000  Uiso   1.00
C913   C     0.51585   0.72049   0.58208   0.00000  Uiso   1.00
C914   C     0.98415   0.72049   0.41792   0.00000  Uiso   1.00
C915   C     0.77951   0.51585   0.58208   0.00000  Uiso   1.00
C916   C     0.77951   0.98415   0.41792   0.00000  Uiso   1.00
O917   O     0.75000   0.50000   0.25000   0.00000  Uiso   1.00
O918   O     0.75000   0.50000   0.75000   0.00000  Uiso   1.00
O919   O     0.50000   0.75000   0.25000   0.00000  Uiso   1.00
O920   O     0.50000   0.75000   0.75000   0.00000  Uiso   1.00
O921   O     0.75000   0.96964   0.33683   0.00000  Uiso   1.00
O922   O     0.75000   0.53036   0.66317   0.00000  Uiso   1.00
O923   O     0.53036   0.75000   0.33683   0.00000  Uiso   1.00
O924   O     0.96964   0.75000   0.66317   0.00000  Uiso   1.00
O925   O     0.75000   0.53036   0.33683   0.00000  Uiso   1.00
O926   O     0.75000   0.96964   0.66317   0.00000  Uiso   1.00
O927   O     0.96964   0.75000   0.33683   0.00000  Uiso   1.00
O928   O     0.53036   0.75000   0.66317   0.00000  Uiso   1.00
O929   O     0.50000   0.71964   0.83683   0.00000  Uiso   1.00
O930   O     0.50000   0.78036   0.16317   0.00000  Uiso   1.00
O931   O     0.78036   0.50000   0.83683   0.00000  Uiso   1.00
O932   O     0.71964   0.50000   0.16317   0.00000  Uiso   1.00
O933   O     0.50000   0.78036   0.83683   0.00000  Uiso   1.00
O934   O     0.50000   0.71964   0.16317   0.00000  Uiso   1.00
O935   O     0.71964   0.50000   0.83683   0.00000  Uiso   1.00
O936   O     0.78036   0.50000   0.16317   0.00000  Uiso   1.00
O937   O     0.70726   0.57307   0.27282   0.00000  Uiso   1.00
O938   O     0.79275   0.92693   0.72718   0.00000  Uiso   1.00
O939   O     0.92693   0.70726   0.27282   0.00000  Uiso   1.00
O940   O     0.57307   0.79275   0.72718   0.00000  Uiso   1.00
O941   O     0.79275   0.92693   0.27282   0.00000  Uiso   1.00
O942   O     0.70726   0.57307   0.72718   0.00000  Uiso   1.00
O943   O     0.57307   0.79275   0.27282   0.00000  Uiso   1.00
O944   O     0.92693   0.70726   0.72718   0.00000  Uiso   1.00
O945   O     0.70726   0.92693   0.72718   0.00000  Uiso   1.00
O946   O     0.79275   0.57307   0.27282   0.00000  Uiso   1.00
O947   O     0.92693   0.79275   0.72718   0.00000  Uiso   1.00
O948   O     0.57307   0.70726   0.27282   0.00000  Uiso   1.00
O949   O     0.79275   0.57307   0.72718   0.00000  Uiso   1.00
O950   O     0.70726   0.92693   0.27282   0.00000  Uiso   1.00
O951   O     0.57307   0.70726   0.72718   0.00000  Uiso   1.00
O952   O     0.92693   0.79275   0.27282   0.00000  Uiso   1.00
O953   O     0.95726   0.82307   0.77282   0.00000  Uiso   1.00
O954   O     0.54275   0.67693   0.22718   0.00000  Uiso   1.00
O955   O     0.67693   0.95726   0.77282   0.00000  Uiso   1.00
O956   O     0.82307   0.54275   0.22718   0.00000  Uiso   1.00
O957   O     0.54275   0.67693   0.77282   0.00000  Uiso   1.00
O958   O     0.95726   0.82307   0.22718   0.00000  Uiso   1.00
O959   O     0.82307   0.54275   0.77282   0.00000  Uiso   1.00
O960   O     0.67693   0.95726   0.22718   0.00000  Uiso   1.00
O961   O     0.95726   0.67693   0.22718   0.00000  Uiso   1.00
O962   O     0.54275   0.82307   0.77282   0.00000  Uiso   1.00
O963   O     0.67693   0.54275   0.22718   0.00000  Uiso   1.00
O964   O     0.82307   0.95726   0.77282   0.00000  Uiso   1.00
O965   O     0.54275   0.82307   0.22718   0.00000  Uiso   1.00
O966   O     0.95726   0.67693   0.77282   0.00000  Uiso   1.00
O967   O     0.82307   0.95726   0.22718   0.00000  Uiso   1.00
O968   O     0.67693   0.54275   0.77282   0.00000  Uiso   1.00
C969   C     0.75000   0.50000   0.02124   0.00000  Uiso   1.00
C970   C     0.75000   0.50000   0.97873   0.00000  Uiso   1.00
C971   C     0.50000   0.75000   0.02126   0.00000  Uiso   1.00
C972   C     0.50000   0.75000   0.97874   0.00000  Uiso   1.00
C973   C     0.50000   0.75000   0.52126   0.00000  Uiso   1.00
C974   C     0.50000   0.75000   0.47874   0.00000  Uiso   1.00
C975   C     0.75000   0.50000   0.52126   0.00000  Uiso   1.00
C976   C     0.75000   0.50000   0.47874   0.00000  Uiso   1.00
C977   C     0.75000   0.50000   0.35509   0.00000  Uiso   1.00
C978   C     0.75000   0.50000   0.64491   0.00000  Uiso   1.00
C979   C     0.50000   0.75000   0.35509   0.00000  Uiso   1.00
C980   C     0.50000   0.75000   0.64491   0.00000  Uiso   1.00
C981   C     0.50000   0.75000   0.85509   0.00000  Uiso   1.00
C982   C     0.50000   0.75000   0.14491   0.00000  Uiso   1.00
C983   C     0.75000   0.50000   0.85509   0.00000  Uiso   1.00
C984   C     0.75000   0.50000   0.14490   0.00000  Uiso   1.00
C985   C     0.67992   0.57009   0.24999   0.00000  Uiso   1.00
C986   C     0.82009   0.92992   0.74999   0.00000  Uiso   1.00
C987   C     0.92992   0.67991   0.25001   0.00000  Uiso   1.00
C988   C     0.57009   0.82008   0.75001   0.00000  Uiso   1.00
C989   C     0.82008   0.92991   0.24999   0.00000  Uiso   1.00
C990   C     0.67991   0.57008   0.74999   0.00000  Uiso   1.00
C991   C     0.57008   0.82009   0.25001   0.00000  Uiso   1.00
C992   C     0.92991   0.67992   0.75001   0.00000  Uiso   1.00
C993   C     0.67992   0.92991   0.75001   0.00000  Uiso   1.00
C994   C     0.82009   0.57008   0.25001   0.00000  Uiso   1.00
C995   C     0.92992   0.82009   0.74999   0.00000  Uiso   1.00
C996   C     0.57009   0.67992   0.24999   0.00000  Uiso   1.00
C997   C     0.82008   0.57009   0.75001   0.00000  Uiso   1.00
C998   C     0.67991   0.92992   0.25001   0.00000  Uiso   1.00
C999   C     0.57008   0.67991   0.74999   0.00000  Uiso   1.00
C1000  C     0.92991   0.82008   0.24999   0.00000  Uiso   1.00
C1001  C     0.62190   0.90481   0.22493   0.00000  Uiso   1.00
C1002  C     0.87782   0.59546   0.77548   0.00000  Uiso   1.00
C1003  C     0.59548   0.62219   0.22450   0.00000  Uiso   1.00
C1004  C     0.90481   0.87810   0.77506   0.00000  Uiso   1.00
C1005  C     0.87810   0.59519   0.22493   0.00000  Uiso   1.00
C1006  C     0.62218   0.90454   0.77548   0.00000  Uiso   1.00
C1007  C     0.90452   0.87781   0.22450   0.00000  Uiso   1.00
C1008  C     0.59519   0.62190   0.77506   0.00000  Uiso   1.00
C1009  C     0.62190   0.59519   0.77507   0.00000  Uiso   1.00
C1010  C     0.87781   0.90453   0.22451   0.00000  Uiso   1.00
C1011  C     0.59547   0.87782   0.77549   0.00000  Uiso   1.00
C1012  C     0.90482   0.62190   0.22494   0.00000  Uiso   1.00
C1013  C     0.87810   0.90481   0.77507   0.00000  Uiso   1.00
C1014  C     0.62219   0.59547   0.22451   0.00000  Uiso   1.00
C1015  C     0.90453   0.62218   0.77549   0.00000  Uiso   1.00
C1016  C     0.59519   0.87810   0.22494   0.00000  Uiso   1.00
C1017  C     0.87213   0.65459   0.72460   0.00000  Uiso   1.00
C1018  C     0.62805   0.84524   0.27515   0.00000  Uiso   1.00
C1019  C     0.84524   0.87195   0.72486   0.00000  Uiso   1.00
C1020  C     0.65458   0.62786   0.27541   0.00000  Uiso   1.00
C1021  C     0.62788   0.84542   0.72460   0.00000  Uiso   1.00
C1022  C     0.87195   0.65476   0.27515   0.00000  Uiso   1.00
C1023  C     0.65476   0.62805   0.72486   0.00000  Uiso   1.00
C1024  C     0.84542   0.87214   0.27541   0.00000  Uiso   1.00
C1025  C     0.87213   0.84542   0.27541   0.00000  Uiso   1.00
C1026  C     0.62805   0.65476   0.72485   0.00000  Uiso   1.00
C1027  C     0.84524   0.62806   0.27514   0.00000  Uiso   1.00
C1028  C     0.65458   0.87213   0.72459   0.00000  Uiso   1.00
C1029  C     0.62787   0.65458   0.27541   0.00000  Uiso   1.00
C1030  C     0.87195   0.84524   0.72485   0.00000  Uiso   1.00
C1031  C     0.65476   0.87195   0.27514   0.00000  Uiso   1.00
C1032  C     0.84542   0.62787   0.72459   0.00000  Uiso   1.00
H1033  H     0.61909   0.92770   0.20529   0.00000  Uiso   1.00
H1034  H     0.88044   0.57277   0.79540   0.00000  Uiso   1.00
H1035  H     0.57279   0.61957   0.20458   0.00000  Uiso   1.00
H1036  H     0.92770   0.88091   0.79470   0.00000  Uiso   1.00
H1037  H     0.88091   0.57230   0.20529   0.00000  Uiso   1.00
H1038  H     0.61956   0.92723   0.79540   0.00000  Uiso   1.00
H1039  H     0.92721   0.88043   0.20458   0.00000  Uiso   1.00
H1040  H     0.57230   0.61909   0.79470   0.00000  Uiso   1.00
H1041  H     0.61909   0.57231   0.79471   0.00000  Uiso   1.00
H1042  H     0.88043   0.92722   0.20458   0.00000  Uiso   1.00
H1043  H     0.57277   0.88044   0.79541   0.00000  Uiso   1.00
H1044  H     0.92770   0.61909   0.20530   0.00000  Uiso   1.00
H1045  H     0.88091   0.92769   0.79471   0.00000  Uiso   1.00
H1046  H     0.61957   0.57278   0.20458   0.00000  Uiso   1.00
H1047  H     0.92723   0.61956   0.79541   0.00000  Uiso   1.00
H1048  H     0.57230   0.88091   0.20530   0.00000  Uiso   1.00
H1049  H     0.86950   0.67729   0.70469   0.00000  Uiso   1.00
H1050  H     0.63085   0.82236   0.29480   0.00000  Uiso   1.00
H1051  H     0.82235   0.86914   0.70522   0.00000  Uiso   1.00
H1052  H     0.67727   0.63047   0.29534   0.00000  Uiso   1.00
H1053  H     0.63050   0.82272   0.70469   0.00000  Uiso   1.00
H1054  H     0.86915   0.67764   0.29480   0.00000  Uiso   1.00
H1055  H     0.67765   0.63087   0.70522   0.00000  Uiso   1.00
H1056  H     0.82273   0.86953   0.29534   0.00000  Uiso   1.00
H1057  H     0.86951   0.82273   0.29532   0.00000  Uiso   1.00
H1058  H     0.63085   0.67764   0.70520   0.00000  Uiso   1.00
H1059  H     0.82235   0.63087   0.29478   0.00000  Uiso   1.00
H1060  H     0.67728   0.86951   0.70467   0.00000  Uiso   1.00
H1061  H     0.63049   0.67727   0.29532   0.00000  Uiso   1.00
H1062  H     0.86915   0.82236   0.70520   0.00000  Uiso   1.00
H1063  H     0.67765   0.86913   0.29478   0.00000  Uiso   1.00
H1064  H     0.82272   0.63049   0.70468   0.00000  Uiso   1.00
C1065  C     0.59812   0.84817   0.25004   0.00000  Uiso   1.00
C1066  C     0.90183   0.65188   0.75004   0.00000  Uiso   1.00
C1067  C     0.65187   0.59816   0.24997   0.00000  Uiso   1.00
C1068  C     0.84816   0.90187   0.74997   0.00000  Uiso   1.00
C1069  C     0.90188   0.65183   0.25004   0.00000  Uiso   1.00
C1070  C     0.59817   0.84812   0.75004   0.00000  Uiso   1.00
C1071  C     0.84813   0.90184   0.24997   0.00000  Uiso   1.00
C1072  C     0.65184   0.59813   0.74997   0.00000  Uiso   1.00
C1073  C     0.59812   0.65183   0.74996   0.00000  Uiso   1.00
C1074  C     0.90183   0.84812   0.24996   0.00000  Uiso   1.00
C1075  C     0.65187   0.90184   0.75003   0.00000  Uiso   1.00
C1076  C     0.84816   0.59813   0.25003   0.00000  Uiso   1.00
C1077  C     0.90188   0.84817   0.74996   0.00000  Uiso   1.00
C1078  C     0.59817   0.65188   0.24996   0.00000  Uiso   1.00
C1079  C     0.84813   0.59816   0.75003   0.00000  Uiso   1.00
C1080  C     0.65184   0.90187   0.25003   0.00000  Uiso   1.00
C1081  C     0.75000   0.50000   0.10253   0.00000  Uiso   1.00
C1082  C     0.75000   0.50000   0.89745   0.00000  Uiso   1.00
C1083  C     0.50000   0.75000   0.10255   0.00000  Uiso   1.00
C1084  C     0.50000   0.75000   0.89745   0.00000  Uiso   1.00
C1085  C     0.50000   0.75000   0.60255   0.00000  Uiso   1.00
C1086  C     0.50000   0.75000   0.39745   0.00000  Uiso   1.00
C1087  C     0.75000   0.50000   0.60255   0.00000  Uiso   1.00
C1088  C     0.75000   0.50000   0.39745   0.00000  Uiso   1.00
N1089  N     0.71714   0.55963   0.10182   0.00000  Uiso   1.00
O1090  O     0.68981   0.57679   0.08616   0.00000  Uiso   1.00
O1091  O     0.73211   0.57320   0.13290   0.00000  Uiso   1.00
N1092  N     0.78142   0.56041   0.89815   0.00000  Uiso   1.00
O1093  O     0.80814   0.57839   0.91396   0.00000  Uiso   1.00
O1094  O     0.76635   0.57341   0.86685   0.00000  Uiso   1.00
N1095  N     0.56038   0.71852   0.10186   0.00000  Uiso   1.00
O1096  O     0.57839   0.69183   0.08601   0.00000  Uiso   1.00
O1097  O     0.57337   0.73356   0.13318   0.00000  Uiso   1.00
N1098  N     0.56039   0.78148   0.89814   0.00000  Uiso   1.00
O1099  O     0.57840   0.80816   0.91399   0.00000  Uiso   1.00
O1100  O     0.57337   0.76644   0.86682   0.00000  Uiso   1.00
N1101  N     0.78284   0.94035   0.10182   0.00000  Uiso   1.00
O1102  O     0.81014   0.92315   0.08613   0.00000  Uiso   1.00
O1103  O     0.76789   0.92682   0.13293   0.00000  Uiso   1.00
N1104  N     0.71858   0.93958   0.89814   0.00000  Uiso   1.00
O1105  O     0.69187   0.92159   0.91396   0.00000  Uiso   1.00
O1106  O     0.73365   0.92659   0.86684   0.00000  Uiso   1.00
N1107  N     0.93962   0.78148   0.10186   0.00000  Uiso   1.00
O1108  O     0.92161   0.80817   0.08601   0.00000  Uiso   1.00
O1109  O     0.92663   0.76644   0.13318   0.00000  Uiso   1.00
N1110  N     0.93961   0.71852   0.89814   0.00000  Uiso   1.00
O1111  O     0.92160   0.69184   0.91399   0.00000  Uiso   1.00
O1112  O     0.92663   0.73356   0.86682   0.00000  Uiso   1.00
N1113  N     0.96861   0.81043   0.60186   0.00000  Uiso   1.00
O1114  O     0.98366   0.82339   0.63319   0.00000  Uiso   1.00
O1115  O     0.94196   0.82848   0.58601   0.00000  Uiso   1.00
N1116  N     0.53139   0.81043   0.39814   0.00000  Uiso   1.00
O1117  O     0.51634   0.82339   0.36681   0.00000  Uiso   1.00
O1118  O     0.55804   0.82848   0.41399   0.00000  Uiso   1.00
N1119  N     0.68958   0.96860   0.60186   0.00000  Uiso   1.00
O1120  O     0.67661   0.98365   0.63319   0.00000  Uiso   1.00
O1121  O     0.67153   0.94194   0.58601   0.00000  Uiso   1.00
N1122  N     0.68958   0.53140   0.39814   0.00000  Uiso   1.00
O1123  O     0.67661   0.51635   0.36681   0.00000  Uiso   1.00
O1124  O     0.67153   0.55806   0.41399   0.00000  Uiso   1.00
N1125  N     0.53139   0.68957   0.60186   0.00000  Uiso   1.00
O1126  O     0.51634   0.67661   0.63319   0.00000  Uiso   1.00
O1127  O     0.55804   0.67152   0.58601   0.00000  Uiso   1.00
N1128  N     0.96861   0.68957   0.39814   0.00000  Uiso   1.00
O1129  O     0.98366   0.67661   0.36681   0.00000  Uiso   1.00
O1130  O     0.94196   0.67152   0.41399   0.00000  Uiso   1.00
N1131  N     0.81043   0.53140   0.60186   0.00000  Uiso   1.00
O1132  O     0.82339   0.51635   0.63319   0.00000  Uiso   1.00
O1133  O     0.82847   0.55806   0.58601   0.00000  Uiso   1.00
N1134  N     0.81042   0.96860   0.39814   0.00000  Uiso   1.00
O1135  O     0.82339   0.98365   0.36681   0.00000  Uiso   1.00
O1136  O     0.82847   0.94194   0.41399   0.00000  Uiso   1.00
loop_
_geom_bond_atom_site_label_1
_geom_bond_atom_site_label_2
_geom_bond_distance
_geom_bond_site_symmetry_2
_ccdc_geom_bond_type
Zn1    O65     1.945   .     S
Zn1    O111    1.938   .     S
Zn1    O80     1.933   .     S
Zn1    O676    1.938   1_545 S
Zn2    O107    1.938   .     S
Zn2    O79     1.933   .     S
Zn2    O66     1.945   .     S
Zn2    O680    1.938   1_545 S
Zn3    O393    1.938   1_455 S
Zn3    O82     1.933   .     S
Zn3    O67     1.945   .     S
Zn3    O102    1.938   .     S
Zn4    O81     1.933   .     S
Zn4    O68     1.945   .     S
Zn4    O385    1.938   1_455 S
Zn4    O110    1.938   .     S
Zn5    O104    1.938   .     S
Zn5    O84     1.933   .     S
Zn5    O65     1.945   .     S
Zn5    O683    1.938   1_545 S
Zn6    O83     1.933   .     S
Zn6    O116    1.938   .     S
Zn6    O66     1.945   .     S
Zn6    O671    1.938   1_545 S
Zn7    O390    1.938   1_455 S
Zn7    O78     1.933   .     S
Zn7    O67     1.945   .     S
Zn7    O113    1.938   .     S
Zn8    O398    1.938   1_455 S
Zn8    O77     1.933   .     S
Zn8    O68     1.945   .     S
Zn8    O105    1.938   .     S
Zn9    O72     1.933   .     S
Zn9    O95     1.938   .     S
Zn9    O92     1.938   .     S
Zn9    O352    1.945   .     S
Zn10   O71     1.933   .     S
Zn10   O96     1.938   .     S
Zn10   O91     1.938   .     S
Zn10   O67     1.945   .     S
Zn11   O86     1.938   .     S
Zn11   O93     1.938   .     S
Zn11   O74     1.933   .     S
Zn11   O634    1.945   .     S
Zn12   O85     1.938   .     S
Zn12   O73     1.933   .     S
Zn12   O65     1.945   .     S
Zn12   O94     1.938   .     S
Zn13   O99     1.938   .     S
Zn13   O76     1.933   .     S
Zn13   O88     1.938   .     S
Zn13   O68     1.945   .     S
Zn14   O87     1.938   .     S
Zn14   O351    1.945   .     S
Zn14   O100    1.938   .     S
Zn14   O75     1.933   .     S
Zn15   O97     1.938   .     S
Zn15   O66     1.945   .     S
Zn15   O70     1.933   .     S
Zn15   O90     1.938   .     S
Zn16   O89     1.938   .     S
Zn16   O69     1.933   .     S
Zn16   O98     1.938   .     S
Zn16   O633    1.945   .     S
C17    H33     1.084   .     S
C17    C49     1.398   .     A
C17    C117    1.396   .     S
C18    H34     1.084   .     S
C18    C50     1.398   .     A
C18    C118    1.396   .     S
C19    H35     1.084   .     S
C19    C51     1.398   .     A
C19    C119    1.396   .     S
C20    H36     1.084   .     S
C20    C52     1.398   .     A
C20    C120    1.396   .     S
C21    C685    1.396   .     A
C21    C53     1.398   .     A
C21    H37     1.084   .     S
C22    H38     1.084   .     S
C22    C54     1.398   .     A
C22    C686    1.396   .     A
C23    C403    1.396   .     A
C23    H39     1.084   .     S
C23    C55     1.398   .     A
C24    H40     1.084   .     S
C24    C404    1.396   .     A
C24    C56     1.398   .     A
C25    C57     1.398   .     A
C25    H41     1.084   .     S
C25    C405    1.396   .     A
C26    C58     1.398   .     A
C26    H42     1.084   .     S
C26    C122    1.396   .     A
C27    C59     1.398   .     A
C27    H43     1.084   .     S
C27    C691    1.396   .     S
C28    C60     1.398   .     A
C28    H44     1.084   .     S
C28    C124    1.396   .     A
C29    C61     1.398   .     A
C29    H45     1.084   .     S
C29    C121    1.396   .     S
C30    C62     1.398   .     A
C30    H46     1.084   .     S
C30    C406    1.396   .     S
C31    C123    1.396   .     A
C31    H47     1.084   .     S
C31    C63     1.398   .     A
C32    H48     1.084   .     S
C32    C64     1.398   .     A
C32    C692    1.396   .     S
C49    N237    1.441   .     S
C49    C229    1.417   .     S
C50    N240    1.441   .     S
C50    C230    1.417   .     S
C51    N243    1.441   .     S
C51    C231    1.417   .     S
C52    N246    1.441   .     S
C52    C232    1.417   .     S
C53    N249    1.441   .     S
C53    C797    1.417   .     A
C54    N252    1.441   .     S
C54    C798    1.417   .     A
C55    N255    1.441   .     S
C55    C515    1.417   .     A
C56    C516    1.417   .     A
C56    N258    1.441   .     S
C57    N261    1.441   .     S
C57    C517    1.417   .     A
C58    N264    1.441   .     S
C58    C234    1.417   .     S
C59    N267    1.441   .     S
C59    C803    1.417   .     S
C60    C236    1.417   .     A
C60    N270    1.441   .     S
C61    N273    1.441   .     S
C61    C233    1.417   .     S
C62    C518    1.417   .     A
C62    N276    1.441   .     S
C63    C235    1.417   .     A
C63    N279    1.441   .     S
C64    N282    1.441   .     S
C64    C804    1.417   .     S
O65    Zn584   1.945   1_545 S
O66    Zn579   1.945   1_545 S
O67    Zn298   1.945   1_455 S
O68    Zn293   1.945   1_455 S
O69    C693    1.279   .     S
O70    C126    1.279   .     S
O71    C127    1.279   .     S
O72    C412    1.279   .     A
O73    C125    1.279   .     A
O74    C694    1.279   .     A
O75    C411    1.279   .     A
O76    C128    1.279   .     S
O77    C129    1.279   .     A
O78    C130    1.279   .     A
O79    C131    1.279   .     S
O80    C132    1.280   .     S
O81    C129    1.279   .     A
O82    C130    1.279   .     A
O83    C131    1.279   .     S
O84    C132    1.280   .     S
O85    C133    1.279   .     A
O86    C134    1.279   .     A
O87    C135    1.279   .     A
O88    C136    1.279   .     A
O89    C137    1.279   .     A
O90    C138    1.279   .     A
O91    C139    1.279   .     A
O92    C140    1.279   .     A
O93    C141    1.279   .     A
O94    C142    1.279   .     A
O95    C143    1.279   .     A
O96    C144    1.279   .     A
O97    C145    1.279   .     A
O98    C146    1.279   .     A
O99    C147    1.279   .     A
O100   C148    1.279   .     A
O101   Zn288   1.938   .     S
O101   C143    1.279   .     A
O102   C144    1.279   .     A
O103   C141    1.279   .     A
O103   Zn574   1.938   .     S
O104   C142    1.279   .     A
O105   C147    1.279   .     A
O106   C148    1.279   .     A
O106   Zn291   1.938   .     S
O107   C145    1.279   .     A
O108   C146    1.279   .     A
O108   Zn569   1.938   .     S
O109   C135    1.279   .     A
O109   Zn287   1.938   .     S
O110   C136    1.279   .     A
O111   C133    1.279   .     A
O112   C134    1.279   .     A
O112   Zn570   1.938   .     S
O113   C139    1.279   .     A
O114   C140    1.279   .     A
O114   Zn292   1.938   .     S
O115   C137    1.279   .     A
O115   Zn573   1.938   .     S
O116   C138    1.279   .     A
C117   C589    1.396   1_545 A
C117   C118    1.463   1_554 S
C118   C590    1.396   1_545 A
C118   C117    1.463   1_556 S
C119   C307    1.396   1_455 A
C119   C120    1.463   1_554 S
C120   C308    1.396   1_455 A
C120   C119    1.463   1_556 S
C121   C309    1.396   1_455 A
C121   C122    1.463   .     S
C122   C314    1.396   1_455 S
C123   C124    1.463   .     S
C123   C595    1.396   1_545 S
C124   C600    1.396   1_545 S
C125   C236    1.458   .     S
C125   O637    1.279   1_545 S
C126   O642    1.279   1_545 A
C126   C235    1.458   .     S
C127   C234    1.458   .     S
C127   O359    1.279   1_455 A
C128   O356    1.279   1_455 A
C128   C233    1.458   .     S
C129   C232    1.458   .     S
C130   C231    1.458   .     S
C131   C230    1.458   .     S
C132   C229    1.458   .     S
C133   C215    1.457   .     S
C134   C216    1.457   .     S
C135   C217    1.457   .     S
C136   C218    1.457   .     S
C137   C219    1.457   .     S
C138   C220    1.457   .     S
C139   C213    1.457   .     S
C140   C214    1.457   .     S
C141   C223    1.457   .     S
C142   C224    1.457   .     S
C143   C225    1.457   .     S
C144   C226    1.457   .     S
C145   C227    1.457   .     S
C146   C228    1.457   .     S
C147   C221    1.457   .     S
C148   C222    1.457   .     S
C149   H181    1.083   .     S
C149   C228    1.402   .     A
C149   C164    1.387   .     A
C150   H182    1.083   .     S
C150   C163    1.387   .     A
C150   C227    1.402   .     A
C151   H183    1.083   .     S
C151   C162    1.387   .     A
C151   C226    1.402   .     A
C152   C161    1.387   .     A
C152   H184    1.083   .     S
C152   C225    1.402   .     A
C153   C224    1.402   .     A
C153   C160    1.387   .     A
C153   H185    1.083   .     S
C154   C223    1.402   .     A
C154   H186    1.083   .     S
C154   C159    1.387   .     A
C155   C158    1.387   .     A
C155   C222    1.402   .     A
C155   H187    1.083   .     S
C156   C157    1.387   .     A
C156   H188    1.083   .     S
C156   C221    1.402   .     A
C157   H189    1.083   .     S
C157   C220    1.402   .     A
C158   H190    1.083   .     S
C158   C219    1.402   .     A
C159   H191    1.083   .     S
C159   C218    1.402   .     A
C160   C217    1.402   .     A
C160   H192    1.083   .     S
C161   H193    1.083   .     S
C161   C216    1.402   .     A
C162   C215    1.402   .     A
C162   H194    1.083   .     S
C163   C214    1.402   .     A
C163   H195    1.083   .     S
C164   H196    1.083   .     S
C164   C213    1.402   .     A
C165   H197    1.083   .     S
C165   C214    1.402   .     A
C165   C180    1.387   .     A
C166   C213    1.402   .     A
C166   H198    1.083   .     S
C166   C179    1.387   .     A
C167   C216    1.402   .     A
C167   C178    1.387   .     A
C167   H199    1.083   .     S
C168   C215    1.402   .     A
C168   C177    1.387   .     A
C168   H200    1.083   .     S
C169   C218    1.402   .     A
C169   H201    1.083   .     S
C169   C176    1.387   .     A
C170   C175    1.387   .     A
C170   C217    1.402   .     A
C170   H202    1.083   .     S
C171   C220    1.402   .     A
C171   C174    1.387   .     A
C171   H203    1.083   .     S
C172   H204    1.083   .     S
C172   C219    1.402   .     A
C172   C173    1.387   .     A
C173   C222    1.402   .     A
C173   H205    1.083   .     S
C174   C221    1.402   .     A
C174   H206    1.083   .     S
C175   H207    1.083   .     S
C175   C224    1.402   .     A
C176   C223    1.402   .     A
C176   H208    1.083   .     S
C177   H209    1.083   .     S
C177   C226    1.402   .     A
C178   H210    1.083   .     S
C178   C225    1.402   .     A
C179   H211    1.083   .     S
C179   C228    1.402   .     A
C180   H212    1.083   .     S
C180   C227    1.402   .     A
C229   C621    1.417   1_545 A
C230   C622    1.417   1_545 A
C231   C339    1.417   1_455 A
C232   C340    1.417   1_455 A
C233   C341    1.417   1_455 A
C234   C346    1.417   1_455 A
C235   C627    1.417   1_545 S
C236   C632    1.417   1_545 S
N237   O238    1.302   .     A
N237   O239    1.302   .     A
N240   O241    1.302   .     A
N240   O242    1.301   .     A
N243   O245    1.301   .     A
N243   O244    1.302   .     A
N246   O248    1.301   .     A
N246   O247    1.302   .     A
N249   O251    1.302   .     A
N249   O250    1.302   .     A
N252   O254    1.301   .     A
N252   O253    1.302   .     A
N255   O257    1.301   .     A
N255   O256    1.302   .     A
N258   O260    1.301   .     A
N258   O259    1.302   .     A
N261   O262    1.301   .     A
N261   O263    1.302   .     A
N264   O265    1.301   .     A
N264   O266    1.302   .     A
N267   O268    1.301   .     A
N267   O269    1.302   .     A
N270   O272    1.302   .     A
N270   O271    1.301   .     A
N273   O274    1.301   .     A
N273   O275    1.302   .     A
N276   O277    1.301   .     A
N276   O278    1.301   .     A
N279   O280    1.301   .     A
N279   O281    1.302   .     A
N282   O283    1.301   .     A
N282   O284    1.302   .     A
Zn285  O349    1.945   .     S
Zn285  O395    1.938   .     S
Zn285  O364    1.933   .     S
Zn285  O960    1.938   1_545 S
Zn286  O391    1.938   .     S
Zn286  O363    1.933   .     S
Zn286  O350    1.945   .     S
Zn286  O964    1.938   1_545 S
Zn287  O366    1.933   .     S
Zn287  O351    1.945   .     S
Zn287  O386    1.938   .     S
Zn288  O365    1.933   .     S
Zn288  O352    1.945   .     S
Zn288  O394    1.938   .     S
Zn289  O388    1.938   .     S
Zn289  O368    1.933   .     S
Zn289  O349    1.945   .     S
Zn289  O967    1.938   1_545 S
Zn290  O367    1.933   .     S
Zn290  O400    1.938   .     S
Zn290  O350    1.945   .     S
Zn290  O955    1.938   1_545 S
Zn291  O362    1.933   .     S
Zn291  O351    1.945   .     S
Zn291  O397    1.938   .     S
Zn292  O361    1.933   .     S
Zn292  O352    1.945   .     S
Zn292  O389    1.938   .     S
Zn293  O356    1.933   .     S
Zn293  O379    1.938   .     S
Zn293  O376    1.938   .     S
Zn293  O68     1.945   1_655 S
Zn294  O355    1.933   .     S
Zn294  O380    1.938   .     S
Zn294  O375    1.938   .     S
Zn294  O351    1.945   .     S
Zn295  O370    1.938   .     S
Zn295  O377    1.938   .     S
Zn295  O358    1.933   .     S
Zn295  O918    1.945   .     S
Zn296  O369    1.938   .     S
Zn296  O357    1.933   .     S
Zn296  O349    1.945   .     S
Zn296  O378    1.938   .     S
Zn297  O383    1.938   .     S
Zn297  O360    1.933   .     S
Zn297  O372    1.938   .     S
Zn297  O352    1.945   .     S
Zn298  O371    1.938   .     S
Zn298  O67     1.945   1_655 S
Zn298  O384    1.938   .     S
Zn298  O359    1.933   .     S
Zn299  O381    1.938   .     S
Zn299  O350    1.945   .     S
Zn299  O354    1.933   .     S
Zn299  O374    1.938   .     S
Zn300  O373    1.938   .     S
Zn300  O353    1.933   .     S
Zn300  O382    1.938   .     S
Zn300  O917    1.945   .     S
C301   H317    1.084   .     S
C301   C333    1.398   .     A
C301   C401    1.396   .     S
C302   H318    1.084   .     S
C302   C334    1.398   .     A
C302   C402    1.396   .     S
C303   H319    1.084   .     S
C303   C335    1.398   .     A
C303   C403    1.396   .     S
C304   H320    1.084   .     S
C304   C336    1.398   .     A
C304   C404    1.396   .     S
C305   C969    1.396   .     A
C305   C337    1.398   .     A
C305   H321    1.084   .     S
C306   H322    1.084   .     S
C306   C338    1.398   .     A
C306   C970    1.396   .     A
C307   C119    1.396   1_655 A
C307   H323    1.084   .     S
C307   C339    1.398   .     A
C308   H324    1.084   .     S
C308   C120    1.396   1_655 A
C308   C340    1.398   .     A
C309   C341    1.398   .     A
C309   H325    1.084   .     S
C309   C121    1.396   1_655 A
C310   C342    1.398   .     A
C310   H326    1.084   .     S
C310   C406    1.396   .     A
C311   C343    1.398   .     A
C311   H327    1.084   .     S
C311   C975    1.396   .     S
C312   C344    1.398   .     A
C312   H328    1.084   .     S
C312   C408    1.396   .     A
C313   C345    1.398   .     A
C313   H329    1.084   .     S
C313   C405    1.396   .     S
C314   C346    1.398   .     A
C314   H330    1.084   .     S
C314   C122    1.396   1_655 S
C315   C407    1.396   .     A
C315   H331    1.084   .     S
C315   C347    1.398   .     A
C316   H332    1.084   .     S
C316   C348    1.398   .     A
C316   C976    1.396   .     S
C333   N521    1.441   .     S
C333   C513    1.417   .     S
C334   N524    1.441   .     S
C334   C514    1.417   .     S
C335   N527    1.441   .     S
C335   C515    1.417   .     S
C336   N530    1.441   .     S
C336   C516    1.417   .     S
C337   N533    1.441   .     S
C337   C1081   1.417   .     A
C338   N536    1.441   .     S
C338   C1082   1.417   .     A
C339   N539    1.441   .     S
C339   C231    1.417   1_655 A
C340   C232    1.417   1_655 A
C340   N542    1.441   .     S
C341   N545    1.441   .     S
C341   C233    1.417   1_655 A
C342   N548    1.441   .     S
C342   C518    1.417   .     S
C343   N551    1.441   .     S
C343   C1087   1.417   .     S
C344   C520    1.417   .     A
C344   N554    1.441   .     S
C345   N557    1.441   .     S
C345   C517    1.417   .     S
C346   C234    1.417   1_655 A
C346   N560    1.441   .     S
C347   C519    1.417   .     A
C347   N563    1.441   .     S
C348   N566    1.441   .     S
C348   C1088   1.417   .     S
O349   Zn868   1.945   1_545 S
O350   Zn863   1.945   1_545 S
O353   C977    1.279   .     S
O354   C410    1.279   .     S
O355   C411    1.279   .     S
O356   C128    1.279   1_655 A
O357   C409    1.279   .     A
O358   C978    1.279   .     A
O359   C127    1.279   1_655 A
O360   C412    1.279   .     S
O361   C413    1.279   .     A
O362   C414    1.279   .     A
O363   C415    1.279   .     S
O364   C416    1.280   .     S
O365   C413    1.279   .     A
O366   C414    1.279   .     A
O367   C415    1.279   .     S
O368   C416    1.280   .     S
O369   C417    1.279   .     A
O370   C418    1.279   .     A
O371   C419    1.279   .     A
O372   C420    1.279   .     A
O373   C421    1.279   .     A
O374   C422    1.279   .     A
O375   C423    1.279   .     A
O376   C424    1.279   .     A
O377   C425    1.279   .     A
O378   C426    1.279   .     A
O379   C427    1.279   .     A
O380   C428    1.279   .     A
O381   C429    1.279   .     A
O382   C430    1.279   .     A
O383   C431    1.279   .     A
O384   C432    1.279   .     A
O385   Zn4     1.938   1_655 S
O385   C427    1.279   .     A
O386   C428    1.279   .     A
O387   C425    1.279   .     A
O387   Zn858   1.938   .     S
O388   C426    1.279   .     A
O389   C431    1.279   .     A
O390   C432    1.279   .     A
O390   Zn7     1.938   1_655 S
O391   C429    1.279   .     A
O392   C430    1.279   .     A
O392   Zn853   1.938   .     S
O393   C419    1.279   .     A
O393   Zn3     1.938   1_655 S
O394   C420    1.279   .     A
O395   C417    1.279   .     A
O396   C418    1.279   .     A
O396   Zn854   1.938   .     S
O397   C423    1.279   .     A
O398   C424    1.279   .     A
O398   Zn8     1.938   1_655 S
O399   C421    1.279   .     A
O399   Zn857   1.938   .     S
O400   C422    1.279   .     A
C401   C873    1.396   1_545 A
C401   C402    1.463   1_554 S
C402   C874    1.396   1_545 A
C402   C401    1.463   1_556 S
C403   C404    1.463   1_554 S
C404   C403    1.463   1_556 S
C405   C406    1.463   .     S
C407   C408    1.463   .     S
C407   C879    1.396   1_545 S
C408   C884    1.396   1_545 S
C409   C520    1.458   .     S
C409   O921    1.279   1_545 S
C410   O926    1.279   1_545 A
C410   C519    1.458   .     S
C411   C518    1.458   .     S
C412   C517    1.458   .     S
C413   C516    1.458   .     S
C414   C515    1.458   .     S
C415   C514    1.458   .     S
C416   C513    1.458   .     S
C417   C499    1.457   .     S
C418   C500    1.457   .     S
C419   C501    1.457   .     S
C420   C502    1.457   .     S
C421   C503    1.457   .     S
C422   C504    1.457   .     S
C423   C497    1.457   .     S
C424   C498    1.457   .     S
C425   C507    1.457   .     S
C426   C508    1.457   .     S
C427   C509    1.457   .     S
C428   C510    1.457   .     S
C429   C511    1.457   .     S
C430   C512    1.457   .     S
C431   C505    1.457   .     S
C432   C506    1.457   .     S
C433   H465    1.083   .     S
C433   C512    1.402   .     A
C433   C448    1.387   .     A
C434   H466    1.083   .     S
C434   C447    1.387   .     A
C434   C511    1.402   .     A
C435   H467    1.083   .     S
C435   C446    1.387   .     A
C435   C510    1.402   .     A
C436   C445    1.387   .     A
C436   H468    1.083   .     S
C436   C509    1.402   .     A
C437   C508    1.402   .     A
C437   C444    1.387   .     A
C437   H469    1.083   .     S
C438   C507    1.402   .     A
C438   H470    1.083   .     S
C438   C443    1.387   .     A
C439   C442    1.387   .     A
C439   C506    1.402   .     A
C439   H471    1.083   .     S
C440   C441    1.387   .     A
C440   H472    1.083   .     S
C440   C505    1.402   .     A
C441   H473    1.083   .     S
C441   C504    1.402   .     A
C442   H474    1.083   .     S
C442   C503    1.402   .     A
C443   H475    1.083   .     S
C443   C502    1.402   .     A
C444   C501    1.402   .     A
C444   H476    1.083   .     S
C445   H477    1.083   .     S
C445   C500    1.402   .     A
C446   C499    1.402   .     A
C446   H478    1.083   .     S
C447   C498    1.402   .     A
C447   H479    1.083   .     S
C448   H480    1.083   .     S
C448   C497    1.402   .     A
C449   H481    1.083   .     S
C449   C498    1.402   .     A
C449   C464    1.387   .     A
C450   C497    1.402   .     A
C450   H482    1.083   .     S
C450   C463    1.387   .     A
C451   C500    1.402   .     A
C451   C462    1.387   .     A
C451   H483    1.083   .     S
C452   C499    1.402   .     A
C452   C461    1.387   .     A
C452   H484    1.083   .     S
C453   C502    1.402   .     A
C453   H485    1.083   .     S
C453   C460    1.387   .     A
C454   C459    1.387   .     A
C454   C501    1.402   .     A
C454   H486    1.083   .     S
C455   C504    1.402   .     A
C455   C458    1.387   .     A
C455   H487    1.083   .     S
C456   H488    1.083   .     S
C456   C503    1.402   .     A
C456   C457    1.387   .     A
C457   C506    1.402   .     A
C457   H489    1.083   .     S
C458   C505    1.402   .     A
C458   H490    1.083   .     S
C459   H491    1.083   .     S
C459   C508    1.402   .     A
C460   C507    1.402   .     A
C460   H492    1.083   .     S
C461   H493    1.083   .     S
C461   C510    1.402   .     A
C462   H494    1.083   .     S
C462   C509    1.402   .     A
C463   H495    1.083   .     S
C463   C512    1.402   .     A
C464   H496    1.083   .     S
C464   C511    1.402   .     A
C513   C905    1.417   1_545 A
C514   C906    1.417   1_545 A
C519   C911    1.417   1_545 S
C520   C916    1.417   1_545 S
N521   O522    1.302   .     A
N521   O523    1.302   .     A
N524   O525    1.302   .     A
N524   O526    1.301   .     A
N527   O529    1.301   .     A
N527   O528    1.302   .     A
N530   O532    1.301   .     A
N530   O531    1.302   .     A
N533   O535    1.302   .     A
N533   O534    1.302   .     A
N536   O538    1.301   .     A
N536   O537    1.302   .     A
N539   O541    1.301   .     A
N539   O540    1.302   .     A
N542   O544    1.301   .     A
N542   O543    1.302   .     A
N545   O546    1.301   .     A
N545   O547    1.302   .     A
N548   O549    1.301   .     A
N548   O550    1.302   .     A
N551   O552    1.301   .     A
N551   O553    1.302   .     A
N554   O556    1.302   .     A
N554   O555    1.301   .     A
N557   O558    1.301   .     A
N557   O559    1.302   .     A
N560   O561    1.301   .     A
N560   O562    1.301   .     A
N563   O564    1.301   .     A
N563   O565    1.302   .     A
N566   O567    1.301   .     A
N566   O568    1.302   .     A
Zn569  O633    1.945   .     S
Zn569  O679    1.938   .     S
Zn569  O648    1.933   .     S
Zn570  O675    1.938   .     S
Zn570  O647    1.933   .     S
Zn570  O634    1.945   .     S
Zn571  O961    1.938   1_455 S
Zn571  O650    1.933   .     S
Zn571  O635    1.945   .     S
Zn571  O670    1.938   .     S
Zn572  O649    1.933   .     S
Zn572  O636    1.945   .     S
Zn572  O953    1.938   1_455 S
Zn572  O678    1.938   .     S
Zn573  O672    1.938   .     S
Zn573  O652    1.933   .     S
Zn573  O633    1.945   .     S
Zn574  O651    1.933   .     S
Zn574  O684    1.938   .     S
Zn574  O634    1.945   .     S
Zn575  O958    1.938   1_455 S
Zn575  O646    1.933   .     S
Zn575  O635    1.945   .     S
Zn575  O681    1.938   .     S
Zn576  O966    1.938   1_455 S
Zn576  O645    1.933   .     S
Zn576  O636    1.945   .     S
Zn576  O673    1.938   .     S
Zn577  O640    1.933   .     S
Zn577  O663    1.938   .     S
Zn577  O660    1.938   .     S
Zn577  O920    1.945   .     S
Zn578  O639    1.933   .     S
Zn578  O664    1.938   .     S
Zn578  O659    1.938   .     S
Zn578  O635    1.945   .     S
Zn579  O654    1.938   .     S
Zn579  O661    1.938   .     S
Zn579  O642    1.933   .     S
Zn579  O66     1.945   1_565 S
Zn580  O653    1.938   .     S
Zn580  O641    1.933   .     S
Zn580  O633    1.945   .     S
Zn580  O662    1.938   .     S
Zn581  O667    1.938   .     S
Zn581  O644    1.933   .     S
Zn581  O656    1.938   .     S
Zn581  O636    1.945   .     S
Zn582  O655    1.938   .     S
Zn582  O919    1.945   .     S
Zn582  O668    1.938   .     S
Zn582  O643    1.933   .     S
Zn583  O665    1.938   .     S
Zn583  O634    1.945   .     S
Zn583  O638    1.933   .     S
Zn583  O658    1.938   .     S
Zn584  O657    1.938   .     S
Zn584  O637    1.933   .     S
Zn584  O666    1.938   .     S
Zn584  O65     1.945   1_565 S
C585   H601    1.084   .     S
C585   C617    1.398   .     A
C585   C685    1.396   .     S
C586   H602    1.084   .     S
C586   C618    1.398   .     A
C586   C686    1.396   .     S
C587   H603    1.084   .     S
C587   C619    1.398   .     A
C587   C687    1.396   .     S
C588   H604    1.084   .     S
C588   C620    1.398   .     A
C588   C688    1.396   .     S
C589   C117    1.396   1_565 A
C589   C621    1.398   .     A
C589   H605    1.084   .     S
C590   H606    1.084   .     S
C590   C622    1.398   .     A
C590   C118    1.396   1_565 A
C591   C971    1.396   .     A
C591   H607    1.084   .     S
C591   C623    1.398   .     A
C592   H608    1.084   .     S
C592   C972    1.396   .     A
C592   C624    1.398   .     A
C593   C625    1.398   .     A
C593   H609    1.084   .     S
C593   C973    1.396   .     A
C594   C626    1.398   .     A
C594   H610    1.084   .     S
C594   C690    1.396   .     A
C595   C627    1.398   .     A
C595   H611    1.084   .     S
C595   C123    1.396   1_565 S
C596   C628    1.398   .     A
C596   H612    1.084   .     S
C596   C692    1.396   .     A
C597   C629    1.398   .     A
C597   H613    1.084   .     S
C597   C689    1.396   .     S
C598   C630    1.398   .     A
C598   H614    1.084   .     S
C598   C974    1.396   .     S
C599   C691    1.396   .     A
C599   H615    1.084   .     S
C599   C631    1.398   .     A
C600   H616    1.084   .     S
C600   C632    1.398   .     A
C600   C124    1.396   1_565 S
C617   N805    1.441   .     S
C617   C797    1.417   .     S
C618   N808    1.441   .     S
C618   C798    1.417   .     S
C619   N811    1.441   .     S
C619   C799    1.417   .     S
C620   N814    1.441   .     S
C620   C800    1.417   .     S
C621   N817    1.441   .     S
C621   C229    1.417   1_565 A
C622   N820    1.441   .     S
C622   C230    1.417   1_565 A
C623   N823    1.441   .     S
C623   C1083   1.417   .     A
C624   C1084   1.417   .     A
C624   N826    1.441   .     S
C625   N829    1.441   .     S
C625   C1085   1.417   .     A
C626   N832    1.441   .     S
C626   C802    1.417   .     S
C627   N835    1.441   .     S
C627   C235    1.417   1_565 S
C628   C804    1.417   .     A
C628   N838    1.441   .     S
C629   N841    1.441   .     S
C629   C801    1.417   .     S
C630   C1086   1.417   .     A
C630   N844    1.441   .     S
C631   C803    1.417   .     A
C631   N847    1.441   .     S
C632   N850    1.441   .     S
C632   C236    1.417   1_565 S
O635   Zn866   1.945   1_455 S
O636   Zn861   1.945   1_455 S
O637   C125    1.279   1_565 S
O638   C694    1.279   .     S
O639   C695    1.279   .     S
O640   C980    1.279   .     A
O641   C693    1.279   .     A
O642   C126    1.279   1_565 A
O643   C979    1.279   .     A
O644   C696    1.279   .     S
O645   C697    1.279   .     A
O646   C698    1.279   .     A
O647   C699    1.279   .     S
O648   C700    1.280   .     S
O649   C697    1.279   .     A
O650   C698    1.279   .     A
O651   C699    1.279   .     S
O652   C700    1.280   .     S
O653   C701    1.279   .     A
O654   C702    1.279   .     A
O655   C703    1.279   .     A
O656   C704    1.279   .     A
O657   C705    1.279   .     A
O658   C706    1.279   .     A
O659   C707    1.279   .     A
O660   C708    1.279   .     A
O661   C709    1.279   .     A
O662   C710    1.279   .     A
O663   C711    1.279   .     A
O664   C712    1.279   .     A
O665   C713    1.279   .     A
O666   C714    1.279   .     A
O667   C715    1.279   .     A
O668   C716    1.279   .     A
O669   Zn856   1.938   .     S
O669   C711    1.279   .     A
O670   C712    1.279   .     A
O671   C709    1.279   .     A
O671   Zn6     1.938   1_565 S
O672   C710    1.279   .     A
O673   C715    1.279   .     A
O674   C716    1.279   .     A
O674   Zn859   1.938   .     S
O675   C713    1.279   .     A
O676   C714    1.279   .     A
O676   Zn1     1.938   1_565 S
O677   C703    1.279   .     A
O677   Zn855   1.938   .     S
O678   C704    1.279   .     A
O679   C701    1.279   .     A
O680   C702    1.279   .     A
O680   Zn2     1.938   1_565 S
O681   C707    1.279   .     A
O682   C708    1.279   .     A
O682   Zn860   1.938   .     S
O683   C705    1.279   .     A
O683   Zn5     1.938   1_565 S
O684   C706    1.279   .     A
C685   C686    1.463   1_554 S
C686   C685    1.463   1_556 S
C687   C875    1.396   1_455 A
C687   C688    1.463   1_554 S
C688   C876    1.396   1_455 A
C688   C687    1.463   1_556 S
C689   C877    1.396   1_455 A
C689   C690    1.463   .     S
C690   C882    1.396   1_455 S
C691   C692    1.463   .     S
C693   C804    1.458   .     S
C694   C803    1.458   .     S
C695   C802    1.458   .     S
C695   O927    1.279   1_455 A
C696   O924    1.279   1_455 A
C696   C801    1.458   .     S
C697   C800    1.458   .     S
C698   C799    1.458   .     S
C699   C798    1.458   .     S
C700   C797    1.458   .     S
C701   C783    1.457   .     S
C702   C784    1.457   .     S
C703   C785    1.457   .     S
C704   C786    1.457   .     S
C705   C787    1.457   .     S
C706   C788    1.457   .     S
C707   C781    1.457   .     S
C708   C782    1.457   .     S
C709   C791    1.457   .     S
C710   C792    1.457   .     S
C711   C793    1.457   .     S
C712   C794    1.457   .     S
C713   C795    1.457   .     S
C714   C796    1.457   .     S
C715   C789    1.457   .     S
C716   C790    1.457   .     S
C717   H749    1.083   .     S
C717   C796    1.402   .     A
C717   C732    1.387   .     A
C718   H750    1.083   .     S
C718   C731    1.387   .     A
C718   C795    1.402   .     A
C719   H751    1.083   .     S
C719   C730    1.387   .     A
C719   C794    1.402   .     A
C720   C729    1.387   .     A
C720   H752    1.083   .     S
C720   C793    1.402   .     A
C721   C792    1.402   .     A
C721   C728    1.387   .     A
C721   H753    1.083   .     S
C722   C791    1.402   .     A
C722   H754    1.083   .     S
C722   C727    1.387   .     A
C723   C726    1.387   .     A
C723   C790    1.402   .     A
C723   H755    1.083   .     S
C724   C725    1.387   .     A
C724   H756    1.083   .     S
C724   C789    1.402   .     A
C725   H757    1.083   .     S
C725   C788    1.402   .     A
C726   H758    1.083   .     S
C726   C787    1.402   .     A
C727   H759    1.083   .     S
C727   C786    1.402   .     A
C728   C785    1.402   .     A
C728   H760    1.083   .     S
C729   H761    1.083   .     S
C729   C784    1.402   .     A
C730   C783    1.402   .     A
C730   H762    1.083   .     S
C731   C782    1.402   .     A
C731   H763    1.083   .     S
C732   H764    1.083   .     S
C732   C781    1.402   .     A
C733   H765    1.083   .     S
C733   C782    1.402   .     A
C733   C748    1.387   .     A
C734   C781    1.402   .     A
C734   H766    1.083   .     S
C734   C747    1.387   .     A
C735   C784    1.402   .     A
C735   C746    1.387   .     A
C735   H767    1.083   .     S
C736   C783    1.402   .     A
C736   C745    1.387   .     A
C736   H768    1.083   .     S
C737   C786    1.402   .     A
C737   H769    1.083   .     S
C737   C744    1.387   .     A
C738   C743    1.387   .     A
C738   C785    1.402   .     A
C738   H770    1.083   .     S
C739   C788    1.402   .     A
C739   C742    1.387   .     A
C739   H771    1.083   .     S
C740   H772    1.083   .     S
C740   C787    1.402   .     A
C740   C741    1.387   .     A
C741   C790    1.402   .     A
C741   H773    1.083   .     S
C742   C789    1.402   .     A
C742   H774    1.083   .     S
C743   H775    1.083   .     S
C743   C792    1.402   .     A
C744   C791    1.402   .     A
C744   H776    1.083   .     S
C745   H777    1.083   .     S
C745   C794    1.402   .     A
C746   H778    1.083   .     S
C746   C793    1.402   .     A
C747   H779    1.083   .     S
C747   C796    1.402   .     A
C748   H780    1.083   .     S
C748   C795    1.402   .     A
C799   C907    1.417   1_455 A
C800   C908    1.417   1_455 A
C801   C909    1.417   1_455 A
C802   C914    1.417   1_455 A
N805   O806    1.302   .     A
N805   O807    1.302   .     A
N808   O809    1.302   .     A
N808   O810    1.301   .     A
N811   O813    1.301   .     A
N811   O812    1.302   .     A
N814   O816    1.301   .     A
N814   O815    1.302   .     A
N817   O819    1.302   .     A
N817   O818    1.302   .     A
N820   O822    1.301   .     A
N820   O821    1.302   .     A
N823   O825    1.301   .     A
N823   O824    1.302   .     A
N826   O828    1.301   .     A
N826   O827    1.302   .     A
N829   O830    1.301   .     A
N829   O831    1.302   .     A
N832   O833    1.301   .     A
N832   O834    1.302   .     A
N835   O836    1.301   .     A
N835   O837    1.302   .     A
N838   O840    1.302   .     A
N838   O839    1.301   .     A
N841   O842    1.301   .     A
N841   O843    1.302   .     A
N844   O845    1.301   .     A
N844   O846    1.301   .     A
N847   O848    1.301   .     A
N847   O849    1.302   .     A
N850   O851    1.301   .     A
N850   O852    1.302   .     A
Zn853  O917    1.945   .     S
Zn853  O963    1.938   .     S
Zn853  O932    1.933   .     S
Zn854  O959    1.938   .     S
Zn854  O931    1.933   .     S
Zn854  O918    1.945   .     S
Zn855  O934    1.933   .     S
Zn855  O919    1.945   .     S
Zn855  O954    1.938   .     S
Zn856  O933    1.933   .     S
Zn856  O920    1.945   .     S
Zn856  O962    1.938   .     S
Zn857  O956    1.938   .     S
Zn857  O936    1.933   .     S
Zn857  O917    1.945   .     S
Zn858  O935    1.933   .     S
Zn858  O968    1.938   .     S
Zn858  O918    1.945   .     S
Zn859  O930    1.933   .     S
Zn859  O919    1.945   .     S
Zn859  O965    1.938   .     S
Zn860  O929    1.933   .     S
Zn860  O920    1.945   .     S
Zn860  O957    1.938   .     S
Zn861  O924    1.933   .     S
Zn861  O947    1.938   .     S
Zn861  O944    1.938   .     S
Zn861  O636    1.945   1_655 S
Zn862  O923    1.933   .     S
Zn862  O948    1.938   .     S
Zn862  O943    1.938   .     S
Zn862  O919    1.945   .     S
Zn863  O938    1.938   .     S
Zn863  O945    1.938   .     S
Zn863  O926    1.933   .     S
Zn863  O350    1.945   1_565 S
Zn864  O937    1.938   .     S
Zn864  O925    1.933   .     S
Zn864  O917    1.945   .     S
Zn864  O946    1.938   .     S
Zn865  O951    1.938   .     S
Zn865  O928    1.933   .     S
Zn865  O940    1.938   .     S
Zn865  O920    1.945   .     S
Zn866  O939    1.938   .     S
Zn866  O635    1.945   1_655 S
Zn866  O952    1.938   .     S
Zn866  O927    1.933   .     S
Zn867  O949    1.938   .     S
Zn867  O918    1.945   .     S
Zn867  O922    1.933   .     S
Zn867  O942    1.938   .     S
Zn868  O941    1.938   .     S
Zn868  O921    1.933   .     S
Zn868  O950    1.938   .     S
Zn868  O349    1.945   1_565 S
C869   H885    1.084   .     S
C869   C901    1.398   .     A
C869   C969    1.396   .     S
C870   H886    1.084   .     S
C870   C902    1.398   .     A
C870   C970    1.396   .     S
C871   H887    1.084   .     S
C871   C903    1.398   .     A
C871   C971    1.396   .     S
C872   H888    1.084   .     S
C872   C904    1.398   .     A
C872   C972    1.396   .     S
C873   C401    1.396   1_565 A
C873   C905    1.398   .     A
C873   H889    1.084   .     S
C874   H890    1.084   .     S
C874   C906    1.398   .     A
C874   C402    1.396   1_565 A
C875   C687    1.396   1_655 A
C875   H891    1.084   .     S
C875   C907    1.398   .     A
C876   H892    1.084   .     S
C876   C688    1.396   1_655 A
C876   C908    1.398   .     A
C877   C909    1.398   .     A
C877   H893    1.084   .     S
C877   C689    1.396   1_655 A
C878   C910    1.398   .     A
C878   H894    1.084   .     S
C878   C974    1.396   .     A
C879   C911    1.398   .     A
C879   H895    1.084   .     S
C879   C407    1.396   1_565 S
C880   C912    1.398   .     A
C880   H896    1.084   .     S
C880   C976    1.396   .     A
C881   C913    1.398   .     A
C881   H897    1.084   .     S
C881   C973    1.396   .     S
C882   C914    1.398   .     A
C882   H898    1.084   .     S
C882   C690    1.396   1_655 S
C883   C975    1.396   .     A
C883   H899    1.084   .     S
C883   C915    1.398   .     A
C884   H900    1.084   .     S
C884   C916    1.398   .     A
C884   C408    1.396   1_565 S
C901   N1089   1.441   .     S
C901   C1081   1.417   .     S
C902   N1092   1.441   .     S
C902   C1082   1.417   .     S
C903   N1095   1.441   .     S
C903   C1083   1.417   .     S
C904   N1098   1.441   .     S
C904   C1084   1.417   .     S
C905   N1101   1.441   .     S
C905   C513    1.417   1_565 A
C906   N1104   1.441   .     S
C906   C514    1.417   1_565 A
C907   N1107   1.441   .     S
C907   C799    1.417   1_655 A
C908   C800    1.417   1_655 A
C908   N1110   1.441   .     S
C909   N1113   1.441   .     S
C909   C801    1.417   1_655 A
C910   N1116   1.441   .     S
C910   C1086   1.417   .     S
C911   N1119   1.441   .     S
C911   C519    1.417   1_565 S
C912   C1088   1.417   .     A
C912   N1122   1.441   .     S
C913   N1125   1.441   .     S
C913   C1085   1.417   .     S
C914   C802    1.417   1_655 A
C914   N1128   1.441   .     S
C915   C1087   1.417   .     A
C915   N1131   1.441   .     S
C916   N1134   1.441   .     S
C916   C520    1.417   1_565 S
O921   C409    1.279   1_565 S
O922   C978    1.279   .     S
O923   C979    1.279   .     S
O924   C696    1.279   1_655 A
O925   C977    1.279   .     A
O926   C410    1.279   1_565 A
O927   C695    1.279   1_655 A
O928   C980    1.279   .     S
O929   C981    1.279   .     A
O930   C982    1.279   .     A
O931   C983    1.279   .     S
O932   C984    1.280   .     S
O933   C981    1.279   .     A
O934   C982    1.279   .     A
O935   C983    1.279   .     S
O936   C984    1.280   .     S
O937   C985    1.279   .     A
O938   C986    1.279   .     A
O939   C987    1.279   .     A
O940   C988    1.279   .     A
O941   C989    1.279   .     A
O942   C990    1.279   .     A
O943   C991    1.279   .     A
O944   C992    1.279   .     A
O945   C993    1.279   .     A
O946   C994    1.279   .     A
O947   C995    1.279   .     A
O948   C996    1.279   .     A
O949   C997    1.279   .     A
O950   C998    1.279   .     A
O951   C999    1.279   .     A
O952   C1000   1.279   .     A
O953   Zn572   1.938   1_655 S
O953   C995    1.279   .     A
O954   C996    1.279   .     A
O955   C993    1.279   .     A
O955   Zn290   1.938   1_565 S
O956   C994    1.279   .     A
O957   C999    1.279   .     A
O958   C1000   1.279   .     A
O958   Zn575   1.938   1_655 S
O959   C997    1.279   .     A
O960   C998    1.279   .     A
O960   Zn285   1.938   1_565 S
O961   C987    1.279   .     A
O961   Zn571   1.938   1_655 S
O962   C988    1.279   .     A
O963   C985    1.279   .     A
O964   C986    1.279   .     A
O964   Zn286   1.938   1_565 S
O965   C991    1.279   .     A
O966   C992    1.279   .     A
O966   Zn576   1.938   1_655 S
O967   C989    1.279   .     A
O967   Zn289   1.938   1_565 S
O968   C990    1.279   .     A
C969   C970    1.463   1_554 S
C970   C969    1.463   1_556 S
C971   C972    1.463   1_554 S
C972   C971    1.463   1_556 S
C973   C974    1.463   .     S
C975   C976    1.463   .     S
C977   C1088   1.458   .     S
C978   C1087   1.458   .     S
C979   C1086   1.458   .     S
C980   C1085   1.458   .     S
C981   C1084   1.458   .     S
C982   C1083   1.458   .     S
C983   C1082   1.458   .     S
C984   C1081   1.458   .     S
C985   C1067   1.457   .     S
C986   C1068   1.457   .     S
C987   C1069   1.457   .     S
C988   C1070   1.457   .     S
C989   C1071   1.457   .     S
C990   C1072   1.457   .     S
C991   C1065   1.457   .     S
C992   C1066   1.457   .     S
C993   C1075   1.457   .     S
C994   C1076   1.457   .     S
C995   C1077   1.457   .     S
C996   C1078   1.457   .     S
C997   C1079   1.457   .     S
C998   C1080   1.457   .     S
C999   C1073   1.457   .     S
C1000  C1074   1.457   .     S
C1001  H1033   1.083   .     S
C1001  C1080   1.402   .     A
C1001  C1016   1.387   .     A
C1002  H1034   1.083   .     S
C1002  C1015   1.387   .     A
C1002  C1079   1.402   .     A
C1003  H1035   1.083   .     S
C1003  C1014   1.387   .     A
C1003  C1078   1.402   .     A
C1004  C1013   1.387   .     A
C1004  H1036   1.083   .     S
C1004  C1077   1.402   .     A
C1005  C1076   1.402   .     A
C1005  C1012   1.387   .     A
C1005  H1037   1.083   .     S
C1006  C1075   1.402   .     A
C1006  H1038   1.083   .     S
C1006  C1011   1.387   .     A
C1007  C1010   1.387   .     A
C1007  C1074   1.402   .     A
C1007  H1039   1.083   .     S
C1008  C1009   1.387   .     A
C1008  H1040   1.083   .     S
C1008  C1073   1.402   .     A
C1009  H1041   1.083   .     S
C1009  C1072   1.402   .     A
C1010  H1042   1.083   .     S
C1010  C1071   1.402   .     A
C1011  H1043   1.083   .     S
C1011  C1070   1.402   .     A
C1012  C1069   1.402   .     A
C1012  H1044   1.083   .     S
C1013  H1045   1.083   .     S
C1013  C1068   1.402   .     A
C1014  C1067   1.402   .     A
C1014  H1046   1.083   .     S
C1015  C1066   1.402   .     A
C1015  H1047   1.083   .     S
C1016  H1048   1.083   .     S
C1016  C1065   1.402   .     A
C1017  H1049   1.083   .     S
C1017  C1066   1.402   .     A
C1017  C1032   1.387   .     A
C1018  C1065   1.402   .     A
C1018  H1050   1.083   .     S
C1018  C1031   1.387   .     A
C1019  C1068   1.402   .     A
C1019  C1030   1.387   .     A
C1019  H1051   1.083   .     S
C1020  C1067   1.402   .     A
C1020  C1029   1.387   .     A
C1020  H1052   1.083   .     S
C1021  C1070   1.402   .     A
C1021  H1053   1.083   .     S
C1021  C1028   1.387   .     A
C1022  C1027   1.387   .     A
C1022  C1069   1.402   .     A
C1022  H1054   1.083   .     S
C1023  C1072   1.402   .     A
C1023  C1026   1.387   .     A
C1023  H1055   1.083   .     S
C1024  H1056   1.083   .     S
C1024  C1071   1.402   .     A
C1024  C1025   1.387   .     A
C1025  C1074   1.402   .     A
C1025  H1057   1.083   .     S
C1026  C1073   1.402   .     A
C1026  H1058   1.083   .     S
C1027  H1059   1.083   .     S
C1027  C1076   1.402   .     A
C1028  C1075   1.402   .     A
C1028  H1060   1.083   .     S
C1029  H1061   1.083   .     S
C1029  C1078   1.402   .     A
C1030  H1062   1.083   .     S
C1030  C1077   1.402   .     A
C1031  H1063   1.083   .     S
C1031  C1080   1.402   .     A
C1032  H1064   1.083   .     S
C1032  C1079   1.402   .     A
N1089  O1090   1.302   .     A
N1089  O1091   1.302   .     A
N1092  O1093   1.302   .     A
N1092  O1094   1.301   .     A
N1095  O1097   1.301   .     A
N1095  O1096   1.302   .     A
N1098  O1100   1.301   .     A
N1098  O1099   1.302   .     A
N1101  O1103   1.302   .     A
N1101  O1102   1.302   .     A
N1104  O1106   1.301   .     A
N1104  O1105   1.302   .     A
N1107  O1109   1.301   .     A
N1107  O1108   1.302   .     A
N1110  O1112   1.301   .     A
N1110  O1111   1.302   .     A
N1113  O1114   1.301   .     A
N1113  O1115   1.302   .     A
N1116  O1117   1.301   .     A
N1116  O1118   1.302   .     A
N1119  O1120   1.301   .     A
N1119  O1121   1.302   .     A
N1122  O1124   1.302   .     A
N1122  O1123   1.301   .     A
N1125  O1126   1.301   .     A
N1125  O1127   1.302   .     A
N1128  O1129   1.301   .     A
N1128  O1130   1.301   .     A
N1131  O1132   1.301   .     A
N1131  O1133   1.302   .     A
N1134  O1135   1.301   .     A
N1134  O1136   1.302   .     A
