data_str_m1_o10_o16_pcu_sym.146
_audit_creation_date              2020-01-03
_audit_creation_method            'Materials Studio'
_symmetry_space_group_name_H-M    'P1'
_symmetry_Int_Tables_number       1
_symmetry_cell_setting            triclinic
loop_
_symmetry_equiv_pos_as_xyz
  x,y,z
_cell_length_a                    32.5495
_cell_length_b                    32.5119
_cell_length_c                    31.0852
_cell_angle_alpha                 96.0884
_cell_angle_beta                  74.5130
_cell_angle_gamma                 98.4152
loop_
_atom_site_label
_atom_site_type_symbol
_atom_site_fract_x
_atom_site_fract_y
_atom_site_fract_z
_atom_site_U_iso_or_equiv
_atom_site_adp_type
_atom_site_occupancy
Zn1    Zn    0.19338   0.13994   0.28734   0.00000  Uiso   1.00
Zn2    Zn    0.13379   0.12458   0.21875   0.00000  Uiso   1.00
Zn3    Zn    0.21056   0.19775   0.20657   0.00000  Uiso   1.00
Zn4    Zn    0.12893   0.20439   0.28733   0.00000  Uiso   1.00
O5     O     0.16667   0.16667   0.25000   0.00000  Uiso   1.00
O6     O     0.07071   0.18878   0.28213   0.00000  Uiso   1.00
O7     O     0.25491   0.15226   0.27013   0.00000  Uiso   1.00
O8     O     0.13760   0.06944   0.23413   0.00000  Uiso   1.00
O9     O     0.20345   0.25620   0.21360   0.00000  Uiso   1.00
O10    O     0.15451   0.12637   0.15458   0.00000  Uiso   1.00
O11    O     0.12940   0.20391   0.34968   0.00000  Uiso   1.00
O12    O     0.20824   0.17759   0.14606   0.00000  Uiso   1.00
O13    O     0.17451   0.15880   0.34968   0.00000  Uiso   1.00
O14    O     0.17930   0.08019   0.28213   0.00000  Uiso   1.00
O15    O     0.14632   0.26085   0.27013   0.00000  Uiso   1.00
O16    O     0.07412   0.13291   0.23413   0.00000  Uiso   1.00
O17    O     0.26693   0.19272   0.21360   0.00000  Uiso   1.00
C18    C     0.05278   0.15977   0.26000   0.00000  Uiso   1.00
C19    C     0.28084   0.17384   0.23995   0.00000  Uiso   1.00
C20    C     0.15631   0.05590   0.26016   0.00000  Uiso   1.00
C21    C     0.17665   0.27795   0.24010   0.00000  Uiso   1.00
C22    C     0.18554   0.14841   0.12938   0.00000  Uiso   1.00
C23    C     0.14912   0.18510   0.37084   0.00000  Uiso   1.00
C24    C     0.24869   0.13620   0.01066   0.00000  Uiso   1.00
H25    H     0.25704   0.12412   0.07432   0.00000  Uiso   1.00
H26    H     0.26995   0.16029   0.42636   0.00000  Uiso   1.00
C27    C     0.19483   0.14251   0.08101   0.00000  Uiso   1.00
C28    C     0.09769   0.19925   0.44341   0.00000  Uiso   1.00
C29    C     0.08347   0.19633   0.48931   0.00000  Uiso   1.00
C30    C     0.10940   0.18282   0.01265   0.00000  Uiso   1.00
C31    C     0.15161   0.17387   0.49068   0.00000  Uiso   1.00
C32    C     0.16702   0.17984   0.44420   0.00000  Uiso   1.00
C33    C     0.17905   0.15936   0.01322   0.00000  Uiso   1.00
C34    C     0.22143   0.15150   0.48898   0.00000  Uiso   1.00
C35    C     0.23683   0.16194   0.44456   0.00000  Uiso   1.00
C36    C     0.21047   0.17653   0.42292   0.00000  Uiso   1.00
C37    C     0.16632   0.15377   0.05944   0.00000  Uiso   1.00
C38    C     0.23543   0.13323   0.05687   0.00000  Uiso   1.00
C39    C     0.13880   0.18980   0.42015   0.00000  Uiso   1.00
H40    H     0.13567   0.16076   0.08041   0.00000  Uiso   1.00
H41    H     0.07571   0.20729   0.42581   0.00000  Uiso   1.00
H42    H     0.09524   0.17986   0.04781   0.00000  Uiso   1.00
H43    H     0.22511   0.18609   0.38944   0.00000  Uiso   1.00
C44    C     0.32676   0.17646   0.23568   0.00000  Uiso   1.00
H45    H     0.01590   0.19382   0.20931   0.00000  Uiso   1.00
C46    C     0.00746   0.15750   0.26409   0.00000  Uiso   1.00
H47    H     0.31897   0.14033   0.29096   0.00000  Uiso   1.00
C48    C     0.18056   0.32254   0.23624   0.00000  Uiso   1.00
H49    H     0.20671   0.00377   0.21061   0.00000  Uiso   1.00
C50    C     0.15221   0.01178   0.26401   0.00000  Uiso   1.00
H51    H     0.12580   0.33133   0.28986   0.00000  Uiso   1.00
N52    N     0.28994   0.12415   0.48658   0.00000  Uiso   1.00
O53    O     0.29355   0.10013   0.44984   0.00000  Uiso   1.00
O54    O     0.32189   0.13064   0.00525   0.00000  Uiso   1.00
H55    H     0.05144   0.20321   0.00678   0.00000  Uiso   1.00
Zn56   Zn    0.52672   0.13994   0.28734   0.00000  Uiso   1.00
Zn57   Zn    0.46713   0.12458   0.21875   0.00000  Uiso   1.00
Zn58   Zn    0.54389   0.19775   0.20657   0.00000  Uiso   1.00
Zn59   Zn    0.46226   0.20439   0.28733   0.00000  Uiso   1.00
O60    O     0.50000   0.16667   0.25000   0.00000  Uiso   1.00
O61    O     0.40405   0.18878   0.28213   0.00000  Uiso   1.00
O62    O     0.58824   0.15226   0.27013   0.00000  Uiso   1.00
O63    O     0.47093   0.06944   0.23413   0.00000  Uiso   1.00
O64    O     0.53678   0.25620   0.21360   0.00000  Uiso   1.00
O65    O     0.48784   0.12637   0.15458   0.00000  Uiso   1.00
O66    O     0.46274   0.20391   0.34968   0.00000  Uiso   1.00
O67    O     0.54157   0.17759   0.14606   0.00000  Uiso   1.00
O68    O     0.50785   0.15880   0.34968   0.00000  Uiso   1.00
O69    O     0.51264   0.08019   0.28213   0.00000  Uiso   1.00
O70    O     0.47965   0.26085   0.27013   0.00000  Uiso   1.00
O71    O     0.40745   0.13291   0.23413   0.00000  Uiso   1.00
O72    O     0.60026   0.19272   0.21360   0.00000  Uiso   1.00
C73    C     0.38612   0.15977   0.26000   0.00000  Uiso   1.00
C74    C     0.61418   0.17384   0.23995   0.00000  Uiso   1.00
C75    C     0.48964   0.05590   0.26016   0.00000  Uiso   1.00
C76    C     0.50998   0.27795   0.24010   0.00000  Uiso   1.00
C77    C     0.51887   0.14841   0.12938   0.00000  Uiso   1.00
C78    C     0.48245   0.18510   0.37084   0.00000  Uiso   1.00
C79    C     0.58203   0.13620   0.01066   0.00000  Uiso   1.00
H80    H     0.59037   0.12412   0.07432   0.00000  Uiso   1.00
H81    H     0.60329   0.16029   0.42636   0.00000  Uiso   1.00
C82    C     0.52816   0.14251   0.08101   0.00000  Uiso   1.00
C83    C     0.43103   0.19925   0.44341   0.00000  Uiso   1.00
C84    C     0.41681   0.19633   0.48931   0.00000  Uiso   1.00
C85    C     0.44274   0.18282   0.01265   0.00000  Uiso   1.00
C86    C     0.48494   0.17387   0.49068   0.00000  Uiso   1.00
C87    C     0.50036   0.17984   0.44420   0.00000  Uiso   1.00
C88    C     0.51239   0.15936   0.01322   0.00000  Uiso   1.00
C89    C     0.55476   0.15150   0.48898   0.00000  Uiso   1.00
C90    C     0.57017   0.16194   0.44456   0.00000  Uiso   1.00
C91    C     0.54380   0.17653   0.42292   0.00000  Uiso   1.00
C92    C     0.49965   0.15377   0.05944   0.00000  Uiso   1.00
C93    C     0.56876   0.13323   0.05687   0.00000  Uiso   1.00
C94    C     0.47213   0.18980   0.42015   0.00000  Uiso   1.00
H95    H     0.46901   0.16076   0.08041   0.00000  Uiso   1.00
H96    H     0.40904   0.20729   0.42581   0.00000  Uiso   1.00
H97    H     0.42857   0.17986   0.04781   0.00000  Uiso   1.00
H98    H     0.55845   0.18609   0.38944   0.00000  Uiso   1.00
C99    C     0.66009   0.17646   0.23568   0.00000  Uiso   1.00
H100   H     0.34923   0.19382   0.20931   0.00000  Uiso   1.00
C101   C     0.34080   0.15750   0.26409   0.00000  Uiso   1.00
H102   H     0.65230   0.14033   0.29096   0.00000  Uiso   1.00
C103   C     0.51389   0.32254   0.23624   0.00000  Uiso   1.00
H104   H     0.54005   0.00377   0.21061   0.00000  Uiso   1.00
C105   C     0.48555   0.01178   0.26401   0.00000  Uiso   1.00
H106   H     0.45914   0.33133   0.28986   0.00000  Uiso   1.00
N107   N     0.62327   0.12415   0.48658   0.00000  Uiso   1.00
O108   O     0.62688   0.10013   0.44984   0.00000  Uiso   1.00
O109   O     0.65522   0.13064   0.00525   0.00000  Uiso   1.00
H110   H     0.38477   0.20321   0.00678   0.00000  Uiso   1.00
Zn111  Zn    0.86005   0.13994   0.28734   0.00000  Uiso   1.00
Zn112  Zn    0.80046   0.12458   0.21875   0.00000  Uiso   1.00
Zn113  Zn    0.87723   0.19775   0.20657   0.00000  Uiso   1.00
Zn114  Zn    0.79560   0.20439   0.28733   0.00000  Uiso   1.00
O115   O     0.83333   0.16667   0.25000   0.00000  Uiso   1.00
O116   O     0.73738   0.18878   0.28213   0.00000  Uiso   1.00
O117   O     0.92158   0.15226   0.27013   0.00000  Uiso   1.00
O118   O     0.80426   0.06944   0.23413   0.00000  Uiso   1.00
O119   O     0.87012   0.25620   0.21360   0.00000  Uiso   1.00
O120   O     0.82118   0.12637   0.15458   0.00000  Uiso   1.00
O121   O     0.79607   0.20391   0.34968   0.00000  Uiso   1.00
O122   O     0.87491   0.17759   0.14606   0.00000  Uiso   1.00
O123   O     0.84118   0.15880   0.34968   0.00000  Uiso   1.00
O124   O     0.84597   0.08019   0.28213   0.00000  Uiso   1.00
O125   O     0.81298   0.26085   0.27013   0.00000  Uiso   1.00
O126   O     0.74078   0.13291   0.23413   0.00000  Uiso   1.00
O127   O     0.93360   0.19272   0.21360   0.00000  Uiso   1.00
C128   C     0.71945   0.15977   0.26000   0.00000  Uiso   1.00
C129   C     0.94751   0.17384   0.23995   0.00000  Uiso   1.00
C130   C     0.82298   0.05590   0.26016   0.00000  Uiso   1.00
C131   C     0.84332   0.27795   0.24010   0.00000  Uiso   1.00
C132   C     0.85220   0.14841   0.12938   0.00000  Uiso   1.00
C133   C     0.81578   0.18510   0.37084   0.00000  Uiso   1.00
C134   C     0.91536   0.13620   0.01066   0.00000  Uiso   1.00
H135   H     0.92371   0.12412   0.07432   0.00000  Uiso   1.00
H136   H     0.93662   0.16029   0.42636   0.00000  Uiso   1.00
C137   C     0.86150   0.14251   0.08101   0.00000  Uiso   1.00
C138   C     0.76436   0.19925   0.44341   0.00000  Uiso   1.00
C139   C     0.75014   0.19633   0.48931   0.00000  Uiso   1.00
C140   C     0.77607   0.18282   0.01265   0.00000  Uiso   1.00
C141   C     0.81827   0.17387   0.49068   0.00000  Uiso   1.00
C142   C     0.83369   0.17984   0.44420   0.00000  Uiso   1.00
C143   C     0.84572   0.15936   0.01322   0.00000  Uiso   1.00
C144   C     0.88810   0.15150   0.48898   0.00000  Uiso   1.00
C145   C     0.90350   0.16194   0.44456   0.00000  Uiso   1.00
C146   C     0.87713   0.17653   0.42292   0.00000  Uiso   1.00
C147   C     0.83299   0.15377   0.05944   0.00000  Uiso   1.00
C148   C     0.90210   0.13323   0.05687   0.00000  Uiso   1.00
C149   C     0.80547   0.18980   0.42015   0.00000  Uiso   1.00
H150   H     0.80234   0.16076   0.08041   0.00000  Uiso   1.00
H151   H     0.74238   0.20729   0.42581   0.00000  Uiso   1.00
H152   H     0.76191   0.17986   0.04781   0.00000  Uiso   1.00
H153   H     0.89178   0.18609   0.38944   0.00000  Uiso   1.00
C154   C     0.99342   0.17646   0.23568   0.00000  Uiso   1.00
H155   H     0.68256   0.19382   0.20931   0.00000  Uiso   1.00
C156   C     0.67413   0.15750   0.26409   0.00000  Uiso   1.00
H157   H     0.98563   0.14033   0.29096   0.00000  Uiso   1.00
C158   C     0.84722   0.32254   0.23624   0.00000  Uiso   1.00
H159   H     0.87338   0.00377   0.21061   0.00000  Uiso   1.00
C160   C     0.81888   0.01178   0.26401   0.00000  Uiso   1.00
H161   H     0.79247   0.33133   0.28986   0.00000  Uiso   1.00
N162   N     0.95660   0.12415   0.48658   0.00000  Uiso   1.00
O163   O     0.96022   0.10013   0.44984   0.00000  Uiso   1.00
O164   O     0.98855   0.13064   0.00525   0.00000  Uiso   1.00
H165   H     0.71810   0.20321   0.00678   0.00000  Uiso   1.00
Zn166  Zn    0.19338   0.47327   0.28734   0.00000  Uiso   1.00
Zn167  Zn    0.13379   0.45791   0.21875   0.00000  Uiso   1.00
Zn168  Zn    0.21056   0.53109   0.20657   0.00000  Uiso   1.00
Zn169  Zn    0.12893   0.53773   0.28733   0.00000  Uiso   1.00
O170   O     0.16667   0.50000   0.25000   0.00000  Uiso   1.00
O171   O     0.07071   0.52211   0.28213   0.00000  Uiso   1.00
O172   O     0.25491   0.48559   0.27013   0.00000  Uiso   1.00
O173   O     0.13760   0.40277   0.23413   0.00000  Uiso   1.00
O174   O     0.20345   0.58953   0.21360   0.00000  Uiso   1.00
O175   O     0.15451   0.45970   0.15458   0.00000  Uiso   1.00
O176   O     0.12940   0.53724   0.34968   0.00000  Uiso   1.00
O177   O     0.20824   0.51092   0.14606   0.00000  Uiso   1.00
O178   O     0.17451   0.49213   0.34968   0.00000  Uiso   1.00
O179   O     0.17930   0.41352   0.28213   0.00000  Uiso   1.00
O180   O     0.14632   0.59418   0.27013   0.00000  Uiso   1.00
O181   O     0.07412   0.46625   0.23413   0.00000  Uiso   1.00
O182   O     0.26693   0.52605   0.21360   0.00000  Uiso   1.00
C183   C     0.05278   0.49310   0.26000   0.00000  Uiso   1.00
C184   C     0.28084   0.50717   0.23995   0.00000  Uiso   1.00
C185   C     0.15631   0.38923   0.26016   0.00000  Uiso   1.00
C186   C     0.17665   0.61128   0.24010   0.00000  Uiso   1.00
C187   C     0.18554   0.48174   0.12938   0.00000  Uiso   1.00
C188   C     0.14912   0.51843   0.37084   0.00000  Uiso   1.00
C189   C     0.24869   0.46953   0.01066   0.00000  Uiso   1.00
H190   H     0.25704   0.45746   0.07432   0.00000  Uiso   1.00
H191   H     0.26995   0.49362   0.42636   0.00000  Uiso   1.00
C192   C     0.19483   0.47584   0.08101   0.00000  Uiso   1.00
C193   C     0.09769   0.53259   0.44341   0.00000  Uiso   1.00
C194   C     0.08347   0.52967   0.48931   0.00000  Uiso   1.00
C195   C     0.10940   0.51615   0.01265   0.00000  Uiso   1.00
C196   C     0.15161   0.50721   0.49068   0.00000  Uiso   1.00
C197   C     0.16702   0.51318   0.44420   0.00000  Uiso   1.00
C198   C     0.17905   0.49269   0.01322   0.00000  Uiso   1.00
C199   C     0.22143   0.48483   0.48898   0.00000  Uiso   1.00
C200   C     0.23683   0.49527   0.44456   0.00000  Uiso   1.00
C201   C     0.21047   0.50986   0.42292   0.00000  Uiso   1.00
C202   C     0.16632   0.48710   0.05944   0.00000  Uiso   1.00
C203   C     0.23543   0.46656   0.05687   0.00000  Uiso   1.00
C204   C     0.13880   0.52313   0.42015   0.00000  Uiso   1.00
H205   H     0.13567   0.49410   0.08041   0.00000  Uiso   1.00
H206   H     0.07571   0.54062   0.42581   0.00000  Uiso   1.00
H207   H     0.09524   0.51319   0.04781   0.00000  Uiso   1.00
H208   H     0.22511   0.51942   0.38944   0.00000  Uiso   1.00
C209   C     0.32676   0.50979   0.23568   0.00000  Uiso   1.00
H210   H     0.01590   0.52715   0.20931   0.00000  Uiso   1.00
C211   C     0.00746   0.49083   0.26409   0.00000  Uiso   1.00
H212   H     0.31897   0.47366   0.29096   0.00000  Uiso   1.00
C213   C     0.18056   0.65587   0.23624   0.00000  Uiso   1.00
H214   H     0.20671   0.33710   0.21061   0.00000  Uiso   1.00
C215   C     0.15221   0.34512   0.26401   0.00000  Uiso   1.00
H216   H     0.12580   0.66467   0.28986   0.00000  Uiso   1.00
N217   N     0.28994   0.45748   0.48658   0.00000  Uiso   1.00
O218   O     0.29355   0.43346   0.44984   0.00000  Uiso   1.00
O219   O     0.32189   0.46397   0.00525   0.00000  Uiso   1.00
H220   H     0.05144   0.53654   0.00678   0.00000  Uiso   1.00
Zn221  Zn    0.52672   0.47327   0.28734   0.00000  Uiso   1.00
Zn222  Zn    0.46713   0.45791   0.21875   0.00000  Uiso   1.00
Zn223  Zn    0.54389   0.53109   0.20657   0.00000  Uiso   1.00
Zn224  Zn    0.46226   0.53773   0.28733   0.00000  Uiso   1.00
O225   O     0.50000   0.50000   0.25000   0.00000  Uiso   1.00
O226   O     0.40405   0.52211   0.28213   0.00000  Uiso   1.00
O227   O     0.58824   0.48559   0.27013   0.00000  Uiso   1.00
O228   O     0.47093   0.40277   0.23413   0.00000  Uiso   1.00
O229   O     0.53678   0.58953   0.21360   0.00000  Uiso   1.00
O230   O     0.48784   0.45970   0.15458   0.00000  Uiso   1.00
O231   O     0.46274   0.53724   0.34968   0.00000  Uiso   1.00
O232   O     0.54157   0.51092   0.14606   0.00000  Uiso   1.00
O233   O     0.50785   0.49213   0.34968   0.00000  Uiso   1.00
O234   O     0.51264   0.41352   0.28213   0.00000  Uiso   1.00
O235   O     0.47965   0.59418   0.27013   0.00000  Uiso   1.00
O236   O     0.40745   0.46625   0.23413   0.00000  Uiso   1.00
O237   O     0.60026   0.52605   0.21360   0.00000  Uiso   1.00
C238   C     0.38612   0.49310   0.26000   0.00000  Uiso   1.00
C239   C     0.61418   0.50717   0.23995   0.00000  Uiso   1.00
C240   C     0.48964   0.38923   0.26016   0.00000  Uiso   1.00
C241   C     0.50998   0.61128   0.24010   0.00000  Uiso   1.00
C242   C     0.51887   0.48174   0.12938   0.00000  Uiso   1.00
C243   C     0.48245   0.51843   0.37084   0.00000  Uiso   1.00
C244   C     0.58203   0.46953   0.01066   0.00000  Uiso   1.00
H245   H     0.59037   0.45746   0.07432   0.00000  Uiso   1.00
H246   H     0.60329   0.49362   0.42636   0.00000  Uiso   1.00
C247   C     0.52816   0.47584   0.08101   0.00000  Uiso   1.00
C248   C     0.43103   0.53259   0.44341   0.00000  Uiso   1.00
C249   C     0.41681   0.52967   0.48931   0.00000  Uiso   1.00
C250   C     0.44274   0.51615   0.01265   0.00000  Uiso   1.00
C251   C     0.48494   0.50721   0.49068   0.00000  Uiso   1.00
C252   C     0.50036   0.51318   0.44420   0.00000  Uiso   1.00
C253   C     0.51239   0.49269   0.01322   0.00000  Uiso   1.00
C254   C     0.55476   0.48483   0.48898   0.00000  Uiso   1.00
C255   C     0.57017   0.49527   0.44456   0.00000  Uiso   1.00
C256   C     0.54380   0.50986   0.42292   0.00000  Uiso   1.00
C257   C     0.49965   0.48710   0.05944   0.00000  Uiso   1.00
C258   C     0.56876   0.46656   0.05687   0.00000  Uiso   1.00
C259   C     0.47213   0.52313   0.42015   0.00000  Uiso   1.00
H260   H     0.46901   0.49410   0.08041   0.00000  Uiso   1.00
H261   H     0.40904   0.54062   0.42581   0.00000  Uiso   1.00
H262   H     0.42857   0.51319   0.04781   0.00000  Uiso   1.00
H263   H     0.55845   0.51942   0.38944   0.00000  Uiso   1.00
C264   C     0.66009   0.50979   0.23568   0.00000  Uiso   1.00
H265   H     0.34923   0.52715   0.20931   0.00000  Uiso   1.00
C266   C     0.34080   0.49083   0.26409   0.00000  Uiso   1.00
H267   H     0.65230   0.47366   0.29096   0.00000  Uiso   1.00
C268   C     0.51389   0.65587   0.23624   0.00000  Uiso   1.00
H269   H     0.54005   0.33710   0.21061   0.00000  Uiso   1.00
C270   C     0.48555   0.34512   0.26401   0.00000  Uiso   1.00
H271   H     0.45914   0.66467   0.28986   0.00000  Uiso   1.00
N272   N     0.62327   0.45748   0.48658   0.00000  Uiso   1.00
O273   O     0.62688   0.43346   0.44984   0.00000  Uiso   1.00
O274   O     0.65522   0.46397   0.00525   0.00000  Uiso   1.00
H275   H     0.38477   0.53654   0.00678   0.00000  Uiso   1.00
Zn276  Zn    0.86005   0.47327   0.28734   0.00000  Uiso   1.00
Zn277  Zn    0.80046   0.45791   0.21875   0.00000  Uiso   1.00
Zn278  Zn    0.87723   0.53109   0.20657   0.00000  Uiso   1.00
Zn279  Zn    0.79560   0.53773   0.28733   0.00000  Uiso   1.00
O280   O     0.83333   0.50000   0.25000   0.00000  Uiso   1.00
O281   O     0.73738   0.52211   0.28213   0.00000  Uiso   1.00
O282   O     0.92158   0.48559   0.27013   0.00000  Uiso   1.00
O283   O     0.80426   0.40277   0.23413   0.00000  Uiso   1.00
O284   O     0.87012   0.58953   0.21360   0.00000  Uiso   1.00
O285   O     0.82118   0.45970   0.15458   0.00000  Uiso   1.00
O286   O     0.79607   0.53724   0.34968   0.00000  Uiso   1.00
O287   O     0.87491   0.51092   0.14606   0.00000  Uiso   1.00
O288   O     0.84118   0.49213   0.34968   0.00000  Uiso   1.00
O289   O     0.84597   0.41352   0.28213   0.00000  Uiso   1.00
O290   O     0.81298   0.59418   0.27013   0.00000  Uiso   1.00
O291   O     0.74078   0.46625   0.23413   0.00000  Uiso   1.00
O292   O     0.93360   0.52605   0.21360   0.00000  Uiso   1.00
C293   C     0.71945   0.49310   0.26000   0.00000  Uiso   1.00
C294   C     0.94751   0.50717   0.23995   0.00000  Uiso   1.00
C295   C     0.82298   0.38923   0.26016   0.00000  Uiso   1.00
C296   C     0.84332   0.61128   0.24010   0.00000  Uiso   1.00
C297   C     0.85220   0.48174   0.12938   0.00000  Uiso   1.00
C298   C     0.81578   0.51843   0.37084   0.00000  Uiso   1.00
C299   C     0.91536   0.46953   0.01066   0.00000  Uiso   1.00
H300   H     0.92371   0.45746   0.07432   0.00000  Uiso   1.00
H301   H     0.93662   0.49362   0.42636   0.00000  Uiso   1.00
C302   C     0.86150   0.47584   0.08101   0.00000  Uiso   1.00
C303   C     0.76436   0.53259   0.44341   0.00000  Uiso   1.00
C304   C     0.75014   0.52967   0.48931   0.00000  Uiso   1.00
C305   C     0.77607   0.51615   0.01265   0.00000  Uiso   1.00
C306   C     0.81827   0.50721   0.49068   0.00000  Uiso   1.00
C307   C     0.83369   0.51318   0.44420   0.00000  Uiso   1.00
C308   C     0.84572   0.49269   0.01322   0.00000  Uiso   1.00
C309   C     0.88810   0.48483   0.48898   0.00000  Uiso   1.00
C310   C     0.90350   0.49527   0.44456   0.00000  Uiso   1.00
C311   C     0.87713   0.50986   0.42292   0.00000  Uiso   1.00
C312   C     0.83299   0.48710   0.05944   0.00000  Uiso   1.00
C313   C     0.90210   0.46656   0.05687   0.00000  Uiso   1.00
C314   C     0.80547   0.52313   0.42015   0.00000  Uiso   1.00
H315   H     0.80234   0.49410   0.08041   0.00000  Uiso   1.00
H316   H     0.74238   0.54062   0.42581   0.00000  Uiso   1.00
H317   H     0.76191   0.51319   0.04781   0.00000  Uiso   1.00
H318   H     0.89178   0.51942   0.38944   0.00000  Uiso   1.00
C319   C     0.99342   0.50979   0.23568   0.00000  Uiso   1.00
H320   H     0.68256   0.52715   0.20931   0.00000  Uiso   1.00
C321   C     0.67413   0.49083   0.26409   0.00000  Uiso   1.00
H322   H     0.98563   0.47366   0.29096   0.00000  Uiso   1.00
C323   C     0.84722   0.65587   0.23624   0.00000  Uiso   1.00
H324   H     0.87338   0.33710   0.21061   0.00000  Uiso   1.00
C325   C     0.81888   0.34512   0.26401   0.00000  Uiso   1.00
H326   H     0.79247   0.66467   0.28986   0.00000  Uiso   1.00
N327   N     0.95660   0.45748   0.48658   0.00000  Uiso   1.00
O328   O     0.96022   0.43346   0.44984   0.00000  Uiso   1.00
O329   O     0.98855   0.46397   0.00525   0.00000  Uiso   1.00
H330   H     0.71810   0.53654   0.00678   0.00000  Uiso   1.00
Zn331  Zn    0.19338   0.80661   0.28734   0.00000  Uiso   1.00
Zn332  Zn    0.13379   0.79124   0.21875   0.00000  Uiso   1.00
Zn333  Zn    0.21056   0.86442   0.20657   0.00000  Uiso   1.00
Zn334  Zn    0.12893   0.87106   0.28733   0.00000  Uiso   1.00
O335   O     0.16667   0.83333   0.25000   0.00000  Uiso   1.00
O336   O     0.07071   0.85544   0.28213   0.00000  Uiso   1.00
O337   O     0.25491   0.81892   0.27013   0.00000  Uiso   1.00
O338   O     0.13760   0.73610   0.23413   0.00000  Uiso   1.00
O339   O     0.20345   0.92286   0.21360   0.00000  Uiso   1.00
O340   O     0.15451   0.79304   0.15458   0.00000  Uiso   1.00
O341   O     0.12940   0.87058   0.34968   0.00000  Uiso   1.00
O342   O     0.20824   0.84425   0.14606   0.00000  Uiso   1.00
O343   O     0.17451   0.82546   0.34968   0.00000  Uiso   1.00
O344   O     0.17930   0.74686   0.28213   0.00000  Uiso   1.00
O345   O     0.14632   0.92751   0.27013   0.00000  Uiso   1.00
O346   O     0.07412   0.79958   0.23413   0.00000  Uiso   1.00
O347   O     0.26693   0.85939   0.21360   0.00000  Uiso   1.00
C348   C     0.05278   0.82643   0.26000   0.00000  Uiso   1.00
C349   C     0.28084   0.84051   0.23995   0.00000  Uiso   1.00
C350   C     0.15631   0.72256   0.26016   0.00000  Uiso   1.00
C351   C     0.17665   0.94462   0.24010   0.00000  Uiso   1.00
C352   C     0.18554   0.81508   0.12938   0.00000  Uiso   1.00
C353   C     0.14912   0.85177   0.37084   0.00000  Uiso   1.00
C354   C     0.24869   0.80287   0.01066   0.00000  Uiso   1.00
H355   H     0.25704   0.79079   0.07432   0.00000  Uiso   1.00
H356   H     0.26995   0.82696   0.42636   0.00000  Uiso   1.00
C357   C     0.19483   0.80918   0.08101   0.00000  Uiso   1.00
C358   C     0.09769   0.86592   0.44341   0.00000  Uiso   1.00
C359   C     0.08347   0.86300   0.48931   0.00000  Uiso   1.00
C360   C     0.10940   0.84948   0.01265   0.00000  Uiso   1.00
C361   C     0.15161   0.84054   0.49068   0.00000  Uiso   1.00
C362   C     0.16702   0.84651   0.44420   0.00000  Uiso   1.00
C363   C     0.17905   0.82602   0.01322   0.00000  Uiso   1.00
C364   C     0.22143   0.81816   0.48898   0.00000  Uiso   1.00
C365   C     0.23683   0.82860   0.44456   0.00000  Uiso   1.00
C366   C     0.21047   0.84319   0.42292   0.00000  Uiso   1.00
C367   C     0.16632   0.82043   0.05944   0.00000  Uiso   1.00
C368   C     0.23543   0.79989   0.05687   0.00000  Uiso   1.00
C369   C     0.13880   0.85646   0.42015   0.00000  Uiso   1.00
H370   H     0.13567   0.82743   0.08041   0.00000  Uiso   1.00
H371   H     0.07571   0.87395   0.42581   0.00000  Uiso   1.00
H372   H     0.09524   0.84652   0.04781   0.00000  Uiso   1.00
H373   H     0.22511   0.85276   0.38944   0.00000  Uiso   1.00
C374   C     0.32676   0.84312   0.23568   0.00000  Uiso   1.00
H375   H     0.01590   0.86048   0.20931   0.00000  Uiso   1.00
C376   C     0.00746   0.82417   0.26409   0.00000  Uiso   1.00
H377   H     0.31897   0.80700   0.29096   0.00000  Uiso   1.00
C378   C     0.18056   0.98921   0.23624   0.00000  Uiso   1.00
H379   H     0.20671   0.67044   0.21061   0.00000  Uiso   1.00
C380   C     0.15221   0.67845   0.26401   0.00000  Uiso   1.00
H381   H     0.12580   0.99800   0.28986   0.00000  Uiso   1.00
N382   N     0.28994   0.79081   0.48658   0.00000  Uiso   1.00
O383   O     0.29355   0.76679   0.44984   0.00000  Uiso   1.00
O384   O     0.32189   0.79731   0.00525   0.00000  Uiso   1.00
H385   H     0.05144   0.86987   0.00678   0.00000  Uiso   1.00
Zn386  Zn    0.52672   0.80661   0.28734   0.00000  Uiso   1.00
Zn387  Zn    0.46713   0.79124   0.21875   0.00000  Uiso   1.00
Zn388  Zn    0.54389   0.86442   0.20657   0.00000  Uiso   1.00
Zn389  Zn    0.46226   0.87106   0.28733   0.00000  Uiso   1.00
O390   O     0.50000   0.83333   0.25000   0.00000  Uiso   1.00
O391   O     0.40405   0.85544   0.28213   0.00000  Uiso   1.00
O392   O     0.58824   0.81892   0.27013   0.00000  Uiso   1.00
O393   O     0.47093   0.73610   0.23413   0.00000  Uiso   1.00
O394   O     0.53678   0.92286   0.21360   0.00000  Uiso   1.00
O395   O     0.48784   0.79304   0.15458   0.00000  Uiso   1.00
O396   O     0.46274   0.87058   0.34968   0.00000  Uiso   1.00
O397   O     0.54157   0.84425   0.14606   0.00000  Uiso   1.00
O398   O     0.50785   0.82546   0.34968   0.00000  Uiso   1.00
O399   O     0.51264   0.74686   0.28213   0.00000  Uiso   1.00
O400   O     0.47965   0.92751   0.27013   0.00000  Uiso   1.00
O401   O     0.40745   0.79958   0.23413   0.00000  Uiso   1.00
O402   O     0.60026   0.85939   0.21360   0.00000  Uiso   1.00
C403   C     0.38612   0.82643   0.26000   0.00000  Uiso   1.00
C404   C     0.61418   0.84051   0.23995   0.00000  Uiso   1.00
C405   C     0.48964   0.72256   0.26016   0.00000  Uiso   1.00
C406   C     0.50998   0.94462   0.24010   0.00000  Uiso   1.00
C407   C     0.51887   0.81508   0.12938   0.00000  Uiso   1.00
C408   C     0.48245   0.85177   0.37084   0.00000  Uiso   1.00
C409   C     0.58203   0.80287   0.01066   0.00000  Uiso   1.00
H410   H     0.59037   0.79079   0.07432   0.00000  Uiso   1.00
H411   H     0.60329   0.82696   0.42636   0.00000  Uiso   1.00
C412   C     0.52816   0.80918   0.08101   0.00000  Uiso   1.00
C413   C     0.43103   0.86592   0.44341   0.00000  Uiso   1.00
C414   C     0.41681   0.86300   0.48931   0.00000  Uiso   1.00
C415   C     0.44274   0.84948   0.01265   0.00000  Uiso   1.00
C416   C     0.48494   0.84054   0.49068   0.00000  Uiso   1.00
C417   C     0.50036   0.84651   0.44420   0.00000  Uiso   1.00
C418   C     0.51239   0.82602   0.01322   0.00000  Uiso   1.00
C419   C     0.55476   0.81816   0.48898   0.00000  Uiso   1.00
C420   C     0.57017   0.82860   0.44456   0.00000  Uiso   1.00
C421   C     0.54380   0.84319   0.42292   0.00000  Uiso   1.00
C422   C     0.49965   0.82043   0.05944   0.00000  Uiso   1.00
C423   C     0.56876   0.79989   0.05687   0.00000  Uiso   1.00
C424   C     0.47213   0.85646   0.42015   0.00000  Uiso   1.00
H425   H     0.46901   0.82743   0.08041   0.00000  Uiso   1.00
H426   H     0.40904   0.87395   0.42581   0.00000  Uiso   1.00
H427   H     0.42857   0.84652   0.04781   0.00000  Uiso   1.00
H428   H     0.55845   0.85276   0.38944   0.00000  Uiso   1.00
C429   C     0.66009   0.84312   0.23568   0.00000  Uiso   1.00
H430   H     0.34923   0.86048   0.20931   0.00000  Uiso   1.00
C431   C     0.34080   0.82417   0.26409   0.00000  Uiso   1.00
H432   H     0.65230   0.80700   0.29096   0.00000  Uiso   1.00
C433   C     0.51389   0.98921   0.23624   0.00000  Uiso   1.00
H434   H     0.54005   0.67044   0.21061   0.00000  Uiso   1.00
C435   C     0.48555   0.67845   0.26401   0.00000  Uiso   1.00
H436   H     0.45914   0.99800   0.28986   0.00000  Uiso   1.00
N437   N     0.62327   0.79081   0.48658   0.00000  Uiso   1.00
O438   O     0.62688   0.76679   0.44984   0.00000  Uiso   1.00
O439   O     0.65522   0.79731   0.00525   0.00000  Uiso   1.00
H440   H     0.38477   0.86987   0.00678   0.00000  Uiso   1.00
Zn441  Zn    0.86005   0.80661   0.28734   0.00000  Uiso   1.00
Zn442  Zn    0.80046   0.79124   0.21875   0.00000  Uiso   1.00
Zn443  Zn    0.87723   0.86442   0.20657   0.00000  Uiso   1.00
Zn444  Zn    0.79560   0.87106   0.28733   0.00000  Uiso   1.00
O445   O     0.83333   0.83333   0.25000   0.00000  Uiso   1.00
O446   O     0.73738   0.85544   0.28213   0.00000  Uiso   1.00
O447   O     0.92158   0.81892   0.27013   0.00000  Uiso   1.00
O448   O     0.80426   0.73610   0.23413   0.00000  Uiso   1.00
O449   O     0.87012   0.92286   0.21360   0.00000  Uiso   1.00
O450   O     0.82118   0.79304   0.15458   0.00000  Uiso   1.00
O451   O     0.79607   0.87058   0.34968   0.00000  Uiso   1.00
O452   O     0.87491   0.84425   0.14606   0.00000  Uiso   1.00
O453   O     0.84118   0.82546   0.34968   0.00000  Uiso   1.00
O454   O     0.84597   0.74686   0.28213   0.00000  Uiso   1.00
O455   O     0.81298   0.92751   0.27013   0.00000  Uiso   1.00
O456   O     0.74078   0.79958   0.23413   0.00000  Uiso   1.00
O457   O     0.93360   0.85939   0.21360   0.00000  Uiso   1.00
C458   C     0.71945   0.82643   0.26000   0.00000  Uiso   1.00
C459   C     0.94751   0.84051   0.23995   0.00000  Uiso   1.00
C460   C     0.82298   0.72256   0.26016   0.00000  Uiso   1.00
C461   C     0.84332   0.94462   0.24010   0.00000  Uiso   1.00
C462   C     0.85220   0.81508   0.12938   0.00000  Uiso   1.00
C463   C     0.81578   0.85177   0.37084   0.00000  Uiso   1.00
C464   C     0.91536   0.80287   0.01066   0.00000  Uiso   1.00
H465   H     0.92371   0.79079   0.07432   0.00000  Uiso   1.00
H466   H     0.93662   0.82696   0.42636   0.00000  Uiso   1.00
C467   C     0.86150   0.80918   0.08101   0.00000  Uiso   1.00
C468   C     0.76436   0.86592   0.44341   0.00000  Uiso   1.00
C469   C     0.75014   0.86300   0.48931   0.00000  Uiso   1.00
C470   C     0.77607   0.84948   0.01265   0.00000  Uiso   1.00
C471   C     0.81827   0.84054   0.49068   0.00000  Uiso   1.00
C472   C     0.83369   0.84651   0.44420   0.00000  Uiso   1.00
C473   C     0.84572   0.82602   0.01322   0.00000  Uiso   1.00
C474   C     0.88810   0.81816   0.48898   0.00000  Uiso   1.00
C475   C     0.90350   0.82860   0.44456   0.00000  Uiso   1.00
C476   C     0.87713   0.84319   0.42292   0.00000  Uiso   1.00
C477   C     0.83299   0.82043   0.05944   0.00000  Uiso   1.00
C478   C     0.90210   0.79989   0.05687   0.00000  Uiso   1.00
C479   C     0.80547   0.85646   0.42015   0.00000  Uiso   1.00
H480   H     0.80234   0.82743   0.08041   0.00000  Uiso   1.00
H481   H     0.74238   0.87395   0.42581   0.00000  Uiso   1.00
H482   H     0.76191   0.84652   0.04781   0.00000  Uiso   1.00
H483   H     0.89178   0.85276   0.38944   0.00000  Uiso   1.00
C484   C     0.99342   0.84312   0.23568   0.00000  Uiso   1.00
H485   H     0.68256   0.86048   0.20931   0.00000  Uiso   1.00
C486   C     0.67413   0.82417   0.26409   0.00000  Uiso   1.00
H487   H     0.98563   0.80700   0.29096   0.00000  Uiso   1.00
C488   C     0.84722   0.98921   0.23624   0.00000  Uiso   1.00
H489   H     0.87338   0.67044   0.21061   0.00000  Uiso   1.00
C490   C     0.81888   0.67845   0.26401   0.00000  Uiso   1.00
H491   H     0.79247   0.99800   0.28986   0.00000  Uiso   1.00
N492   N     0.95660   0.79081   0.48658   0.00000  Uiso   1.00
O493   O     0.96022   0.76679   0.44984   0.00000  Uiso   1.00
O494   O     0.98855   0.79731   0.00525   0.00000  Uiso   1.00
H495   H     0.71810   0.86987   0.00678   0.00000  Uiso   1.00
Zn496  Zn    0.19338   0.13994   0.78734   0.00000  Uiso   1.00
Zn497  Zn    0.13379   0.12458   0.71875   0.00000  Uiso   1.00
Zn498  Zn    0.21056   0.19775   0.70657   0.00000  Uiso   1.00
Zn499  Zn    0.12893   0.20439   0.78733   0.00000  Uiso   1.00
O500   O     0.16667   0.16667   0.75000   0.00000  Uiso   1.00
O501   O     0.07071   0.18878   0.78213   0.00000  Uiso   1.00
O502   O     0.25491   0.15226   0.77013   0.00000  Uiso   1.00
O503   O     0.13760   0.06944   0.73413   0.00000  Uiso   1.00
O504   O     0.20345   0.25620   0.71360   0.00000  Uiso   1.00
O505   O     0.15451   0.12637   0.65458   0.00000  Uiso   1.00
O506   O     0.12940   0.20391   0.84968   0.00000  Uiso   1.00
O507   O     0.20824   0.17759   0.64606   0.00000  Uiso   1.00
O508   O     0.17451   0.15880   0.84968   0.00000  Uiso   1.00
O509   O     0.17930   0.08019   0.78213   0.00000  Uiso   1.00
O510   O     0.14632   0.26085   0.77013   0.00000  Uiso   1.00
O511   O     0.07412   0.13291   0.73413   0.00000  Uiso   1.00
O512   O     0.26693   0.19272   0.71360   0.00000  Uiso   1.00
C513   C     0.05278   0.15977   0.76000   0.00000  Uiso   1.00
C514   C     0.28084   0.17384   0.73995   0.00000  Uiso   1.00
C515   C     0.15631   0.05590   0.76016   0.00000  Uiso   1.00
C516   C     0.17665   0.27795   0.74010   0.00000  Uiso   1.00
C517   C     0.18554   0.14841   0.62938   0.00000  Uiso   1.00
C518   C     0.14912   0.18510   0.87084   0.00000  Uiso   1.00
C519   C     0.24869   0.13620   0.51066   0.00000  Uiso   1.00
H520   H     0.25704   0.12412   0.57432   0.00000  Uiso   1.00
H521   H     0.26995   0.16029   0.92636   0.00000  Uiso   1.00
C522   C     0.19483   0.14251   0.58101   0.00000  Uiso   1.00
C523   C     0.09769   0.19925   0.94341   0.00000  Uiso   1.00
C524   C     0.08347   0.19633   0.98931   0.00000  Uiso   1.00
C525   C     0.10940   0.18282   0.51265   0.00000  Uiso   1.00
C526   C     0.15161   0.17387   0.99068   0.00000  Uiso   1.00
C527   C     0.16702   0.17984   0.94420   0.00000  Uiso   1.00
C528   C     0.17905   0.15936   0.51322   0.00000  Uiso   1.00
C529   C     0.22143   0.15150   0.98898   0.00000  Uiso   1.00
C530   C     0.23683   0.16194   0.94456   0.00000  Uiso   1.00
C531   C     0.21047   0.17653   0.92292   0.00000  Uiso   1.00
C532   C     0.16632   0.15377   0.55944   0.00000  Uiso   1.00
C533   C     0.23543   0.13323   0.55687   0.00000  Uiso   1.00
C534   C     0.13880   0.18980   0.92015   0.00000  Uiso   1.00
H535   H     0.13567   0.16076   0.58041   0.00000  Uiso   1.00
H536   H     0.07571   0.20729   0.92581   0.00000  Uiso   1.00
H537   H     0.09524   0.17986   0.54781   0.00000  Uiso   1.00
H538   H     0.22511   0.18609   0.88944   0.00000  Uiso   1.00
C539   C     0.32676   0.17646   0.73568   0.00000  Uiso   1.00
H540   H     0.01590   0.19382   0.70931   0.00000  Uiso   1.00
C541   C     0.00746   0.15750   0.76409   0.00000  Uiso   1.00
H542   H     0.31897   0.14033   0.79096   0.00000  Uiso   1.00
C543   C     0.18056   0.32254   0.73624   0.00000  Uiso   1.00
H544   H     0.20671   0.00377   0.71061   0.00000  Uiso   1.00
C545   C     0.15221   0.01178   0.76401   0.00000  Uiso   1.00
H546   H     0.12580   0.33133   0.78986   0.00000  Uiso   1.00
N547   N     0.28994   0.12415   0.98658   0.00000  Uiso   1.00
O548   O     0.29355   0.10013   0.94984   0.00000  Uiso   1.00
O549   O     0.32189   0.13064   0.50525   0.00000  Uiso   1.00
H550   H     0.05144   0.20321   0.50678   0.00000  Uiso   1.00
Zn551  Zn    0.52672   0.13994   0.78734   0.00000  Uiso   1.00
Zn552  Zn    0.46713   0.12458   0.71875   0.00000  Uiso   1.00
Zn553  Zn    0.54389   0.19775   0.70657   0.00000  Uiso   1.00
Zn554  Zn    0.46226   0.20439   0.78733   0.00000  Uiso   1.00
O555   O     0.50000   0.16667   0.75000   0.00000  Uiso   1.00
O556   O     0.40405   0.18878   0.78213   0.00000  Uiso   1.00
O557   O     0.58824   0.15226   0.77013   0.00000  Uiso   1.00
O558   O     0.47093   0.06944   0.73413   0.00000  Uiso   1.00
O559   O     0.53678   0.25620   0.71360   0.00000  Uiso   1.00
O560   O     0.48784   0.12637   0.65458   0.00000  Uiso   1.00
O561   O     0.46274   0.20391   0.84968   0.00000  Uiso   1.00
O562   O     0.54157   0.17759   0.64606   0.00000  Uiso   1.00
O563   O     0.50785   0.15880   0.84968   0.00000  Uiso   1.00
O564   O     0.51264   0.08019   0.78213   0.00000  Uiso   1.00
O565   O     0.47965   0.26085   0.77013   0.00000  Uiso   1.00
O566   O     0.40745   0.13291   0.73413   0.00000  Uiso   1.00
O567   O     0.60026   0.19272   0.71360   0.00000  Uiso   1.00
C568   C     0.38612   0.15977   0.76000   0.00000  Uiso   1.00
C569   C     0.61418   0.17384   0.73995   0.00000  Uiso   1.00
C570   C     0.48964   0.05590   0.76016   0.00000  Uiso   1.00
C571   C     0.50998   0.27795   0.74010   0.00000  Uiso   1.00
C572   C     0.51887   0.14841   0.62938   0.00000  Uiso   1.00
C573   C     0.48245   0.18510   0.87084   0.00000  Uiso   1.00
C574   C     0.58203   0.13620   0.51066   0.00000  Uiso   1.00
H575   H     0.59037   0.12412   0.57432   0.00000  Uiso   1.00
H576   H     0.60329   0.16029   0.92636   0.00000  Uiso   1.00
C577   C     0.52816   0.14251   0.58101   0.00000  Uiso   1.00
C578   C     0.43103   0.19925   0.94341   0.00000  Uiso   1.00
C579   C     0.41681   0.19633   0.98931   0.00000  Uiso   1.00
C580   C     0.44274   0.18282   0.51265   0.00000  Uiso   1.00
C581   C     0.48494   0.17387   0.99068   0.00000  Uiso   1.00
C582   C     0.50036   0.17984   0.94420   0.00000  Uiso   1.00
C583   C     0.51239   0.15936   0.51322   0.00000  Uiso   1.00
C584   C     0.55476   0.15150   0.98898   0.00000  Uiso   1.00
C585   C     0.57017   0.16194   0.94456   0.00000  Uiso   1.00
C586   C     0.54380   0.17653   0.92292   0.00000  Uiso   1.00
C587   C     0.49965   0.15377   0.55944   0.00000  Uiso   1.00
C588   C     0.56876   0.13323   0.55687   0.00000  Uiso   1.00
C589   C     0.47213   0.18980   0.92015   0.00000  Uiso   1.00
H590   H     0.46901   0.16076   0.58041   0.00000  Uiso   1.00
H591   H     0.40904   0.20729   0.92581   0.00000  Uiso   1.00
H592   H     0.42857   0.17986   0.54781   0.00000  Uiso   1.00
H593   H     0.55845   0.18609   0.88944   0.00000  Uiso   1.00
C594   C     0.66009   0.17646   0.73568   0.00000  Uiso   1.00
H595   H     0.34923   0.19382   0.70931   0.00000  Uiso   1.00
C596   C     0.34080   0.15750   0.76409   0.00000  Uiso   1.00
H597   H     0.65230   0.14033   0.79096   0.00000  Uiso   1.00
C598   C     0.51389   0.32254   0.73624   0.00000  Uiso   1.00
H599   H     0.54005   0.00377   0.71061   0.00000  Uiso   1.00
C600   C     0.48555   0.01178   0.76401   0.00000  Uiso   1.00
H601   H     0.45914   0.33133   0.78986   0.00000  Uiso   1.00
N602   N     0.62327   0.12415   0.98658   0.00000  Uiso   1.00
O603   O     0.62688   0.10013   0.94984   0.00000  Uiso   1.00
O604   O     0.65522   0.13064   0.50525   0.00000  Uiso   1.00
H605   H     0.38477   0.20321   0.50678   0.00000  Uiso   1.00
Zn606  Zn    0.86005   0.13994   0.78734   0.00000  Uiso   1.00
Zn607  Zn    0.80046   0.12458   0.71875   0.00000  Uiso   1.00
Zn608  Zn    0.87723   0.19775   0.70657   0.00000  Uiso   1.00
Zn609  Zn    0.79560   0.20439   0.78733   0.00000  Uiso   1.00
O610   O     0.83333   0.16667   0.75000   0.00000  Uiso   1.00
O611   O     0.73738   0.18878   0.78213   0.00000  Uiso   1.00
O612   O     0.92158   0.15226   0.77013   0.00000  Uiso   1.00
O613   O     0.80426   0.06944   0.73413   0.00000  Uiso   1.00
O614   O     0.87012   0.25620   0.71360   0.00000  Uiso   1.00
O615   O     0.82118   0.12637   0.65458   0.00000  Uiso   1.00
O616   O     0.79607   0.20391   0.84968   0.00000  Uiso   1.00
O617   O     0.87491   0.17759   0.64606   0.00000  Uiso   1.00
O618   O     0.84118   0.15880   0.84968   0.00000  Uiso   1.00
O619   O     0.84597   0.08019   0.78213   0.00000  Uiso   1.00
O620   O     0.81298   0.26085   0.77013   0.00000  Uiso   1.00
O621   O     0.74078   0.13291   0.73413   0.00000  Uiso   1.00
O622   O     0.93360   0.19272   0.71360   0.00000  Uiso   1.00
C623   C     0.71945   0.15977   0.76000   0.00000  Uiso   1.00
C624   C     0.94751   0.17384   0.73995   0.00000  Uiso   1.00
C625   C     0.82298   0.05590   0.76016   0.00000  Uiso   1.00
C626   C     0.84332   0.27795   0.74010   0.00000  Uiso   1.00
C627   C     0.85220   0.14841   0.62938   0.00000  Uiso   1.00
C628   C     0.81578   0.18510   0.87084   0.00000  Uiso   1.00
C629   C     0.91536   0.13620   0.51066   0.00000  Uiso   1.00
H630   H     0.92371   0.12412   0.57432   0.00000  Uiso   1.00
H631   H     0.93662   0.16029   0.92636   0.00000  Uiso   1.00
C632   C     0.86150   0.14251   0.58101   0.00000  Uiso   1.00
C633   C     0.76436   0.19925   0.94341   0.00000  Uiso   1.00
C634   C     0.75014   0.19633   0.98931   0.00000  Uiso   1.00
C635   C     0.77607   0.18282   0.51265   0.00000  Uiso   1.00
C636   C     0.81827   0.17387   0.99068   0.00000  Uiso   1.00
C637   C     0.83369   0.17984   0.94420   0.00000  Uiso   1.00
C638   C     0.84572   0.15936   0.51322   0.00000  Uiso   1.00
C639   C     0.88810   0.15150   0.98898   0.00000  Uiso   1.00
C640   C     0.90350   0.16194   0.94456   0.00000  Uiso   1.00
C641   C     0.87713   0.17653   0.92292   0.00000  Uiso   1.00
C642   C     0.83299   0.15377   0.55944   0.00000  Uiso   1.00
C643   C     0.90210   0.13323   0.55687   0.00000  Uiso   1.00
C644   C     0.80547   0.18980   0.92015   0.00000  Uiso   1.00
H645   H     0.80234   0.16076   0.58041   0.00000  Uiso   1.00
H646   H     0.74238   0.20729   0.92581   0.00000  Uiso   1.00
H647   H     0.76191   0.17986   0.54781   0.00000  Uiso   1.00
H648   H     0.89178   0.18609   0.88944   0.00000  Uiso   1.00
C649   C     0.99342   0.17646   0.73568   0.00000  Uiso   1.00
H650   H     0.68256   0.19382   0.70931   0.00000  Uiso   1.00
C651   C     0.67413   0.15750   0.76409   0.00000  Uiso   1.00
H652   H     0.98563   0.14033   0.79096   0.00000  Uiso   1.00
C653   C     0.84722   0.32254   0.73624   0.00000  Uiso   1.00
H654   H     0.87338   0.00377   0.71061   0.00000  Uiso   1.00
C655   C     0.81888   0.01178   0.76401   0.00000  Uiso   1.00
H656   H     0.79247   0.33133   0.78986   0.00000  Uiso   1.00
N657   N     0.95660   0.12415   0.98658   0.00000  Uiso   1.00
O658   O     0.96022   0.10013   0.94984   0.00000  Uiso   1.00
O659   O     0.98855   0.13064   0.50525   0.00000  Uiso   1.00
H660   H     0.71810   0.20321   0.50678   0.00000  Uiso   1.00
Zn661  Zn    0.19338   0.47327   0.78734   0.00000  Uiso   1.00
Zn662  Zn    0.13379   0.45791   0.71875   0.00000  Uiso   1.00
Zn663  Zn    0.21056   0.53109   0.70657   0.00000  Uiso   1.00
Zn664  Zn    0.12893   0.53773   0.78733   0.00000  Uiso   1.00
O665   O     0.16667   0.50000   0.75000   0.00000  Uiso   1.00
O666   O     0.07071   0.52211   0.78213   0.00000  Uiso   1.00
O667   O     0.25491   0.48559   0.77013   0.00000  Uiso   1.00
O668   O     0.13760   0.40277   0.73413   0.00000  Uiso   1.00
O669   O     0.20345   0.58953   0.71360   0.00000  Uiso   1.00
O670   O     0.15451   0.45970   0.65458   0.00000  Uiso   1.00
O671   O     0.12940   0.53724   0.84968   0.00000  Uiso   1.00
O672   O     0.20824   0.51092   0.64606   0.00000  Uiso   1.00
O673   O     0.17451   0.49213   0.84968   0.00000  Uiso   1.00
O674   O     0.17930   0.41352   0.78213   0.00000  Uiso   1.00
O675   O     0.14632   0.59418   0.77013   0.00000  Uiso   1.00
O676   O     0.07412   0.46625   0.73413   0.00000  Uiso   1.00
O677   O     0.26693   0.52605   0.71360   0.00000  Uiso   1.00
C678   C     0.05278   0.49310   0.76000   0.00000  Uiso   1.00
C679   C     0.28084   0.50717   0.73995   0.00000  Uiso   1.00
C680   C     0.15631   0.38923   0.76016   0.00000  Uiso   1.00
C681   C     0.17665   0.61128   0.74010   0.00000  Uiso   1.00
C682   C     0.18554   0.48174   0.62938   0.00000  Uiso   1.00
C683   C     0.14912   0.51843   0.87084   0.00000  Uiso   1.00
C684   C     0.24869   0.46953   0.51066   0.00000  Uiso   1.00
H685   H     0.25704   0.45746   0.57432   0.00000  Uiso   1.00
H686   H     0.26995   0.49362   0.92636   0.00000  Uiso   1.00
C687   C     0.19483   0.47584   0.58101   0.00000  Uiso   1.00
C688   C     0.09769   0.53259   0.94341   0.00000  Uiso   1.00
C689   C     0.08347   0.52967   0.98931   0.00000  Uiso   1.00
C690   C     0.10940   0.51615   0.51265   0.00000  Uiso   1.00
C691   C     0.15161   0.50721   0.99068   0.00000  Uiso   1.00
C692   C     0.16702   0.51318   0.94420   0.00000  Uiso   1.00
C693   C     0.17905   0.49269   0.51322   0.00000  Uiso   1.00
C694   C     0.22143   0.48483   0.98898   0.00000  Uiso   1.00
C695   C     0.23683   0.49527   0.94456   0.00000  Uiso   1.00
C696   C     0.21047   0.50986   0.92292   0.00000  Uiso   1.00
C697   C     0.16632   0.48710   0.55944   0.00000  Uiso   1.00
C698   C     0.23543   0.46656   0.55687   0.00000  Uiso   1.00
C699   C     0.13880   0.52313   0.92015   0.00000  Uiso   1.00
H700   H     0.13567   0.49410   0.58041   0.00000  Uiso   1.00
H701   H     0.07571   0.54062   0.92581   0.00000  Uiso   1.00
H702   H     0.09524   0.51319   0.54781   0.00000  Uiso   1.00
H703   H     0.22511   0.51942   0.88944   0.00000  Uiso   1.00
C704   C     0.32676   0.50979   0.73568   0.00000  Uiso   1.00
H705   H     0.01590   0.52715   0.70931   0.00000  Uiso   1.00
C706   C     0.00746   0.49083   0.76409   0.00000  Uiso   1.00
H707   H     0.31897   0.47366   0.79096   0.00000  Uiso   1.00
C708   C     0.18056   0.65587   0.73624   0.00000  Uiso   1.00
H709   H     0.20671   0.33710   0.71061   0.00000  Uiso   1.00
C710   C     0.15221   0.34512   0.76401   0.00000  Uiso   1.00
H711   H     0.12580   0.66467   0.78986   0.00000  Uiso   1.00
N712   N     0.28994   0.45748   0.98658   0.00000  Uiso   1.00
O713   O     0.29355   0.43346   0.94984   0.00000  Uiso   1.00
O714   O     0.32189   0.46397   0.50525   0.00000  Uiso   1.00
H715   H     0.05144   0.53654   0.50678   0.00000  Uiso   1.00
Zn716  Zn    0.52672   0.47327   0.78734   0.00000  Uiso   1.00
Zn717  Zn    0.46713   0.45791   0.71875   0.00000  Uiso   1.00
Zn718  Zn    0.54389   0.53109   0.70657   0.00000  Uiso   1.00
Zn719  Zn    0.46226   0.53773   0.78733   0.00000  Uiso   1.00
O720   O     0.50000   0.50000   0.75000   0.00000  Uiso   1.00
O721   O     0.40405   0.52211   0.78213   0.00000  Uiso   1.00
O722   O     0.58824   0.48559   0.77013   0.00000  Uiso   1.00
O723   O     0.47093   0.40277   0.73413   0.00000  Uiso   1.00
O724   O     0.53678   0.58953   0.71360   0.00000  Uiso   1.00
O725   O     0.48784   0.45970   0.65458   0.00000  Uiso   1.00
O726   O     0.46274   0.53724   0.84968   0.00000  Uiso   1.00
O727   O     0.54157   0.51092   0.64606   0.00000  Uiso   1.00
O728   O     0.50785   0.49213   0.84968   0.00000  Uiso   1.00
O729   O     0.51264   0.41352   0.78213   0.00000  Uiso   1.00
O730   O     0.47965   0.59418   0.77013   0.00000  Uiso   1.00
O731   O     0.40745   0.46625   0.73413   0.00000  Uiso   1.00
O732   O     0.60026   0.52605   0.71360   0.00000  Uiso   1.00
C733   C     0.38612   0.49310   0.76000   0.00000  Uiso   1.00
C734   C     0.61418   0.50717   0.73995   0.00000  Uiso   1.00
C735   C     0.48964   0.38923   0.76016   0.00000  Uiso   1.00
C736   C     0.50998   0.61128   0.74010   0.00000  Uiso   1.00
C737   C     0.51887   0.48174   0.62938   0.00000  Uiso   1.00
C738   C     0.48245   0.51843   0.87084   0.00000  Uiso   1.00
C739   C     0.58203   0.46953   0.51066   0.00000  Uiso   1.00
H740   H     0.59037   0.45746   0.57432   0.00000  Uiso   1.00
H741   H     0.60329   0.49362   0.92636   0.00000  Uiso   1.00
C742   C     0.52816   0.47584   0.58101   0.00000  Uiso   1.00
C743   C     0.43103   0.53259   0.94341   0.00000  Uiso   1.00
C744   C     0.41681   0.52967   0.98931   0.00000  Uiso   1.00
C745   C     0.44274   0.51615   0.51265   0.00000  Uiso   1.00
C746   C     0.48494   0.50721   0.99068   0.00000  Uiso   1.00
C747   C     0.50036   0.51318   0.94420   0.00000  Uiso   1.00
C748   C     0.51239   0.49269   0.51322   0.00000  Uiso   1.00
C749   C     0.55476   0.48483   0.98898   0.00000  Uiso   1.00
C750   C     0.57017   0.49527   0.94456   0.00000  Uiso   1.00
C751   C     0.54380   0.50986   0.92292   0.00000  Uiso   1.00
C752   C     0.49965   0.48710   0.55944   0.00000  Uiso   1.00
C753   C     0.56876   0.46656   0.55687   0.00000  Uiso   1.00
C754   C     0.47213   0.52313   0.92015   0.00000  Uiso   1.00
H755   H     0.46901   0.49410   0.58041   0.00000  Uiso   1.00
H756   H     0.40904   0.54062   0.92581   0.00000  Uiso   1.00
H757   H     0.42857   0.51319   0.54781   0.00000  Uiso   1.00
H758   H     0.55845   0.51942   0.88944   0.00000  Uiso   1.00
C759   C     0.66009   0.50979   0.73568   0.00000  Uiso   1.00
H760   H     0.34923   0.52715   0.70931   0.00000  Uiso   1.00
C761   C     0.34080   0.49083   0.76409   0.00000  Uiso   1.00
H762   H     0.65230   0.47366   0.79096   0.00000  Uiso   1.00
C763   C     0.51389   0.65587   0.73624   0.00000  Uiso   1.00
H764   H     0.54005   0.33710   0.71061   0.00000  Uiso   1.00
C765   C     0.48555   0.34512   0.76401   0.00000  Uiso   1.00
H766   H     0.45914   0.66467   0.78986   0.00000  Uiso   1.00
N767   N     0.62327   0.45748   0.98658   0.00000  Uiso   1.00
O768   O     0.62688   0.43346   0.94984   0.00000  Uiso   1.00
O769   O     0.65522   0.46397   0.50525   0.00000  Uiso   1.00
H770   H     0.38477   0.53654   0.50678   0.00000  Uiso   1.00
Zn771  Zn    0.86005   0.47327   0.78734   0.00000  Uiso   1.00
Zn772  Zn    0.80046   0.45791   0.71875   0.00000  Uiso   1.00
Zn773  Zn    0.87723   0.53109   0.70657   0.00000  Uiso   1.00
Zn774  Zn    0.79560   0.53773   0.78733   0.00000  Uiso   1.00
O775   O     0.83333   0.50000   0.75000   0.00000  Uiso   1.00
O776   O     0.73738   0.52211   0.78213   0.00000  Uiso   1.00
O777   O     0.92158   0.48559   0.77013   0.00000  Uiso   1.00
O778   O     0.80426   0.40277   0.73413   0.00000  Uiso   1.00
O779   O     0.87012   0.58953   0.71360   0.00000  Uiso   1.00
O780   O     0.82118   0.45970   0.65458   0.00000  Uiso   1.00
O781   O     0.79607   0.53724   0.84968   0.00000  Uiso   1.00
O782   O     0.87491   0.51092   0.64606   0.00000  Uiso   1.00
O783   O     0.84118   0.49213   0.84968   0.00000  Uiso   1.00
O784   O     0.84597   0.41352   0.78213   0.00000  Uiso   1.00
O785   O     0.81298   0.59418   0.77013   0.00000  Uiso   1.00
O786   O     0.74078   0.46625   0.73413   0.00000  Uiso   1.00
O787   O     0.93360   0.52605   0.71360   0.00000  Uiso   1.00
C788   C     0.71945   0.49310   0.76000   0.00000  Uiso   1.00
C789   C     0.94751   0.50717   0.73995   0.00000  Uiso   1.00
C790   C     0.82298   0.38923   0.76016   0.00000  Uiso   1.00
C791   C     0.84332   0.61128   0.74010   0.00000  Uiso   1.00
C792   C     0.85220   0.48174   0.62938   0.00000  Uiso   1.00
C793   C     0.81578   0.51843   0.87084   0.00000  Uiso   1.00
C794   C     0.91536   0.46953   0.51066   0.00000  Uiso   1.00
H795   H     0.92371   0.45746   0.57432   0.00000  Uiso   1.00
H796   H     0.93662   0.49362   0.92636   0.00000  Uiso   1.00
C797   C     0.86150   0.47584   0.58101   0.00000  Uiso   1.00
C798   C     0.76436   0.53259   0.94341   0.00000  Uiso   1.00
C799   C     0.75014   0.52967   0.98931   0.00000  Uiso   1.00
C800   C     0.77607   0.51615   0.51265   0.00000  Uiso   1.00
C801   C     0.81827   0.50721   0.99068   0.00000  Uiso   1.00
C802   C     0.83369   0.51318   0.94420   0.00000  Uiso   1.00
C803   C     0.84572   0.49269   0.51322   0.00000  Uiso   1.00
C804   C     0.88810   0.48483   0.98898   0.00000  Uiso   1.00
C805   C     0.90350   0.49527   0.94456   0.00000  Uiso   1.00
C806   C     0.87713   0.50986   0.92292   0.00000  Uiso   1.00
C807   C     0.83299   0.48710   0.55944   0.00000  Uiso   1.00
C808   C     0.90210   0.46656   0.55687   0.00000  Uiso   1.00
C809   C     0.80547   0.52313   0.92015   0.00000  Uiso   1.00
H810   H     0.80234   0.49410   0.58041   0.00000  Uiso   1.00
H811   H     0.74238   0.54062   0.92581   0.00000  Uiso   1.00
H812   H     0.76191   0.51319   0.54781   0.00000  Uiso   1.00
H813   H     0.89178   0.51942   0.88944   0.00000  Uiso   1.00
C814   C     0.99342   0.50979   0.73568   0.00000  Uiso   1.00
H815   H     0.68256   0.52715   0.70931   0.00000  Uiso   1.00
C816   C     0.67413   0.49083   0.76409   0.00000  Uiso   1.00
H817   H     0.98563   0.47366   0.79096   0.00000  Uiso   1.00
C818   C     0.84722   0.65587   0.73624   0.00000  Uiso   1.00
H819   H     0.87338   0.33710   0.71061   0.00000  Uiso   1.00
C820   C     0.81888   0.34512   0.76401   0.00000  Uiso   1.00
H821   H     0.79247   0.66467   0.78986   0.00000  Uiso   1.00
N822   N     0.95660   0.45748   0.98658   0.00000  Uiso   1.00
O823   O     0.96022   0.43346   0.94984   0.00000  Uiso   1.00
O824   O     0.98855   0.46397   0.50525   0.00000  Uiso   1.00
H825   H     0.71810   0.53654   0.50678   0.00000  Uiso   1.00
Zn826  Zn    0.19338   0.80661   0.78734   0.00000  Uiso   1.00
Zn827  Zn    0.13379   0.79124   0.71875   0.00000  Uiso   1.00
Zn828  Zn    0.21056   0.86442   0.70657   0.00000  Uiso   1.00
Zn829  Zn    0.12893   0.87106   0.78733   0.00000  Uiso   1.00
O830   O     0.16667   0.83333   0.75000   0.00000  Uiso   1.00
O831   O     0.07071   0.85544   0.78213   0.00000  Uiso   1.00
O832   O     0.25491   0.81892   0.77013   0.00000  Uiso   1.00
O833   O     0.13760   0.73610   0.73413   0.00000  Uiso   1.00
O834   O     0.20345   0.92286   0.71360   0.00000  Uiso   1.00
O835   O     0.15451   0.79304   0.65458   0.00000  Uiso   1.00
O836   O     0.12940   0.87058   0.84968   0.00000  Uiso   1.00
O837   O     0.20824   0.84425   0.64606   0.00000  Uiso   1.00
O838   O     0.17451   0.82546   0.84968   0.00000  Uiso   1.00
O839   O     0.17930   0.74686   0.78213   0.00000  Uiso   1.00
O840   O     0.14632   0.92751   0.77013   0.00000  Uiso   1.00
O841   O     0.07412   0.79958   0.73413   0.00000  Uiso   1.00
O842   O     0.26693   0.85939   0.71360   0.00000  Uiso   1.00
C843   C     0.05278   0.82643   0.76000   0.00000  Uiso   1.00
C844   C     0.28084   0.84051   0.73995   0.00000  Uiso   1.00
C845   C     0.15631   0.72256   0.76016   0.00000  Uiso   1.00
C846   C     0.17665   0.94462   0.74010   0.00000  Uiso   1.00
C847   C     0.18554   0.81508   0.62938   0.00000  Uiso   1.00
C848   C     0.14912   0.85177   0.87084   0.00000  Uiso   1.00
C849   C     0.24869   0.80287   0.51066   0.00000  Uiso   1.00
H850   H     0.25704   0.79079   0.57432   0.00000  Uiso   1.00
H851   H     0.26995   0.82696   0.92636   0.00000  Uiso   1.00
C852   C     0.19483   0.80918   0.58101   0.00000  Uiso   1.00
C853   C     0.09769   0.86592   0.94341   0.00000  Uiso   1.00
C854   C     0.08347   0.86300   0.98931   0.00000  Uiso   1.00
C855   C     0.10940   0.84948   0.51265   0.00000  Uiso   1.00
C856   C     0.15161   0.84054   0.99068   0.00000  Uiso   1.00
C857   C     0.16702   0.84651   0.94420   0.00000  Uiso   1.00
C858   C     0.17905   0.82602   0.51322   0.00000  Uiso   1.00
C859   C     0.22143   0.81816   0.98898   0.00000  Uiso   1.00
C860   C     0.23683   0.82860   0.94456   0.00000  Uiso   1.00
C861   C     0.21047   0.84319   0.92292   0.00000  Uiso   1.00
C862   C     0.16632   0.82043   0.55944   0.00000  Uiso   1.00
C863   C     0.23543   0.79989   0.55687   0.00000  Uiso   1.00
C864   C     0.13880   0.85646   0.92015   0.00000  Uiso   1.00
H865   H     0.13567   0.82743   0.58041   0.00000  Uiso   1.00
H866   H     0.07571   0.87395   0.92581   0.00000  Uiso   1.00
H867   H     0.09524   0.84652   0.54781   0.00000  Uiso   1.00
H868   H     0.22511   0.85276   0.88944   0.00000  Uiso   1.00
C869   C     0.32676   0.84312   0.73568   0.00000  Uiso   1.00
H870   H     0.01590   0.86048   0.70931   0.00000  Uiso   1.00
C871   C     0.00746   0.82417   0.76409   0.00000  Uiso   1.00
H872   H     0.31897   0.80700   0.79096   0.00000  Uiso   1.00
C873   C     0.18056   0.98921   0.73624   0.00000  Uiso   1.00
H874   H     0.20671   0.67044   0.71061   0.00000  Uiso   1.00
C875   C     0.15221   0.67845   0.76401   0.00000  Uiso   1.00
H876   H     0.12580   0.99800   0.78986   0.00000  Uiso   1.00
N877   N     0.28994   0.79081   0.98658   0.00000  Uiso   1.00
O878   O     0.29355   0.76679   0.94984   0.00000  Uiso   1.00
O879   O     0.32189   0.79731   0.50525   0.00000  Uiso   1.00
H880   H     0.05144   0.86987   0.50678   0.00000  Uiso   1.00
Zn881  Zn    0.52672   0.80661   0.78734   0.00000  Uiso   1.00
Zn882  Zn    0.46713   0.79124   0.71875   0.00000  Uiso   1.00
Zn883  Zn    0.54389   0.86442   0.70657   0.00000  Uiso   1.00
Zn884  Zn    0.46226   0.87106   0.78733   0.00000  Uiso   1.00
O885   O     0.50000   0.83333   0.75000   0.00000  Uiso   1.00
O886   O     0.40405   0.85544   0.78213   0.00000  Uiso   1.00
O887   O     0.58824   0.81892   0.77013   0.00000  Uiso   1.00
O888   O     0.47093   0.73610   0.73413   0.00000  Uiso   1.00
O889   O     0.53678   0.92286   0.71360   0.00000  Uiso   1.00
O890   O     0.48784   0.79304   0.65458   0.00000  Uiso   1.00
O891   O     0.46274   0.87058   0.84968   0.00000  Uiso   1.00
O892   O     0.54157   0.84425   0.64606   0.00000  Uiso   1.00
O893   O     0.50785   0.82546   0.84968   0.00000  Uiso   1.00
O894   O     0.51264   0.74686   0.78213   0.00000  Uiso   1.00
O895   O     0.47965   0.92751   0.77013   0.00000  Uiso   1.00
O896   O     0.40745   0.79958   0.73413   0.00000  Uiso   1.00
O897   O     0.60026   0.85939   0.71360   0.00000  Uiso   1.00
C898   C     0.38612   0.82643   0.76000   0.00000  Uiso   1.00
C899   C     0.61418   0.84051   0.73995   0.00000  Uiso   1.00
C900   C     0.48964   0.72256   0.76016   0.00000  Uiso   1.00
C901   C     0.50998   0.94462   0.74010   0.00000  Uiso   1.00
C902   C     0.51887   0.81508   0.62938   0.00000  Uiso   1.00
C903   C     0.48245   0.85177   0.87084   0.00000  Uiso   1.00
C904   C     0.58203   0.80287   0.51066   0.00000  Uiso   1.00
H905   H     0.59037   0.79079   0.57432   0.00000  Uiso   1.00
H906   H     0.60329   0.82696   0.92636   0.00000  Uiso   1.00
C907   C     0.52816   0.80918   0.58101   0.00000  Uiso   1.00
C908   C     0.43103   0.86592   0.94341   0.00000  Uiso   1.00
C909   C     0.41681   0.86300   0.98931   0.00000  Uiso   1.00
C910   C     0.44274   0.84948   0.51265   0.00000  Uiso   1.00
C911   C     0.48494   0.84054   0.99068   0.00000  Uiso   1.00
C912   C     0.50036   0.84651   0.94420   0.00000  Uiso   1.00
C913   C     0.51239   0.82602   0.51322   0.00000  Uiso   1.00
C914   C     0.55476   0.81816   0.98898   0.00000  Uiso   1.00
C915   C     0.57017   0.82860   0.94456   0.00000  Uiso   1.00
C916   C     0.54380   0.84319   0.92292   0.00000  Uiso   1.00
C917   C     0.49965   0.82043   0.55944   0.00000  Uiso   1.00
C918   C     0.56876   0.79989   0.55687   0.00000  Uiso   1.00
C919   C     0.47213   0.85646   0.92015   0.00000  Uiso   1.00
H920   H     0.46901   0.82743   0.58041   0.00000  Uiso   1.00
H921   H     0.40904   0.87395   0.92581   0.00000  Uiso   1.00
H922   H     0.42857   0.84652   0.54781   0.00000  Uiso   1.00
H923   H     0.55845   0.85276   0.88944   0.00000  Uiso   1.00
C924   C     0.66009   0.84312   0.73568   0.00000  Uiso   1.00
H925   H     0.34923   0.86048   0.70931   0.00000  Uiso   1.00
C926   C     0.34080   0.82417   0.76409   0.00000  Uiso   1.00
H927   H     0.65230   0.80700   0.79096   0.00000  Uiso   1.00
C928   C     0.51389   0.98921   0.73624   0.00000  Uiso   1.00
H929   H     0.54005   0.67044   0.71061   0.00000  Uiso   1.00
C930   C     0.48555   0.67845   0.76401   0.00000  Uiso   1.00
H931   H     0.45914   0.99800   0.78986   0.00000  Uiso   1.00
N932   N     0.62327   0.79081   0.98658   0.00000  Uiso   1.00
O933   O     0.62688   0.76679   0.94984   0.00000  Uiso   1.00
O934   O     0.65522   0.79731   0.50525   0.00000  Uiso   1.00
H935   H     0.38477   0.86987   0.50678   0.00000  Uiso   1.00
Zn936  Zn    0.86005   0.80661   0.78734   0.00000  Uiso   1.00
Zn937  Zn    0.80046   0.79124   0.71875   0.00000  Uiso   1.00
Zn938  Zn    0.87723   0.86442   0.70657   0.00000  Uiso   1.00
Zn939  Zn    0.79560   0.87106   0.78733   0.00000  Uiso   1.00
O940   O     0.83333   0.83333   0.75000   0.00000  Uiso   1.00
O941   O     0.73738   0.85544   0.78213   0.00000  Uiso   1.00
O942   O     0.92158   0.81892   0.77013   0.00000  Uiso   1.00
O943   O     0.80426   0.73610   0.73413   0.00000  Uiso   1.00
O944   O     0.87012   0.92286   0.71360   0.00000  Uiso   1.00
O945   O     0.82118   0.79304   0.65458   0.00000  Uiso   1.00
O946   O     0.79607   0.87058   0.84968   0.00000  Uiso   1.00
O947   O     0.87491   0.84425   0.64606   0.00000  Uiso   1.00
O948   O     0.84118   0.82546   0.84968   0.00000  Uiso   1.00
O949   O     0.84597   0.74686   0.78213   0.00000  Uiso   1.00
O950   O     0.81298   0.92751   0.77013   0.00000  Uiso   1.00
O951   O     0.74078   0.79958   0.73413   0.00000  Uiso   1.00
O952   O     0.93360   0.85939   0.71360   0.00000  Uiso   1.00
C953   C     0.71945   0.82643   0.76000   0.00000  Uiso   1.00
C954   C     0.94751   0.84051   0.73995   0.00000  Uiso   1.00
C955   C     0.82298   0.72256   0.76016   0.00000  Uiso   1.00
C956   C     0.84332   0.94462   0.74010   0.00000  Uiso   1.00
C957   C     0.85220   0.81508   0.62938   0.00000  Uiso   1.00
C958   C     0.81578   0.85177   0.87084   0.00000  Uiso   1.00
C959   C     0.91536   0.80287   0.51066   0.00000  Uiso   1.00
H960   H     0.92371   0.79079   0.57432   0.00000  Uiso   1.00
H961   H     0.93662   0.82696   0.92636   0.00000  Uiso   1.00
C962   C     0.86150   0.80918   0.58101   0.00000  Uiso   1.00
C963   C     0.76436   0.86592   0.94341   0.00000  Uiso   1.00
C964   C     0.75014   0.86300   0.98931   0.00000  Uiso   1.00
C965   C     0.77607   0.84948   0.51265   0.00000  Uiso   1.00
C966   C     0.81827   0.84054   0.99068   0.00000  Uiso   1.00
C967   C     0.83369   0.84651   0.94420   0.00000  Uiso   1.00
C968   C     0.84572   0.82602   0.51322   0.00000  Uiso   1.00
C969   C     0.88810   0.81816   0.98898   0.00000  Uiso   1.00
C970   C     0.90350   0.82860   0.94456   0.00000  Uiso   1.00
C971   C     0.87713   0.84319   0.92292   0.00000  Uiso   1.00
C972   C     0.83299   0.82043   0.55944   0.00000  Uiso   1.00
C973   C     0.90210   0.79989   0.55687   0.00000  Uiso   1.00
C974   C     0.80547   0.85646   0.92015   0.00000  Uiso   1.00
H975   H     0.80234   0.82743   0.58041   0.00000  Uiso   1.00
H976   H     0.74238   0.87395   0.92581   0.00000  Uiso   1.00
H977   H     0.76191   0.84652   0.54781   0.00000  Uiso   1.00
H978   H     0.89178   0.85276   0.88944   0.00000  Uiso   1.00
C979   C     0.99342   0.84312   0.73568   0.00000  Uiso   1.00
H980   H     0.68256   0.86048   0.70931   0.00000  Uiso   1.00
C981   C     0.67413   0.82417   0.76409   0.00000  Uiso   1.00
H982   H     0.98563   0.80700   0.79096   0.00000  Uiso   1.00
C983   C     0.84722   0.98921   0.73624   0.00000  Uiso   1.00
H984   H     0.87338   0.67044   0.71061   0.00000  Uiso   1.00
C985   C     0.81888   0.67845   0.76401   0.00000  Uiso   1.00
H986   H     0.79247   0.99800   0.78986   0.00000  Uiso   1.00
N987   N     0.95660   0.79081   0.98658   0.00000  Uiso   1.00
O988   O     0.96022   0.76679   0.94984   0.00000  Uiso   1.00
O989   O     0.98855   0.79731   0.50525   0.00000  Uiso   1.00
H990   H     0.71810   0.86987   0.50678   0.00000  Uiso   1.00
loop_
_geom_bond_atom_site_label_1
_geom_bond_atom_site_label_2
_geom_bond_distance
_geom_bond_site_symmetry_2
_ccdc_geom_bond_type
Zn1    O5      1.958   .     S
Zn1    O13     1.932   .     S
Zn1    O14     1.929   .     S
Zn1    O7      1.922   .     S
Zn2    O16     1.925   .     S
Zn2    O5      1.951   .     S
Zn2    O10     1.932   .     S
Zn2    O8      1.933   .     S
Zn3    O9      1.930   .     S
Zn3    O12     1.943   .     S
Zn3    O17     1.937   .     S
Zn3    O5      1.929   .     S
Zn4    O15     1.928   .     S
Zn4    O11     1.944   .     S
Zn4    O6      1.934   .     S
Zn4    O5      1.933   .     S
O6     C18     1.273   .     A
O7     C19     1.276   .     A
O8     C20     1.279   .     A
O9     C21     1.270   .     A
O10    C22     1.277   .     A
O11    C23     1.282   .     A
O12    C22     1.269   .     A
O13    C23     1.282   .     A
O14    C20     1.279   .     A
O15    C21     1.270   .     A
O16    C18     1.273   .     A
O17    C19     1.280   .     A
C18    C46     1.438   .     S
C19    C44     1.455   .     S
C20    C50     1.436   .     S
C21    C48     1.452   .     S
C22    C27     1.450   .     S
C23    C39     1.475   .     S
C24    C38     1.394   .     A
C24    C529    1.417   1_554 S
C24    N547    1.439   1_554 S
H25    C38     1.084   .     S
H26    C35     1.082   .     S
C27    C37     1.389   .     A
C27    C38     1.393   .     A
C28    H41     1.083   .     S
C28    C29     1.387   .     A
C28    C39     1.401   .     A
C29    C525    1.391   .     S
C29    H550    1.083   .     S
C30    H42     1.076   .     S
C30    C524    1.391   1_554 S
C30    C526    1.418   1_554 S
C31    C32     1.422   .     A
C31    C525    1.418   .     S
C31    C528    1.428   .     S
C32    C36     1.407   .     A
C32    C39     1.419   .     A
C33    C37     1.409   .     A
C33    C526    1.428   1_554 S
C33    C529    1.429   1_554 S
C34    C35     1.398   .     A
C34    C519    1.417   .     S
C34    C528    1.429   .     S
C35    C36     1.382   .     A
C36    H43     1.081   .     S
C37    H40     1.077   .     S
C44    H100    1.088   .     S
C44    C101    1.335   .     S
H45    C154    1.088   1_455 S
C46    C154    1.335   1_455 S
C46    H157    1.086   1_455 S
H47    C101    1.086   .     S
C48    H214    1.088   .     S
C48    C215    1.332   .     S
H49    C378    1.088   1_545 S
C50    C378    1.332   1_545 S
C50    H381    1.086   1_545 S
H51    C215    1.086   .     S
N52    O53     1.302   .     A
N52    C519    1.439   .     S
N52    O549    1.302   .     S
O54    N547    1.302   1_554 S
H55    C524    1.083   1_554 S
Zn56   O60     1.958   .     S
Zn56   O68     1.932   .     S
Zn56   O69     1.929   .     S
Zn56   O62     1.922   .     S
Zn57   O71     1.925   .     S
Zn57   O60     1.951   .     S
Zn57   O65     1.932   .     S
Zn57   O63     1.933   .     S
Zn58   O64     1.930   .     S
Zn58   O67     1.943   .     S
Zn58   O72     1.937   .     S
Zn58   O60     1.929   .     S
Zn59   O70     1.928   .     S
Zn59   O66     1.944   .     S
Zn59   O61     1.934   .     S
Zn59   O60     1.933   .     S
O61    C73     1.273   .     A
O62    C74     1.276   .     A
O63    C75     1.279   .     A
O64    C76     1.270   .     A
O65    C77     1.277   .     A
O66    C78     1.282   .     A
O67    C77     1.269   .     A
O68    C78     1.282   .     A
O69    C75     1.279   .     A
O70    C76     1.270   .     A
O71    C73     1.273   .     A
O72    C74     1.280   .     A
C73    C101    1.438   .     S
C74    C99     1.455   .     S
C75    C105    1.436   .     S
C76    C103    1.452   .     S
C77    C82     1.450   .     S
C78    C94     1.475   .     S
C79    C93     1.394   .     A
C79    C584    1.417   1_554 S
C79    N602    1.439   1_554 S
H80    C93     1.084   .     S
H81    C90     1.082   .     S
C82    C92     1.389   .     A
C82    C93     1.393   .     A
C83    H96     1.083   .     S
C83    C84     1.387   .     A
C83    C94     1.401   .     A
C84    C580    1.391   .     S
C84    H605    1.083   .     S
C85    H97     1.076   .     S
C85    C579    1.391   1_554 S
C85    C581    1.418   1_554 S
C86    C87     1.422   .     A
C86    C580    1.418   .     S
C86    C583    1.428   .     S
C87    C91     1.407   .     A
C87    C94     1.419   .     A
C88    C92     1.409   .     A
C88    C581    1.428   1_554 S
C88    C584    1.429   1_554 S
C89    C90     1.398   .     A
C89    C574    1.417   .     S
C89    C583    1.429   .     S
C90    C91     1.382   .     A
C91    H98     1.081   .     S
C92    H95     1.077   .     S
C99    H155    1.088   .     S
C99    C156    1.335   .     S
H102   C156    1.086   .     S
C103   H269    1.088   .     S
C103   C270    1.332   .     S
H104   C433    1.088   1_545 S
C105   C433    1.332   1_545 S
C105   H436    1.086   1_545 S
H106   C270    1.086   .     S
N107   O108    1.302   .     A
N107   C574    1.439   .     S
N107   O604    1.302   .     S
O109   N602    1.302   1_554 S
H110   C579    1.083   1_554 S
Zn111  O115    1.958   .     S
Zn111  O123    1.932   .     S
Zn111  O124    1.929   .     S
Zn111  O117    1.922   .     S
Zn112  O126    1.925   .     S
Zn112  O115    1.951   .     S
Zn112  O120    1.932   .     S
Zn112  O118    1.933   .     S
Zn113  O119    1.930   .     S
Zn113  O122    1.943   .     S
Zn113  O127    1.937   .     S
Zn113  O115    1.929   .     S
Zn114  O125    1.928   .     S
Zn114  O121    1.944   .     S
Zn114  O116    1.934   .     S
Zn114  O115    1.933   .     S
O116   C128    1.273   .     A
O117   C129    1.276   .     A
O118   C130    1.279   .     A
O119   C131    1.270   .     A
O120   C132    1.277   .     A
O121   C133    1.282   .     A
O122   C132    1.269   .     A
O123   C133    1.282   .     A
O124   C130    1.279   .     A
O125   C131    1.270   .     A
O126   C128    1.273   .     A
O127   C129    1.280   .     A
C128   C156    1.438   .     S
C129   C154    1.455   .     S
C130   C160    1.436   .     S
C131   C158    1.452   .     S
C132   C137    1.450   .     S
C133   C149    1.475   .     S
C134   C148    1.394   .     A
C134   C639    1.417   1_554 S
C134   N657    1.439   1_554 S
H135   C148    1.084   .     S
H136   C145    1.082   .     S
C137   C147    1.389   .     A
C137   C148    1.393   .     A
C138   H151    1.083   .     S
C138   C139    1.387   .     A
C138   C149    1.401   .     A
C139   C635    1.391   .     S
C139   H660    1.083   .     S
C140   H152    1.076   .     S
C140   C634    1.391   1_554 S
C140   C636    1.418   1_554 S
C141   C142    1.422   .     A
C141   C635    1.418   .     S
C141   C638    1.428   .     S
C142   C146    1.407   .     A
C142   C149    1.419   .     A
C143   C147    1.409   .     A
C143   C636    1.428   1_554 S
C143   C639    1.429   1_554 S
C144   C145    1.398   .     A
C144   C629    1.417   .     S
C144   C638    1.429   .     S
C145   C146    1.382   .     A
C146   H153    1.081   .     S
C147   H150    1.077   .     S
C154   H45     1.088   1_655 S
C154   C46     1.335   1_655 S
H157   C46     1.086   1_655 S
C158   H324    1.088   .     S
C158   C325    1.332   .     S
H159   C488    1.088   1_545 S
C160   C488    1.332   1_545 S
C160   H491    1.086   1_545 S
H161   C325    1.086   .     S
N162   O163    1.302   .     A
N162   C629    1.439   .     S
N162   O659    1.302   .     S
O164   N657    1.302   1_554 S
H165   C634    1.083   1_554 S
Zn166  O170    1.958   .     S
Zn166  O178    1.932   .     S
Zn166  O179    1.929   .     S
Zn166  O172    1.922   .     S
Zn167  O181    1.925   .     S
Zn167  O170    1.951   .     S
Zn167  O175    1.932   .     S
Zn167  O173    1.933   .     S
Zn168  O174    1.930   .     S
Zn168  O177    1.943   .     S
Zn168  O182    1.937   .     S
Zn168  O170    1.929   .     S
Zn169  O180    1.928   .     S
Zn169  O176    1.944   .     S
Zn169  O171    1.934   .     S
Zn169  O170    1.933   .     S
O171   C183    1.273   .     A
O172   C184    1.276   .     A
O173   C185    1.279   .     A
O174   C186    1.270   .     A
O175   C187    1.277   .     A
O176   C188    1.282   .     A
O177   C187    1.269   .     A
O178   C188    1.282   .     A
O179   C185    1.279   .     A
O180   C186    1.270   .     A
O181   C183    1.273   .     A
O182   C184    1.280   .     A
C183   C211    1.438   .     S
C184   C209    1.455   .     S
C185   C215    1.436   .     S
C186   C213    1.452   .     S
C187   C192    1.450   .     S
C188   C204    1.475   .     S
C189   C203    1.394   .     A
C189   C694    1.417   1_554 S
C189   N712    1.439   1_554 S
H190   C203    1.084   .     S
H191   C200    1.082   .     S
C192   C202    1.389   .     A
C192   C203    1.393   .     A
C193   H206    1.083   .     S
C193   C194    1.387   .     A
C193   C204    1.401   .     A
C194   C690    1.391   .     S
C194   H715    1.083   .     S
C195   H207    1.076   .     S
C195   C689    1.391   1_554 S
C195   C691    1.418   1_554 S
C196   C197    1.422   .     A
C196   C690    1.418   .     S
C196   C693    1.428   .     S
C197   C201    1.407   .     A
C197   C204    1.419   .     A
C198   C202    1.409   .     A
C198   C691    1.428   1_554 S
C198   C694    1.429   1_554 S
C199   C200    1.398   .     A
C199   C684    1.417   .     S
C199   C693    1.429   .     S
C200   C201    1.382   .     A
C201   H208    1.081   .     S
C202   H205    1.077   .     S
C209   H265    1.088   .     S
C209   C266    1.335   .     S
H210   C319    1.088   1_455 S
C211   C319    1.335   1_455 S
C211   H322    1.086   1_455 S
H212   C266    1.086   .     S
C213   H379    1.088   .     S
C213   C380    1.332   .     S
H216   C380    1.086   .     S
N217   O218    1.302   .     A
N217   C684    1.439   .     S
N217   O714    1.302   .     S
O219   N712    1.302   1_554 S
H220   C689    1.083   1_554 S
Zn221  O225    1.958   .     S
Zn221  O233    1.932   .     S
Zn221  O234    1.929   .     S
Zn221  O227    1.922   .     S
Zn222  O236    1.925   .     S
Zn222  O225    1.951   .     S
Zn222  O230    1.932   .     S
Zn222  O228    1.933   .     S
Zn223  O229    1.930   .     S
Zn223  O232    1.943   .     S
Zn223  O237    1.937   .     S
Zn223  O225    1.929   .     S
Zn224  O235    1.928   .     S
Zn224  O231    1.944   .     S
Zn224  O226    1.934   .     S
Zn224  O225    1.933   .     S
O226   C238    1.273   .     A
O227   C239    1.276   .     A
O228   C240    1.279   .     A
O229   C241    1.270   .     A
O230   C242    1.277   .     A
O231   C243    1.282   .     A
O232   C242    1.269   .     A
O233   C243    1.282   .     A
O234   C240    1.279   .     A
O235   C241    1.270   .     A
O236   C238    1.273   .     A
O237   C239    1.280   .     A
C238   C266    1.438   .     S
C239   C264    1.455   .     S
C240   C270    1.436   .     S
C241   C268    1.452   .     S
C242   C247    1.450   .     S
C243   C259    1.475   .     S
C244   C258    1.394   .     A
C244   C749    1.417   1_554 S
C244   N767    1.439   1_554 S
H245   C258    1.084   .     S
H246   C255    1.082   .     S
C247   C257    1.389   .     A
C247   C258    1.393   .     A
C248   H261    1.083   .     S
C248   C249    1.387   .     A
C248   C259    1.401   .     A
C249   C745    1.391   .     S
C249   H770    1.083   .     S
C250   H262    1.076   .     S
C250   C744    1.391   1_554 S
C250   C746    1.418   1_554 S
C251   C252    1.422   .     A
C251   C745    1.418   .     S
C251   C748    1.428   .     S
C252   C256    1.407   .     A
C252   C259    1.419   .     A
C253   C257    1.409   .     A
C253   C746    1.428   1_554 S
C253   C749    1.429   1_554 S
C254   C255    1.398   .     A
C254   C739    1.417   .     S
C254   C748    1.429   .     S
C255   C256    1.382   .     A
C256   H263    1.081   .     S
C257   H260    1.077   .     S
C264   H320    1.088   .     S
C264   C321    1.335   .     S
H267   C321    1.086   .     S
C268   H434    1.088   .     S
C268   C435    1.332   .     S
H271   C435    1.086   .     S
N272   O273    1.302   .     A
N272   C739    1.439   .     S
N272   O769    1.302   .     S
O274   N767    1.302   1_554 S
H275   C744    1.083   1_554 S
Zn276  O280    1.958   .     S
Zn276  O288    1.932   .     S
Zn276  O289    1.929   .     S
Zn276  O282    1.922   .     S
Zn277  O291    1.925   .     S
Zn277  O280    1.951   .     S
Zn277  O285    1.932   .     S
Zn277  O283    1.933   .     S
Zn278  O284    1.930   .     S
Zn278  O287    1.943   .     S
Zn278  O292    1.937   .     S
Zn278  O280    1.929   .     S
Zn279  O290    1.928   .     S
Zn279  O286    1.944   .     S
Zn279  O281    1.934   .     S
Zn279  O280    1.933   .     S
O281   C293    1.273   .     A
O282   C294    1.276   .     A
O283   C295    1.279   .     A
O284   C296    1.270   .     A
O285   C297    1.277   .     A
O286   C298    1.282   .     A
O287   C297    1.269   .     A
O288   C298    1.282   .     A
O289   C295    1.279   .     A
O290   C296    1.270   .     A
O291   C293    1.273   .     A
O292   C294    1.280   .     A
C293   C321    1.438   .     S
C294   C319    1.455   .     S
C295   C325    1.436   .     S
C296   C323    1.452   .     S
C297   C302    1.450   .     S
C298   C314    1.475   .     S
C299   C313    1.394   .     A
C299   C804    1.417   1_554 S
C299   N822    1.439   1_554 S
H300   C313    1.084   .     S
H301   C310    1.082   .     S
C302   C312    1.389   .     A
C302   C313    1.393   .     A
C303   H316    1.083   .     S
C303   C304    1.387   .     A
C303   C314    1.401   .     A
C304   C800    1.391   .     S
C304   H825    1.083   .     S
C305   H317    1.076   .     S
C305   C799    1.391   1_554 S
C305   C801    1.418   1_554 S
C306   C307    1.422   .     A
C306   C800    1.418   .     S
C306   C803    1.428   .     S
C307   C311    1.407   .     A
C307   C314    1.419   .     A
C308   C312    1.409   .     A
C308   C801    1.428   1_554 S
C308   C804    1.429   1_554 S
C309   C310    1.398   .     A
C309   C794    1.417   .     S
C309   C803    1.429   .     S
C310   C311    1.382   .     A
C311   H318    1.081   .     S
C312   H315    1.077   .     S
C319   H210    1.088   1_655 S
C319   C211    1.335   1_655 S
H322   C211    1.086   1_655 S
C323   H489    1.088   .     S
C323   C490    1.332   .     S
H326   C490    1.086   .     S
N327   O328    1.302   .     A
N327   C794    1.439   .     S
N327   O824    1.302   .     S
O329   N822    1.302   1_554 S
H330   C799    1.083   1_554 S
Zn331  O335    1.958   .     S
Zn331  O343    1.932   .     S
Zn331  O344    1.929   .     S
Zn331  O337    1.922   .     S
Zn332  O346    1.925   .     S
Zn332  O335    1.951   .     S
Zn332  O340    1.932   .     S
Zn332  O338    1.933   .     S
Zn333  O339    1.930   .     S
Zn333  O342    1.943   .     S
Zn333  O347    1.937   .     S
Zn333  O335    1.929   .     S
Zn334  O345    1.928   .     S
Zn334  O341    1.944   .     S
Zn334  O336    1.934   .     S
Zn334  O335    1.933   .     S
O336   C348    1.273   .     A
O337   C349    1.276   .     A
O338   C350    1.279   .     A
O339   C351    1.270   .     A
O340   C352    1.277   .     A
O341   C353    1.282   .     A
O342   C352    1.269   .     A
O343   C353    1.282   .     A
O344   C350    1.279   .     A
O345   C351    1.270   .     A
O346   C348    1.273   .     A
O347   C349    1.280   .     A
C348   C376    1.438   .     S
C349   C374    1.455   .     S
C350   C380    1.436   .     S
C351   C378    1.452   .     S
C352   C357    1.450   .     S
C353   C369    1.475   .     S
C354   C368    1.394   .     A
C354   C859    1.417   1_554 S
C354   N877    1.439   1_554 S
H355   C368    1.084   .     S
H356   C365    1.082   .     S
C357   C367    1.389   .     A
C357   C368    1.393   .     A
C358   H371    1.083   .     S
C358   C359    1.387   .     A
C358   C369    1.401   .     A
C359   C855    1.391   .     S
C359   H880    1.083   .     S
C360   H372    1.076   .     S
C360   C854    1.391   1_554 S
C360   C856    1.418   1_554 S
C361   C362    1.422   .     A
C361   C855    1.418   .     S
C361   C858    1.428   .     S
C362   C366    1.407   .     A
C362   C369    1.419   .     A
C363   C367    1.409   .     A
C363   C856    1.428   1_554 S
C363   C859    1.429   1_554 S
C364   C365    1.398   .     A
C364   C849    1.417   .     S
C364   C858    1.429   .     S
C365   C366    1.382   .     A
C366   H373    1.081   .     S
C367   H370    1.077   .     S
C374   H430    1.088   .     S
C374   C431    1.335   .     S
H375   C484    1.088   1_455 S
C376   C484    1.335   1_455 S
C376   H487    1.086   1_455 S
H377   C431    1.086   .     S
C378   H49     1.088   1_565 S
C378   C50     1.332   1_565 S
H381   C50     1.086   1_565 S
N382   O383    1.302   .     A
N382   C849    1.439   .     S
N382   O879    1.302   .     S
O384   N877    1.302   1_554 S
H385   C854    1.083   1_554 S
Zn386  O390    1.958   .     S
Zn386  O398    1.932   .     S
Zn386  O399    1.929   .     S
Zn386  O392    1.922   .     S
Zn387  O401    1.925   .     S
Zn387  O390    1.951   .     S
Zn387  O395    1.932   .     S
Zn387  O393    1.933   .     S
Zn388  O394    1.930   .     S
Zn388  O397    1.943   .     S
Zn388  O402    1.937   .     S
Zn388  O390    1.929   .     S
Zn389  O400    1.928   .     S
Zn389  O396    1.944   .     S
Zn389  O391    1.934   .     S
Zn389  O390    1.933   .     S
O391   C403    1.273   .     A
O392   C404    1.276   .     A
O393   C405    1.279   .     A
O394   C406    1.270   .     A
O395   C407    1.277   .     A
O396   C408    1.282   .     A
O397   C407    1.269   .     A
O398   C408    1.282   .     A
O399   C405    1.279   .     A
O400   C406    1.270   .     A
O401   C403    1.273   .     A
O402   C404    1.280   .     A
C403   C431    1.438   .     S
C404   C429    1.455   .     S
C405   C435    1.436   .     S
C406   C433    1.452   .     S
C407   C412    1.450   .     S
C408   C424    1.475   .     S
C409   C423    1.394   .     A
C409   C914    1.417   1_554 S
C409   N932    1.439   1_554 S
H410   C423    1.084   .     S
H411   C420    1.082   .     S
C412   C422    1.389   .     A
C412   C423    1.393   .     A
C413   H426    1.083   .     S
C413   C414    1.387   .     A
C413   C424    1.401   .     A
C414   C910    1.391   .     S
C414   H935    1.083   .     S
C415   H427    1.076   .     S
C415   C909    1.391   1_554 S
C415   C911    1.418   1_554 S
C416   C417    1.422   .     A
C416   C910    1.418   .     S
C416   C913    1.428   .     S
C417   C421    1.407   .     A
C417   C424    1.419   .     A
C418   C422    1.409   .     A
C418   C911    1.428   1_554 S
C418   C914    1.429   1_554 S
C419   C420    1.398   .     A
C419   C904    1.417   .     S
C419   C913    1.429   .     S
C420   C421    1.382   .     A
C421   H428    1.081   .     S
C422   H425    1.077   .     S
C429   H485    1.088   .     S
C429   C486    1.335   .     S
H432   C486    1.086   .     S
C433   H104    1.088   1_565 S
C433   C105    1.332   1_565 S
H436   C105    1.086   1_565 S
N437   O438    1.302   .     A
N437   C904    1.439   .     S
N437   O934    1.302   .     S
O439   N932    1.302   1_554 S
H440   C909    1.083   1_554 S
Zn441  O445    1.958   .     S
Zn441  O453    1.932   .     S
Zn441  O454    1.929   .     S
Zn441  O447    1.922   .     S
Zn442  O456    1.925   .     S
Zn442  O445    1.951   .     S
Zn442  O450    1.932   .     S
Zn442  O448    1.933   .     S
Zn443  O449    1.930   .     S
Zn443  O452    1.943   .     S
Zn443  O457    1.937   .     S
Zn443  O445    1.929   .     S
Zn444  O455    1.928   .     S
Zn444  O451    1.944   .     S
Zn444  O446    1.934   .     S
Zn444  O445    1.933   .     S
O446   C458    1.273   .     A
O447   C459    1.276   .     A
O448   C460    1.279   .     A
O449   C461    1.270   .     A
O450   C462    1.277   .     A
O451   C463    1.282   .     A
O452   C462    1.269   .     A
O453   C463    1.282   .     A
O454   C460    1.279   .     A
O455   C461    1.270   .     A
O456   C458    1.273   .     A
O457   C459    1.280   .     A
C458   C486    1.438   .     S
C459   C484    1.455   .     S
C460   C490    1.436   .     S
C461   C488    1.452   .     S
C462   C467    1.450   .     S
C463   C479    1.475   .     S
C464   C478    1.394   .     A
C464   C969    1.417   1_554 S
C464   N987    1.439   1_554 S
H465   C478    1.084   .     S
H466   C475    1.082   .     S
C467   C477    1.389   .     A
C467   C478    1.393   .     A
C468   H481    1.083   .     S
C468   C469    1.387   .     A
C468   C479    1.401   .     A
C469   C965    1.391   .     S
C469   H990    1.083   .     S
C470   H482    1.076   .     S
C470   C964    1.391   1_554 S
C470   C966    1.418   1_554 S
C471   C472    1.422   .     A
C471   C965    1.418   .     S
C471   C968    1.428   .     S
C472   C476    1.407   .     A
C472   C479    1.419   .     A
C473   C477    1.409   .     A
C473   C966    1.428   1_554 S
C473   C969    1.429   1_554 S
C474   C475    1.398   .     A
C474   C959    1.417   .     S
C474   C968    1.429   .     S
C475   C476    1.382   .     A
C476   H483    1.081   .     S
C477   H480    1.077   .     S
C484   H375    1.088   1_655 S
C484   C376    1.335   1_655 S
H487   C376    1.086   1_655 S
C488   H159    1.088   1_565 S
C488   C160    1.332   1_565 S
H491   C160    1.086   1_565 S
N492   O493    1.302   .     A
N492   C959    1.439   .     S
N492   O989    1.302   .     S
O494   N987    1.302   1_554 S
H495   C964    1.083   1_554 S
Zn496  O500    1.958   .     S
Zn496  O508    1.932   .     S
Zn496  O509    1.929   .     S
Zn496  O502    1.922   .     S
Zn497  O511    1.925   .     S
Zn497  O500    1.951   .     S
Zn497  O505    1.932   .     S
Zn497  O503    1.933   .     S
Zn498  O504    1.930   .     S
Zn498  O507    1.943   .     S
Zn498  O512    1.937   .     S
Zn498  O500    1.929   .     S
Zn499  O510    1.928   .     S
Zn499  O506    1.944   .     S
Zn499  O501    1.934   .     S
Zn499  O500    1.933   .     S
O501   C513    1.273   .     A
O502   C514    1.276   .     A
O503   C515    1.279   .     A
O504   C516    1.270   .     A
O505   C517    1.277   .     A
O506   C518    1.282   .     A
O507   C517    1.269   .     A
O508   C518    1.282   .     A
O509   C515    1.279   .     A
O510   C516    1.270   .     A
O511   C513    1.273   .     A
O512   C514    1.280   .     A
C513   C541    1.438   .     S
C514   C539    1.455   .     S
C515   C545    1.436   .     S
C516   C543    1.452   .     S
C517   C522    1.450   .     S
C518   C534    1.475   .     S
C519   C533    1.394   .     A
H520   C533    1.084   .     S
H521   C530    1.082   .     S
C522   C532    1.389   .     A
C522   C533    1.393   .     A
C523   H536    1.083   .     S
C523   C524    1.387   .     A
C523   C534    1.401   .     A
C524   C30     1.391   1_556 S
C524   H55     1.083   1_556 S
C525   H537    1.076   .     S
C526   C527    1.422   .     A
C526   C30     1.418   1_556 S
C526   C33     1.428   1_556 S
C527   C531    1.407   .     A
C527   C534    1.419   .     A
C528   C532    1.409   .     A
C529   C530    1.398   .     A
C529   C24     1.417   1_556 S
C529   C33     1.429   1_556 S
C530   C531    1.382   .     A
C531   H538    1.081   .     S
C532   H535    1.077   .     S
C539   H595    1.088   .     S
C539   C596    1.335   .     S
H540   C649    1.088   1_455 S
C541   C649    1.335   1_455 S
C541   H652    1.086   1_455 S
H542   C596    1.086   .     S
C543   H709    1.088   .     S
C543   C710    1.332   .     S
H544   C873    1.088   1_545 S
C545   C873    1.332   1_545 S
C545   H876    1.086   1_545 S
H546   C710    1.086   .     S
N547   O548    1.302   .     A
N547   C24     1.439   1_556 S
N547   O54     1.302   1_556 S
Zn551  O555    1.958   .     S
Zn551  O563    1.932   .     S
Zn551  O564    1.929   .     S
Zn551  O557    1.922   .     S
Zn552  O566    1.925   .     S
Zn552  O555    1.951   .     S
Zn552  O560    1.932   .     S
Zn552  O558    1.933   .     S
Zn553  O559    1.930   .     S
Zn553  O562    1.943   .     S
Zn553  O567    1.937   .     S
Zn553  O555    1.929   .     S
Zn554  O565    1.928   .     S
Zn554  O561    1.944   .     S
Zn554  O556    1.934   .     S
Zn554  O555    1.933   .     S
O556   C568    1.273   .     A
O557   C569    1.276   .     A
O558   C570    1.279   .     A
O559   C571    1.270   .     A
O560   C572    1.277   .     A
O561   C573    1.282   .     A
O562   C572    1.269   .     A
O563   C573    1.282   .     A
O564   C570    1.279   .     A
O565   C571    1.270   .     A
O566   C568    1.273   .     A
O567   C569    1.280   .     A
C568   C596    1.438   .     S
C569   C594    1.455   .     S
C570   C600    1.436   .     S
C571   C598    1.452   .     S
C572   C577    1.450   .     S
C573   C589    1.475   .     S
C574   C588    1.394   .     A
H575   C588    1.084   .     S
H576   C585    1.082   .     S
C577   C587    1.389   .     A
C577   C588    1.393   .     A
C578   H591    1.083   .     S
C578   C579    1.387   .     A
C578   C589    1.401   .     A
C579   C85     1.391   1_556 S
C579   H110    1.083   1_556 S
C580   H592    1.076   .     S
C581   C582    1.422   .     A
C581   C85     1.418   1_556 S
C581   C88     1.428   1_556 S
C582   C586    1.407   .     A
C582   C589    1.419   .     A
C583   C587    1.409   .     A
C584   C585    1.398   .     A
C584   C79     1.417   1_556 S
C584   C88     1.429   1_556 S
C585   C586    1.382   .     A
C586   H593    1.081   .     S
C587   H590    1.077   .     S
C594   H650    1.088   .     S
C594   C651    1.335   .     S
H597   C651    1.086   .     S
C598   H764    1.088   .     S
C598   C765    1.332   .     S
H599   C928    1.088   1_545 S
C600   C928    1.332   1_545 S
C600   H931    1.086   1_545 S
H601   C765    1.086   .     S
N602   O603    1.302   .     A
N602   C79     1.439   1_556 S
N602   O109    1.302   1_556 S
Zn606  O610    1.958   .     S
Zn606  O618    1.932   .     S
Zn606  O619    1.929   .     S
Zn606  O612    1.922   .     S
Zn607  O621    1.925   .     S
Zn607  O610    1.951   .     S
Zn607  O615    1.932   .     S
Zn607  O613    1.933   .     S
Zn608  O614    1.930   .     S
Zn608  O617    1.943   .     S
Zn608  O622    1.937   .     S
Zn608  O610    1.929   .     S
Zn609  O620    1.928   .     S
Zn609  O616    1.944   .     S
Zn609  O611    1.934   .     S
Zn609  O610    1.933   .     S
O611   C623    1.273   .     A
O612   C624    1.276   .     A
O613   C625    1.279   .     A
O614   C626    1.270   .     A
O615   C627    1.277   .     A
O616   C628    1.282   .     A
O617   C627    1.269   .     A
O618   C628    1.282   .     A
O619   C625    1.279   .     A
O620   C626    1.270   .     A
O621   C623    1.273   .     A
O622   C624    1.280   .     A
C623   C651    1.438   .     S
C624   C649    1.455   .     S
C625   C655    1.436   .     S
C626   C653    1.452   .     S
C627   C632    1.450   .     S
C628   C644    1.475   .     S
C629   C643    1.394   .     A
H630   C643    1.084   .     S
H631   C640    1.082   .     S
C632   C642    1.389   .     A
C632   C643    1.393   .     A
C633   H646    1.083   .     S
C633   C634    1.387   .     A
C633   C644    1.401   .     A
C634   C140    1.391   1_556 S
C634   H165    1.083   1_556 S
C635   H647    1.076   .     S
C636   C637    1.422   .     A
C636   C140    1.418   1_556 S
C636   C143    1.428   1_556 S
C637   C641    1.407   .     A
C637   C644    1.419   .     A
C638   C642    1.409   .     A
C639   C640    1.398   .     A
C639   C134    1.417   1_556 S
C639   C143    1.429   1_556 S
C640   C641    1.382   .     A
C641   H648    1.081   .     S
C642   H645    1.077   .     S
C649   H540    1.088   1_655 S
C649   C541    1.335   1_655 S
H652   C541    1.086   1_655 S
C653   H819    1.088   .     S
C653   C820    1.332   .     S
H654   C983    1.088   1_545 S
C655   C983    1.332   1_545 S
C655   H986    1.086   1_545 S
H656   C820    1.086   .     S
N657   O658    1.302   .     A
N657   C134    1.439   1_556 S
N657   O164    1.302   1_556 S
Zn661  O665    1.958   .     S
Zn661  O673    1.932   .     S
Zn661  O674    1.929   .     S
Zn661  O667    1.922   .     S
Zn662  O676    1.925   .     S
Zn662  O665    1.951   .     S
Zn662  O670    1.932   .     S
Zn662  O668    1.933   .     S
Zn663  O669    1.930   .     S
Zn663  O672    1.943   .     S
Zn663  O677    1.937   .     S
Zn663  O665    1.929   .     S
Zn664  O675    1.928   .     S
Zn664  O671    1.944   .     S
Zn664  O666    1.934   .     S
Zn664  O665    1.933   .     S
O666   C678    1.273   .     A
O667   C679    1.276   .     A
O668   C680    1.279   .     A
O669   C681    1.270   .     A
O670   C682    1.277   .     A
O671   C683    1.282   .     A
O672   C682    1.269   .     A
O673   C683    1.282   .     A
O674   C680    1.279   .     A
O675   C681    1.270   .     A
O676   C678    1.273   .     A
O677   C679    1.280   .     A
C678   C706    1.438   .     S
C679   C704    1.455   .     S
C680   C710    1.436   .     S
C681   C708    1.452   .     S
C682   C687    1.450   .     S
C683   C699    1.475   .     S
C684   C698    1.394   .     A
H685   C698    1.084   .     S
H686   C695    1.082   .     S
C687   C697    1.389   .     A
C687   C698    1.393   .     A
C688   H701    1.083   .     S
C688   C689    1.387   .     A
C688   C699    1.401   .     A
C689   C195    1.391   1_556 S
C689   H220    1.083   1_556 S
C690   H702    1.076   .     S
C691   C692    1.422   .     A
C691   C195    1.418   1_556 S
C691   C198    1.428   1_556 S
C692   C696    1.407   .     A
C692   C699    1.419   .     A
C693   C697    1.409   .     A
C694   C695    1.398   .     A
C694   C189    1.417   1_556 S
C694   C198    1.429   1_556 S
C695   C696    1.382   .     A
C696   H703    1.081   .     S
C697   H700    1.077   .     S
C704   H760    1.088   .     S
C704   C761    1.335   .     S
H705   C814    1.088   1_455 S
C706   C814    1.335   1_455 S
C706   H817    1.086   1_455 S
H707   C761    1.086   .     S
C708   H874    1.088   .     S
C708   C875    1.332   .     S
H711   C875    1.086   .     S
N712   O713    1.302   .     A
N712   C189    1.439   1_556 S
N712   O219    1.302   1_556 S
Zn716  O720    1.958   .     S
Zn716  O728    1.932   .     S
Zn716  O729    1.929   .     S
Zn716  O722    1.922   .     S
Zn717  O731    1.925   .     S
Zn717  O720    1.951   .     S
Zn717  O725    1.932   .     S
Zn717  O723    1.933   .     S
Zn718  O724    1.930   .     S
Zn718  O727    1.943   .     S
Zn718  O732    1.937   .     S
Zn718  O720    1.929   .     S
Zn719  O730    1.928   .     S
Zn719  O726    1.944   .     S
Zn719  O721    1.934   .     S
Zn719  O720    1.933   .     S
O721   C733    1.273   .     A
O722   C734    1.276   .     A
O723   C735    1.279   .     A
O724   C736    1.270   .     A
O725   C737    1.277   .     A
O726   C738    1.282   .     A
O727   C737    1.269   .     A
O728   C738    1.282   .     A
O729   C735    1.279   .     A
O730   C736    1.270   .     A
O731   C733    1.273   .     A
O732   C734    1.280   .     A
C733   C761    1.438   .     S
C734   C759    1.455   .     S
C735   C765    1.436   .     S
C736   C763    1.452   .     S
C737   C742    1.450   .     S
C738   C754    1.475   .     S
C739   C753    1.394   .     A
H740   C753    1.084   .     S
H741   C750    1.082   .     S
C742   C752    1.389   .     A
C742   C753    1.393   .     A
C743   H756    1.083   .     S
C743   C744    1.387   .     A
C743   C754    1.401   .     A
C744   C250    1.391   1_556 S
C744   H275    1.083   1_556 S
C745   H757    1.076   .     S
C746   C747    1.422   .     A
C746   C250    1.418   1_556 S
C746   C253    1.428   1_556 S
C747   C751    1.407   .     A
C747   C754    1.419   .     A
C748   C752    1.409   .     A
C749   C750    1.398   .     A
C749   C244    1.417   1_556 S
C749   C253    1.429   1_556 S
C750   C751    1.382   .     A
C751   H758    1.081   .     S
C752   H755    1.077   .     S
C759   H815    1.088   .     S
C759   C816    1.335   .     S
H762   C816    1.086   .     S
C763   H929    1.088   .     S
C763   C930    1.332   .     S
H766   C930    1.086   .     S
N767   O768    1.302   .     A
N767   C244    1.439   1_556 S
N767   O274    1.302   1_556 S
Zn771  O775    1.958   .     S
Zn771  O783    1.932   .     S
Zn771  O784    1.929   .     S
Zn771  O777    1.922   .     S
Zn772  O786    1.925   .     S
Zn772  O775    1.951   .     S
Zn772  O780    1.932   .     S
Zn772  O778    1.933   .     S
Zn773  O779    1.930   .     S
Zn773  O782    1.943   .     S
Zn773  O787    1.937   .     S
Zn773  O775    1.929   .     S
Zn774  O785    1.928   .     S
Zn774  O781    1.944   .     S
Zn774  O776    1.934   .     S
Zn774  O775    1.933   .     S
O776   C788    1.273   .     A
O777   C789    1.276   .     A
O778   C790    1.279   .     A
O779   C791    1.270   .     A
O780   C792    1.277   .     A
O781   C793    1.282   .     A
O782   C792    1.269   .     A
O783   C793    1.282   .     A
O784   C790    1.279   .     A
O785   C791    1.270   .     A
O786   C788    1.273   .     A
O787   C789    1.280   .     A
C788   C816    1.438   .     S
C789   C814    1.455   .     S
C790   C820    1.436   .     S
C791   C818    1.452   .     S
C792   C797    1.450   .     S
C793   C809    1.475   .     S
C794   C808    1.394   .     A
H795   C808    1.084   .     S
H796   C805    1.082   .     S
C797   C807    1.389   .     A
C797   C808    1.393   .     A
C798   H811    1.083   .     S
C798   C799    1.387   .     A
C798   C809    1.401   .     A
C799   C305    1.391   1_556 S
C799   H330    1.083   1_556 S
C800   H812    1.076   .     S
C801   C802    1.422   .     A
C801   C305    1.418   1_556 S
C801   C308    1.428   1_556 S
C802   C806    1.407   .     A
C802   C809    1.419   .     A
C803   C807    1.409   .     A
C804   C805    1.398   .     A
C804   C299    1.417   1_556 S
C804   C308    1.429   1_556 S
C805   C806    1.382   .     A
C806   H813    1.081   .     S
C807   H810    1.077   .     S
C814   H705    1.088   1_655 S
C814   C706    1.335   1_655 S
H817   C706    1.086   1_655 S
C818   H984    1.088   .     S
C818   C985    1.332   .     S
H821   C985    1.086   .     S
N822   O823    1.302   .     A
N822   C299    1.439   1_556 S
N822   O329    1.302   1_556 S
Zn826  O830    1.958   .     S
Zn826  O838    1.932   .     S
Zn826  O839    1.929   .     S
Zn826  O832    1.922   .     S
Zn827  O841    1.925   .     S
Zn827  O830    1.951   .     S
Zn827  O835    1.932   .     S
Zn827  O833    1.933   .     S
Zn828  O834    1.930   .     S
Zn828  O837    1.943   .     S
Zn828  O842    1.937   .     S
Zn828  O830    1.929   .     S
Zn829  O840    1.928   .     S
Zn829  O836    1.944   .     S
Zn829  O831    1.934   .     S
Zn829  O830    1.933   .     S
O831   C843    1.273   .     A
O832   C844    1.276   .     A
O833   C845    1.279   .     A
O834   C846    1.270   .     A
O835   C847    1.277   .     A
O836   C848    1.282   .     A
O837   C847    1.269   .     A
O838   C848    1.282   .     A
O839   C845    1.279   .     A
O840   C846    1.270   .     A
O841   C843    1.273   .     A
O842   C844    1.280   .     A
C843   C871    1.438   .     S
C844   C869    1.455   .     S
C845   C875    1.436   .     S
C846   C873    1.452   .     S
C847   C852    1.450   .     S
C848   C864    1.475   .     S
C849   C863    1.394   .     A
H850   C863    1.084   .     S
H851   C860    1.082   .     S
C852   C862    1.389   .     A
C852   C863    1.393   .     A
C853   H866    1.083   .     S
C853   C854    1.387   .     A
C853   C864    1.401   .     A
C854   C360    1.391   1_556 S
C854   H385    1.083   1_556 S
C855   H867    1.076   .     S
C856   C857    1.422   .     A
C856   C360    1.418   1_556 S
C856   C363    1.428   1_556 S
C857   C861    1.407   .     A
C857   C864    1.419   .     A
C858   C862    1.409   .     A
C859   C860    1.398   .     A
C859   C354    1.417   1_556 S
C859   C363    1.429   1_556 S
C860   C861    1.382   .     A
C861   H868    1.081   .     S
C862   H865    1.077   .     S
C869   H925    1.088   .     S
C869   C926    1.335   .     S
H870   C979    1.088   1_455 S
C871   C979    1.335   1_455 S
C871   H982    1.086   1_455 S
H872   C926    1.086   .     S
C873   H544    1.088   1_565 S
C873   C545    1.332   1_565 S
H876   C545    1.086   1_565 S
N877   O878    1.302   .     A
N877   C354    1.439   1_556 S
N877   O384    1.302   1_556 S
Zn881  O885    1.958   .     S
Zn881  O893    1.932   .     S
Zn881  O894    1.929   .     S
Zn881  O887    1.922   .     S
Zn882  O896    1.925   .     S
Zn882  O885    1.951   .     S
Zn882  O890    1.932   .     S
Zn882  O888    1.933   .     S
Zn883  O889    1.930   .     S
Zn883  O892    1.943   .     S
Zn883  O897    1.937   .     S
Zn883  O885    1.929   .     S
Zn884  O895    1.928   .     S
Zn884  O891    1.944   .     S
Zn884  O886    1.934   .     S
Zn884  O885    1.933   .     S
O886   C898    1.273   .     A
O887   C899    1.276   .     A
O888   C900    1.279   .     A
O889   C901    1.270   .     A
O890   C902    1.277   .     A
O891   C903    1.282   .     A
O892   C902    1.269   .     A
O893   C903    1.282   .     A
O894   C900    1.279   .     A
O895   C901    1.270   .     A
O896   C898    1.273   .     A
O897   C899    1.280   .     A
C898   C926    1.438   .     S
C899   C924    1.455   .     S
C900   C930    1.436   .     S
C901   C928    1.452   .     S
C902   C907    1.450   .     S
C903   C919    1.475   .     S
C904   C918    1.394   .     A
H905   C918    1.084   .     S
H906   C915    1.082   .     S
C907   C917    1.389   .     A
C907   C918    1.393   .     A
C908   H921    1.083   .     S
C908   C909    1.387   .     A
C908   C919    1.401   .     A
C909   C415    1.391   1_556 S
C909   H440    1.083   1_556 S
C910   H922    1.076   .     S
C911   C912    1.422   .     A
C911   C415    1.418   1_556 S
C911   C418    1.428   1_556 S
C912   C916    1.407   .     A
C912   C919    1.419   .     A
C913   C917    1.409   .     A
C914   C915    1.398   .     A
C914   C409    1.417   1_556 S
C914   C418    1.429   1_556 S
C915   C916    1.382   .     A
C916   H923    1.081   .     S
C917   H920    1.077   .     S
C924   H980    1.088   .     S
C924   C981    1.335   .     S
H927   C981    1.086   .     S
C928   H599    1.088   1_565 S
C928   C600    1.332   1_565 S
H931   C600    1.086   1_565 S
N932   O933    1.302   .     A
N932   C409    1.439   1_556 S
N932   O439    1.302   1_556 S
Zn936  O940    1.958   .     S
Zn936  O948    1.932   .     S
Zn936  O949    1.929   .     S
Zn936  O942    1.922   .     S
Zn937  O951    1.925   .     S
Zn937  O940    1.951   .     S
Zn937  O945    1.932   .     S
Zn937  O943    1.933   .     S
Zn938  O944    1.930   .     S
Zn938  O947    1.943   .     S
Zn938  O952    1.937   .     S
Zn938  O940    1.929   .     S
Zn939  O950    1.928   .     S
Zn939  O946    1.944   .     S
Zn939  O941    1.934   .     S
Zn939  O940    1.933   .     S
O941   C953    1.273   .     A
O942   C954    1.276   .     A
O943   C955    1.279   .     A
O944   C956    1.270   .     A
O945   C957    1.277   .     A
O946   C958    1.282   .     A
O947   C957    1.269   .     A
O948   C958    1.282   .     A
O949   C955    1.279   .     A
O950   C956    1.270   .     A
O951   C953    1.273   .     A
O952   C954    1.280   .     A
C953   C981    1.438   .     S
C954   C979    1.455   .     S
C955   C985    1.436   .     S
C956   C983    1.452   .     S
C957   C962    1.450   .     S
C958   C974    1.475   .     S
C959   C973    1.394   .     A
H960   C973    1.084   .     S
H961   C970    1.082   .     S
C962   C972    1.389   .     A
C962   C973    1.393   .     A
C963   H976    1.083   .     S
C963   C964    1.387   .     A
C963   C974    1.401   .     A
C964   C470    1.391   1_556 S
C964   H495    1.083   1_556 S
C965   H977    1.076   .     S
C966   C967    1.422   .     A
C966   C470    1.418   1_556 S
C966   C473    1.428   1_556 S
C967   C971    1.407   .     A
C967   C974    1.419   .     A
C968   C972    1.409   .     A
C969   C970    1.398   .     A
C969   C464    1.417   1_556 S
C969   C473    1.429   1_556 S
C970   C971    1.382   .     A
C971   H978    1.081   .     S
C972   H975    1.077   .     S
C979   H870    1.088   1_655 S
C979   C871    1.335   1_655 S
H982   C871    1.086   1_655 S
C983   H654    1.088   1_565 S
C983   C655    1.332   1_565 S
H986   C655    1.086   1_565 S
N987   O988    1.302   .     A
N987   C464    1.439   1_556 S
N987   O494    1.302   1_556 S
