data_str_m1_o1_o17_pcu_sym.130
_audit_creation_date              2020-01-03
_audit_creation_method            'Materials Studio'
_symmetry_space_group_name_H-M    'P1'
_symmetry_Int_Tables_number       1
_symmetry_cell_setting            triclinic
loop_
_symmetry_equiv_pos_as_xyz
  x,y,z
_cell_length_a                    36.8050
_cell_length_b                    36.6882
_cell_length_c                    34.4970
_cell_angle_alpha                 90.0093
_cell_angle_beta                  89.8600
_cell_angle_gamma                 89.9292
loop_
_atom_site_label
_atom_site_type_symbol
_atom_site_fract_x
_atom_site_fract_y
_atom_site_fract_z
_atom_site_U_iso_or_equiv
_atom_site_adp_type
_atom_site_occupancy
C1     C     0.00414   0.28354   0.41823   0.00000  Uiso   1.00
C2     C     0.24829   0.46662   0.08138   0.00000  Uiso   1.00
C3     C     0.21756   0.00530   0.54136   0.00000  Uiso   1.00
C4     C     0.00614   0.28317   0.45913   0.00000  Uiso   1.00
C5     C     0.49702   0.21701   0.54133   0.00000  Uiso   1.00
C6     C     0.21788   0.00774   0.45947   0.00000  Uiso   1.00
C7     C     0.28361   0.49691   0.54129   0.00000  Uiso   1.00
C8     C     0.24515   0.46726   0.95864   0.00000  Uiso   1.00
C9     C     0.25269   0.03344   0.04082   0.00000  Uiso   1.00
C10    C     0.03242   0.25326   0.95908   0.00000  Uiso   1.00
C11    C     0.46571   0.25099   0.04118   0.00000  Uiso   1.00
C12    C     0.25488   0.03349   0.95877   0.00000  Uiso   1.00
C13    C     0.46614   0.24831   0.91801   0.00000  Uiso   1.00
C14    C     0.24521   0.46712   0.04061   0.00000  Uiso   1.00
C15    C     0.46591   0.24985   0.95894   0.00000  Uiso   1.00
C16    C     0.03240   0.25450   0.04101   0.00000  Uiso   1.00
C17    C     0.09805   0.34815   0.24991   0.00000  Uiso   1.00
C18    C     0.40227   0.15155   0.75060   0.00000  Uiso   1.00
C19    C     0.15147   0.09758   0.25007   0.00000  Uiso   1.00
C20    C     0.34769   0.40155   0.74950   0.00000  Uiso   1.00
C21    C     0.40325   0.15051   0.25032   0.00000  Uiso   1.00
C22    C     0.09841   0.34781   0.74917   0.00000  Uiso   1.00
C23    C     0.34788   0.40166   0.24996   0.00000  Uiso   1.00
C24    C     0.03273   0.25265   0.08187   0.00000  Uiso   1.00
C25    C     0.15237   0.09856   0.74976   0.00000  Uiso   1.00
C26    C     0.09784   0.15178   0.75033   0.00000  Uiso   1.00
C27    C     0.40223   0.34829   0.25008   0.00000  Uiso   1.00
C28    C     0.15156   0.40237   0.75027   0.00000  Uiso   1.00
C29    C     0.34745   0.09877   0.25000   0.00000  Uiso   1.00
C30    C     0.40229   0.34840   0.75053   0.00000  Uiso   1.00
C31    C     0.09824   0.15214   0.24997   0.00000  Uiso   1.00
C32    C     0.34768   0.09844   0.74952   0.00000  Uiso   1.00
C33    C     0.15220   0.40171   0.25026   0.00000  Uiso   1.00
C34    C     0.00151   0.25007   0.47963   0.00000  Uiso   1.00
C35    C     0.24757   0.46685   0.91785   0.00000  Uiso   1.00
C36    C     0.00136   0.25014   0.52080   0.00000  Uiso   1.00
C37    C     0.25067   0.00135   0.47972   0.00000  Uiso   1.00
C38    C     0.25063   0.00114   0.52085   0.00000  Uiso   1.00
C39    C     0.24964   0.00039   0.97913   0.00000  Uiso   1.00
C40    C     0.24925   0.00032   0.02025   0.00000  Uiso   1.00
C41    C     0.49911   0.25172   0.97949   0.00000  Uiso   1.00
C42    C     0.49907   0.25215   0.02066   0.00000  Uiso   1.00
C43    C     0.16332   0.39222   0.17932   0.00000  Uiso   1.00
C44    C     0.38970   0.05337   0.71719   0.00000  Uiso   1.00
C45    C     0.11682   0.17107   0.18245   0.00000  Uiso   1.00
C46    C     0.24965   0.03365   0.08159   0.00000  Uiso   1.00
C47    C     0.38870   0.33478   0.82077   0.00000  Uiso   1.00
C48    C     0.35309   0.09222   0.17741   0.00000  Uiso   1.00
C49    C     0.16430   0.38926   0.82070   0.00000  Uiso   1.00
C50    C     0.40427   0.34943   0.17696   0.00000  Uiso   1.00
C51    C     0.12225   0.17774   0.81251   0.00000  Uiso   1.00
C52    C     0.17105   0.11595   0.81775   0.00000  Uiso   1.00
C53    C     0.35370   0.40812   0.17710   0.00000  Uiso   1.00
C54    C     0.11139   0.33207   0.81858   0.00000  Uiso   1.00
C55    C     0.41355   0.13963   0.17840   0.00000  Uiso   1.00
C56    C     0.33537   0.39208   0.82077   0.00000  Uiso   1.00
C57    C     0.03285   0.25038   0.91838   0.00000  Uiso   1.00
C58    C     0.17932   0.12367   0.18929   0.00000  Uiso   1.00
C59    C     0.44543   0.10935   0.71568   0.00000  Uiso   1.00
C60    C     0.10644   0.33980   0.17766   0.00000  Uiso   1.00
C61    C     0.36013   0.19667   0.78279   0.00000  Uiso   1.00
C62    C     0.09138   0.35357   0.32232   0.00000  Uiso   1.00
C63    C     0.36094   0.41478   0.67912   0.00000  Uiso   1.00
C64    C     0.12617   0.07146   0.31238   0.00000  Uiso   1.00
C65    C     0.08578   0.36083   0.67867   0.00000  Uiso   1.00
C66    C     0.39876   0.15628   0.32308   0.00000  Uiso   1.00
C67    C     0.13335   0.07801   0.68338   0.00000  Uiso   1.00
C68    C     0.46577   0.25020   0.08215   0.00000  Uiso   1.00
C69    C     0.34552   0.39992   0.32314   0.00000  Uiso   1.00
C70    C     0.39761   0.34264   0.32302   0.00000  Uiso   1.00
C71    C     0.07593   0.13169   0.68460   0.00000  Uiso   1.00
C72    C     0.33978   0.10602   0.32243   0.00000  Uiso   1.00
C73    C     0.14257   0.41440   0.67900   0.00000  Uiso   1.00
C74    C     0.07310   0.12996   0.31316   0.00000  Uiso   1.00
C75    C     0.41481   0.35802   0.67934   0.00000  Uiso   1.00
C76    C     0.14738   0.40835   0.32265   0.00000  Uiso   1.00
C77    C     0.30494   0.14011   0.78569   0.00000  Uiso   1.00
C78    C     0.00316   0.31892   0.39670   0.00000  Uiso   1.00
C79    C     0.00015   0.25014   0.39813   0.00000  Uiso   1.00
C80    C     0.48763   0.18318   0.60410   0.00000  Uiso   1.00
C81    C     0.18275   0.01104   0.39712   0.00000  Uiso   1.00
C82    C     0.31874   0.00355   0.60357   0.00000  Uiso   1.00
C83    C     0.48770   0.18257   0.39689   0.00000  Uiso   1.00
C84    C     0.00065   0.31913   0.60354   0.00000  Uiso   1.00
C85    C     0.31861   0.49512   0.39610   0.00000  Uiso   1.00
C86    C     0.18156   0.49691   0.60297   0.00000  Uiso   1.00
C87    C     0.25831   0.06841   0.89584   0.00000  Uiso   1.00
C88    C     0.25111   0.43122   0.10241   0.00000  Uiso   1.00
C89    C     0.43185   0.24238   0.89597   0.00000  Uiso   1.00
C90    C     0.00012   0.25040   0.60215   0.00000  Uiso   1.00
C91    C     0.06783   0.25139   0.10363   0.00000  Uiso   1.00
C92    C     0.24980   0.43156   0.89629   0.00000  Uiso   1.00
C93    C     0.24380   0.06874   0.10257   0.00000  Uiso   1.00
C94    C     0.06784   0.24436   0.89755   0.00000  Uiso   1.00
C95    C     0.43104   0.24811   0.10451   0.00000  Uiso   1.00
C96    C     0.25036   0.00052   0.39824   0.00000  Uiso   1.00
C97    C     0.49575   0.21719   0.58215   0.00000  Uiso   1.00
C98    C     0.25025   0.00008   0.60215   0.00000  Uiso   1.00
C99    C     0.25039   0.00030   0.89782   0.00000  Uiso   1.00
C100   C     0.24970   0.00010   0.10177   0.00000  Uiso   1.00
C101   C     0.49964   0.24998   0.89805   0.00000  Uiso   1.00
C102   C     0.49933   0.25078   0.10202   0.00000  Uiso   1.00
C103   C     0.49621   0.18410   0.48040   0.00000  Uiso   1.00
C104   C     0.01375   0.31510   0.52026   0.00000  Uiso   1.00
C105   C     0.31533   0.48795   0.48025   0.00000  Uiso   1.00
C106   C     0.18606   0.01455   0.52079   0.00000  Uiso   1.00
C107   C     0.01423   0.31497   0.48013   0.00000  Uiso   1.00
C108   C     0.21750   0.00649   0.41862   0.00000  Uiso   1.00
C109   C     0.49580   0.18418   0.52050   0.00000  Uiso   1.00
C110   C     0.18635   0.01632   0.48075   0.00000  Uiso   1.00
C111   C     0.31550   0.48924   0.52042   0.00000  Uiso   1.00
C112   C     0.23712   0.43540   0.97951   0.00000  Uiso   1.00
C113   C     0.25992   0.06559   0.02010   0.00000  Uiso   1.00
C114   C     0.06460   0.25940   0.97981   0.00000  Uiso   1.00
C115   C     0.43309   0.25228   0.02004   0.00000  Uiso   1.00
C116   C     0.26127   0.06557   0.97996   0.00000  Uiso   1.00
C117   C     0.23723   0.43531   0.01963   0.00000  Uiso   1.00
C118   C     0.43318   0.25143   0.97986   0.00000  Uiso   1.00
C119   C     0.28379   0.49954   0.58209   0.00000  Uiso   1.00
C120   C     0.06454   0.26030   0.01986   0.00000  Uiso   1.00
C121   C     0.25002   0.00007   0.35578   0.00000  Uiso   1.00
C122   C     0.25011   0.00000   0.64434   0.00000  Uiso   1.00
C123   C     0.49995   0.24998   0.35573   0.00000  Uiso   1.00
C124   C    -0.00000   0.25019   0.64438   0.00000  Uiso   1.00
C125   C     0.49995   0.24995   0.85572   0.00000  Uiso   1.00
C126   C     0.49952   0.25006   0.14432   0.00000  Uiso   1.00
C127   C     0.25005   0.00041   0.85561   0.00000  Uiso   1.00
C128   C     0.24998   0.00009   0.14424   0.00000  Uiso   1.00
C129   C     0.17989   0.06979   0.25024   0.00000  Uiso   1.00
C130   C     0.49574   0.21692   0.41838   0.00000  Uiso   1.00
C131   C     0.32019   0.43029   0.74941   0.00000  Uiso   1.00
C132   C     0.43020   0.17979   0.24994   0.00000  Uiso   1.00
C133   C     0.06968   0.32029   0.74932   0.00000  Uiso   1.00
C134   C     0.32004   0.43006   0.25014   0.00000  Uiso   1.00
C135   C     0.17995   0.06989   0.74974   0.00000  Uiso   1.00
C136   C     0.06999   0.31997   0.24990   0.00000  Uiso   1.00
C137   C     0.43033   0.17975   0.74977   0.00000  Uiso   1.00
C138   C     0.18025   0.42983   0.75046   0.00000  Uiso   1.00
C139   C     0.31985   0.07013   0.25002   0.00000  Uiso   1.00
C140   C     0.42980   0.31969   0.75061   0.00000  Uiso   1.00
C141   C     0.00320   0.28381   0.58206   0.00000  Uiso   1.00
C142   C     0.06998   0.18010   0.24990   0.00000  Uiso   1.00
C143   C     0.31966   0.07025   0.75025   0.00000  Uiso   1.00
C144   C     0.18018   0.42993   0.24995   0.00000  Uiso   1.00
C145   C     0.07003   0.18015   0.75021   0.00000  Uiso   1.00
C146   C     0.43000   0.31991   0.24987   0.00000  Uiso   1.00
C147   C     0.14245   0.38478   0.21517   0.00000  Uiso   1.00
C148   C     0.38218   0.09023   0.73368   0.00000  Uiso   1.00
C149   C     0.12221   0.14900   0.21815   0.00000  Uiso   1.00
C150   C     0.38293   0.35644   0.78495   0.00000  Uiso   1.00
C151   C     0.36535   0.10760   0.21501   0.00000  Uiso   1.00
C152   C     0.28366   0.49638   0.41817   0.00000  Uiso   1.00
C153   C     0.14352   0.38288   0.78456   0.00000  Uiso   1.00
C154   C     0.39103   0.36389   0.21463   0.00000  Uiso   1.00
C155   C     0.12196   0.14915   0.78197   0.00000  Uiso   1.00
C156   C     0.14845   0.12145   0.78243   0.00000  Uiso   1.00
C157   C     0.36425   0.39102   0.21456   0.00000  Uiso   1.00
C158   C     0.11746   0.35498   0.78371   0.00000  Uiso   1.00
C159   C     0.39410   0.13246   0.21536   0.00000  Uiso   1.00
C160   C     0.35555   0.38318   0.78446   0.00000  Uiso   1.00
C161   C     0.15008   0.12276   0.21916   0.00000  Uiso   1.00
C162   C     0.40969   0.11691   0.73435   0.00000  Uiso   1.00
C163   C     0.21690   0.00136   0.58199   0.00000  Uiso   1.00
C164   C     0.11482   0.35852   0.21471   0.00000  Uiso   1.00
C165   C     0.36776   0.15976   0.76647   0.00000  Uiso   1.00
C166   C     0.10907   0.36393   0.28538   0.00000  Uiso   1.00
C167   C     0.36698   0.39342   0.71507   0.00000  Uiso   1.00
C168   C     0.12605   0.09926   0.28084   0.00000  Uiso   1.00
C169   C     0.10654   0.36720   0.71482   0.00000  Uiso   1.00
C170   C     0.38572   0.14134   0.28547   0.00000  Uiso   1.00
C171   C     0.12942   0.10251   0.71728   0.00000  Uiso   1.00
C172   C     0.35904   0.38593   0.28542   0.00000  Uiso   1.00
C173   C     0.38616   0.35911   0.28551   0.00000  Uiso   1.00
C174   C     0.25447   0.03362   0.91786   0.00000  Uiso   1.00
C175   C     0.10133   0.12851   0.71798   0.00000  Uiso   1.00
C176   C     0.35733   0.11594   0.28518   0.00000  Uiso   1.00
C177   C     0.13334   0.39447   0.71531   0.00000  Uiso   1.00
C178   C     0.10016   0.12758   0.28133   0.00000  Uiso   1.00
C179   C     0.39447   0.36679   0.71559   0.00000  Uiso   1.00
C180   C     0.13600   0.39106   0.28558   0.00000  Uiso   1.00
C181   C     0.34034   0.13296   0.76608   0.00000  Uiso   1.00
C182   C     0.49727   0.21686   0.45927   0.00000  Uiso   1.00
C183   C     0.00556   0.28334   0.54122   0.00000  Uiso   1.00
C184   C     0.28352   0.49548   0.45915   0.00000  Uiso   1.00
H185   H     0.49645   0.15777   0.46638   0.00000  Uiso   1.00
H186   H     0.26562   0.09103   0.03471   0.00000  Uiso   1.00
H187   H     0.09018   0.26455   0.96532   0.00000  Uiso   1.00
H188   H     0.40693   0.25469   0.03403   0.00000  Uiso   1.00
H189   H     0.26780   0.09108   0.96594   0.00000  Uiso   1.00
H190   H     0.23009   0.41007   0.03389   0.00000  Uiso   1.00
H191   H     0.40715   0.25294   0.96548   0.00000  Uiso   1.00
H192   H     0.09006   0.26643   0.03377   0.00000  Uiso   1.00
H193   H     0.16283   0.40930   0.12376   0.00000  Uiso   1.00
H194   H     0.42345   0.01007   0.71442   0.00000  Uiso   1.00
H195   H     0.11417   0.17091   0.12393   0.00000  Uiso   1.00
H196   H     0.02088   0.34030   0.53459   0.00000  Uiso   1.00
H197   H     0.36623   0.30242   0.86162   0.00000  Uiso   1.00
H198   H     0.36548   0.06299   0.12967   0.00000  Uiso   1.00
H199   H     0.19665   0.36757   0.86192   0.00000  Uiso   1.00
H200   H     0.44374   0.34898   0.13633   0.00000  Uiso   1.00
H201   H     0.15163   0.21576   0.84087   0.00000  Uiso   1.00
H202   H     0.17234   0.11341   0.87622   0.00000  Uiso   1.00
H203   H     0.31388   0.42501   0.14210   0.00000  Uiso   1.00
H204   H     0.10027   0.32997   0.87585   0.00000  Uiso   1.00
H205   H     0.41120   0.15935   0.12420   0.00000  Uiso   1.00
H206   H     0.33803   0.40465   0.87765   0.00000  Uiso   1.00
H207   H     0.34047   0.48041   0.46612   0.00000  Uiso   1.00
H208   H     0.21653   0.15402   0.16083   0.00000  Uiso   1.00
H209   H     0.47241   0.09217   0.66810   0.00000  Uiso   1.00
H210   H     0.12630   0.31080   0.13254   0.00000  Uiso   1.00
H211   H     0.32589   0.23956   0.78593   0.00000  Uiso   1.00
H212   H     0.08975   0.31836   0.36726   0.00000  Uiso   1.00
H213   H     0.38303   0.44714   0.63803   0.00000  Uiso   1.00
H214   H     0.11756   0.06079   0.36914   0.00000  Uiso   1.00
H215   H     0.05463   0.38283   0.63660   0.00000  Uiso   1.00
H216   H     0.38655   0.18067   0.37388   0.00000  Uiso   1.00
H217   H     0.11044   0.03960   0.64947   0.00000  Uiso   1.00
H218   H     0.16102   0.02165   0.53545   0.00000  Uiso   1.00
H219   H     0.30562   0.40002   0.36333   0.00000  Uiso   1.00
H220   H     0.43843   0.32720   0.35765   0.00000  Uiso   1.00
H221   H     0.06969   0.13442   0.62654   0.00000  Uiso   1.00
H222   H     0.34311   0.07846   0.37257   0.00000  Uiso   1.00
H223   H     0.15635   0.41119   0.62243   0.00000  Uiso   1.00
H224   H     0.03133   0.10624   0.34142   0.00000  Uiso   1.00
H225   H     0.41243   0.34544   0.62245   0.00000  Uiso   1.00
H226   H     0.16338   0.45394   0.34955   0.00000  Uiso   1.00
H227   H     0.27890   0.15667   0.83412   0.00000  Uiso   1.00
H228   H     0.48420   0.37055   0.39409   0.00000  Uiso   1.00
H229   H     0.02190   0.34007   0.46594   0.00000  Uiso   1.00
H230   H     0.45423   0.14018   0.61158   0.00000  Uiso   1.00
H231   H     0.12988   0.49717   0.39191   0.00000  Uiso   1.00
H232   H     0.36776   0.02794   0.60676   0.00000  Uiso   1.00
H233   H     0.45854   0.13601   0.39486   0.00000  Uiso   1.00
H234   H     0.47977   0.36999   0.60588   0.00000  Uiso   1.00
H235   H     0.37024   0.01295   0.39091   0.00000  Uiso   1.00
H236   H     0.13115   0.47525   0.60312   0.00000  Uiso   1.00
H237   H     0.24117   0.12008   0.88795   0.00000  Uiso   1.00
H238   H     0.27166   0.38016   0.10379   0.00000  Uiso   1.00
H239   H     0.38615   0.21270   0.88942   0.00000  Uiso   1.00
H240   H     0.49530   0.15801   0.53489   0.00000  Uiso   1.00
H241   H     0.11942   0.23309   0.10614   0.00000  Uiso   1.00
H242   H     0.27054   0.38065   0.89368   0.00000  Uiso   1.00
H243   H     0.21890   0.11783   0.10312   0.00000  Uiso   1.00
H244   H     0.11652   0.21892   0.89710   0.00000  Uiso   1.00
H245   H     0.38190   0.22463   0.11107   0.00000  Uiso   1.00
H246   H     0.16146   0.02487   0.46695   0.00000  Uiso   1.00
H247   H     0.34078   0.48301   0.53495   0.00000  Uiso   1.00
H248   H     0.22998   0.41022   0.96515   0.00000  Uiso   1.00
O249   O     0.25000  -0.00000   0.25000   0.00000  Uiso   1.00
O250   O     0.25000   0.46963   0.66245   0.00000  Uiso   1.00
O251   O     0.31139   0.38929   0.33693   0.00000  Uiso   1.00
O252   O     0.37481   0.33006   0.34514   0.00000  Uiso   1.00
O253   O     0.43438   0.34117   0.33275   0.00000  Uiso   1.00
O254   O     0.04316   0.13292   0.69029   0.00000  Uiso   1.00
O255   O     0.08958   0.13296   0.64675   0.00000  Uiso   1.00
O256   O     0.31092   0.12016   0.33164   0.00000  Uiso   1.00
O257   O     0.35708   0.08173   0.34747   0.00000  Uiso   1.00
O258   O     0.14378   0.44770   0.67887   0.00000  Uiso   1.00
O259   O     0.14991   0.39484   0.64507   0.00000  Uiso   1.00
O260   O     0.07321   0.15626   0.33490   0.00000  Uiso   1.00
O261   O     0.46963   0.25000   0.33755   0.00000  Uiso   1.00
O262   O     0.04809   0.10176   0.31854   0.00000  Uiso   1.00
O263   O     0.44800   0.35660   0.67959   0.00000  Uiso   1.00
O264   O     0.39579   0.35141   0.64501   0.00000  Uiso   1.00
O265   O     0.15415   0.38954   0.35101   0.00000  Uiso   1.00
O266   O     0.15131   0.44614   0.32465   0.00000  Uiso   1.00
O267   O     0.27639   0.13541   0.76836   0.00000  Uiso   1.00
O268   O     0.30447   0.15264   0.82397   0.00000  Uiso   1.00
O269   O     0.01927   0.32230   0.36593   0.00000  Uiso   1.00
O270   O     0.48268   0.34810   0.41115   0.00000  Uiso   1.00
O271   O     0.00729   0.17364   0.63072   0.00000  Uiso   1.00
O272   O     0.03036   0.25000   0.66245   0.00000  Uiso   1.00
O273   O     0.45696   0.16258   0.59464   0.00000  Uiso   1.00
O274   O     0.18109   0.03207   0.36975   0.00000  Uiso   1.00
O275   O     0.15194   0.49131   0.40831   0.00000  Uiso   1.00
O276   O     0.32392   0.48680   0.63366   0.00000  Uiso   1.00
O277   O     0.34540   0.02736   0.58966   0.00000  Uiso   1.00
O278   O     0.00574   0.17404   0.36854   0.00000  Uiso   1.00
O279   O     0.45934   0.16004   0.40934   0.00000  Uiso   1.00
O280   O     0.01646   0.32319   0.63431   0.00000  Uiso   1.00
O281   O     0.47914   0.34741   0.58896   0.00000  Uiso   1.00
O282   O     0.32145   0.47614   0.36717   0.00000  Uiso   1.00
O283   O     0.00000   0.21964   0.83755   0.00000  Uiso   1.00
O284   O     0.34809   0.01629   0.40808   0.00000  Uiso   1.00
O285   O     0.17674   0.01107   0.63460   0.00000  Uiso   1.00
O286   O     0.15395   0.47580   0.58658   0.00000  Uiso   1.00
O287   O     0.28152   0.07133   0.87060   0.00000  Uiso   1.00
O288   O     0.23547   0.09782   0.90426   0.00000  Uiso   1.00
O289   O     0.23578   0.42705   0.13347   0.00000  Uiso   1.00
O290   O     0.27211   0.40285   0.08701   0.00000  Uiso   1.00
O291   O     0.42462   0.26152   0.86805   0.00000  Uiso   1.00
O292   O     0.40839   0.21413   0.90664   0.00000  Uiso   1.00
O293   O     0.07148   0.26882   0.13354   0.00000  Uiso   1.00
O294   O     0.00000   0.28037   0.16245   0.00000  Uiso   1.00
O295   O     0.09657   0.22991   0.09013   0.00000  Uiso   1.00
O296   O     0.23340   0.42746   0.86588   0.00000  Uiso   1.00
O297   O     0.27154   0.40328   0.91050   0.00000  Uiso   1.00
O298   O     0.25924   0.07482   0.13318   0.00000  Uiso   1.00
O299   O     0.21988   0.09463   0.08725   0.00000  Uiso   1.00
O300   O     0.07439   0.26054   0.86745   0.00000  Uiso   1.00
O301   O     0.09308   0.21955   0.91247   0.00000  Uiso   1.00
O302   O     0.42589   0.26833   0.13213   0.00000  Uiso   1.00
O303   O     0.40442   0.22279   0.09420   0.00000  Uiso   1.00
O304   O     0.28036  -0.00000   0.83755   0.00000  Uiso   1.00
O305   O     0.21963  -0.00000   0.16245   0.00000  Uiso   1.00
O306   O     0.00000   0.28037   0.83755   0.00000  Uiso   1.00
O307   O     0.00000   0.21964   0.16245   0.00000  Uiso   1.00
O308   O     0.21963  -0.00000   0.83755   0.00000  Uiso   1.00
O309   O     0.25000  -0.00000   0.75000   0.00000  Uiso   1.00
O310   O     0.28036  -0.00000   0.16245   0.00000  Uiso   1.00
O311   O     0.20724   0.07307   0.27302   0.00000  Uiso   1.00
O312   O     0.29275   0.42692   0.72698   0.00000  Uiso   1.00
O313   O     0.42692   0.20724   0.27302   0.00000  Uiso   1.00
O314   O     0.07307   0.29275   0.72698   0.00000  Uiso   1.00
O315   O     0.29275   0.42692   0.27302   0.00000  Uiso   1.00
O316   O     0.20724   0.07307   0.72698   0.00000  Uiso   1.00
O317   O     0.07307   0.29275   0.27302   0.00000  Uiso   1.00
O318   O     0.42692   0.20724   0.72698   0.00000  Uiso   1.00
O319   O     0.20724   0.42692   0.72698   0.00000  Uiso   1.00
O320   O     0.00000   0.25000   0.25000   0.00000  Uiso   1.00
O321   O     0.29275   0.07307   0.27302   0.00000  Uiso   1.00
O322   O     0.42692   0.29275   0.72698   0.00000  Uiso   1.00
O323   O     0.07307   0.20724   0.27302   0.00000  Uiso   1.00
O324   O     0.29275   0.07307   0.72698   0.00000  Uiso   1.00
O325   O     0.20724   0.42692   0.27302   0.00000  Uiso   1.00
O326   O     0.07307   0.20724   0.72698   0.00000  Uiso   1.00
O327   O     0.42692   0.29275   0.27302   0.00000  Uiso   1.00
O328   O     0.45724   0.32307   0.77302   0.00000  Uiso   1.00
O329   O     0.04275   0.17692   0.22698   0.00000  Uiso   1.00
O330   O     0.17692   0.45724   0.77302   0.00000  Uiso   1.00
O331   O    -0.00000   0.25000   0.75000   0.00000  Uiso   1.00
O332   O     0.32307   0.04275   0.22698   0.00000  Uiso   1.00
O333   O     0.04275   0.17692   0.77302   0.00000  Uiso   1.00
O334   O     0.45724   0.32307   0.22698   0.00000  Uiso   1.00
O335   O     0.32307   0.04275   0.77302   0.00000  Uiso   1.00
O336   O     0.17692   0.45724   0.22698   0.00000  Uiso   1.00
O337   O     0.45724   0.17692   0.22698   0.00000  Uiso   1.00
O338   O     0.04275   0.32308   0.77302   0.00000  Uiso   1.00
O339   O     0.17692   0.04275   0.22698   0.00000  Uiso   1.00
O340   O     0.32307   0.45724   0.77302   0.00000  Uiso   1.00
O341   O     0.04275   0.32308   0.22698   0.00000  Uiso   1.00
O342   O     0.25000   0.46963   0.33755   0.00000  Uiso   1.00
O343   O     0.45724   0.17692   0.77302   0.00000  Uiso   1.00
O344   O     0.32307   0.45724   0.22698   0.00000  Uiso   1.00
O345   O     0.17692   0.04275   0.77302   0.00000  Uiso   1.00
O346   O     0.19570   0.38497   0.17833   0.00000  Uiso   1.00
O347   O     0.14576   0.40610   0.14661   0.00000  Uiso   1.00
O348   O     0.36817   0.03936   0.69472   0.00000  Uiso   1.00
O349   O     0.42143   0.03476   0.72746   0.00000  Uiso   1.00
O350   O     0.11078   0.20380   0.18446   0.00000  Uiso   1.00
O351   O     0.11860   0.15378   0.14636   0.00000  Uiso   1.00
O352   O     0.41788   0.33586   0.83756   0.00000  Uiso   1.00
O353   O     0.25000   0.03036   0.66245   0.00000  Uiso   1.00
O354   O     0.35988   0.31459   0.83616   0.00000  Uiso   1.00
O355   O     0.32206   0.09778   0.16646   0.00000  Uiso   1.00
O356   O     0.37709   0.07186   0.15456   0.00000  Uiso   1.00
O357   O     0.16118   0.41813   0.83807   0.00000  Uiso   1.00
O358   O     0.18580   0.36123   0.83583   0.00000  Uiso   1.00
O359   O     0.38485   0.32907   0.15816   0.00000  Uiso   1.00
O360   O     0.43797   0.36046   0.16237   0.00000  Uiso   1.00
O361   O     0.09448   0.18534   0.83025   0.00000  Uiso   1.00
O362   O     0.15470   0.19596   0.82068   0.00000  Uiso   1.00
O363   O     0.20369   0.11024   0.81497   0.00000  Uiso   1.00
O364   O     0.03036   0.25000   0.33755   0.00000  Uiso   1.00
O365   O     0.15458   0.11747   0.85429   0.00000  Uiso   1.00
O366   O     0.37709   0.42061   0.15564   0.00000  Uiso   1.00
O367   O     0.31718   0.41030   0.16664   0.00000  Uiso   1.00
O368   O     0.11444   0.29898   0.81612   0.00000  Uiso   1.00
O369   O     0.10310   0.34839   0.85416   0.00000  Uiso   1.00
O370   O     0.44380   0.12670   0.17307   0.00000  Uiso   1.00
O371   O     0.39615   0.15878   0.14883   0.00000  Uiso   1.00
O372   O     0.30218   0.39374   0.82063   0.00000  Uiso   1.00
O373   O     0.35455   0.39854   0.85503   0.00000  Uiso   1.00
O374   O     0.18801   0.09595   0.17194   0.00000  Uiso   1.00
O375   O     0.46963   0.25000   0.66245   0.00000  Uiso   1.00
O376   O     0.19663   0.15668   0.18098   0.00000  Uiso   1.00
O377   O     0.47360   0.11378   0.73377   0.00000  Uiso   1.00
O378   O     0.44666   0.09654   0.67753   0.00000  Uiso   1.00
O379   O     0.07699   0.34427   0.16207   0.00000  Uiso   1.00
O380   O     0.13352   0.31920   0.15941   0.00000  Uiso   1.00
O381   O     0.38190   0.21114   0.80463   0.00000  Uiso   1.00
O382   O     0.32797   0.21479   0.77307   0.00000  Uiso   1.00
O383   O     0.06902   0.37400   0.33707   0.00000  Uiso   1.00
O384   O     0.10199   0.32155   0.34114   0.00000  Uiso   1.00
O385   O     0.33184   0.41302   0.66223   0.00000  Uiso   1.00
O386   O     0.25000   0.03036   0.33755   0.00000  Uiso   1.00
O387   O     0.38946   0.43536   0.66368   0.00000  Uiso   1.00
O388   O     0.13036   0.03920   0.30462   0.00000  Uiso   1.00
O389   O     0.12039   0.08218   0.35083   0.00000  Uiso   1.00
O390   O     0.08789   0.33149   0.66204   0.00000  Uiso   1.00
O391   O     0.06568   0.38939   0.66254   0.00000  Uiso   1.00
O392   O     0.43115   0.15531   0.33067   0.00000  Uiso   1.00
O393   O     0.37420   0.17147   0.34954   0.00000  Uiso   1.00
O394   O     0.16064   0.07969   0.66321   0.00000  Uiso   1.00
O395   O     0.10519   0.05413   0.67384   0.00000  Uiso   1.00
O396   O     0.36526   0.41913   0.34293   0.00000  Uiso   1.00
Zn397  Zn    0.20659  -0.00000   0.21735   0.00000  Uiso   1.00
Zn398  Zn    0.04340   0.25000   0.28265   0.00000  Uiso   1.00
Zn399  Zn    0.25000   0.45659   0.71735   0.00000  Uiso   1.00
Zn400  Zn    0.25000   0.04340   0.28265   0.00000  Uiso   1.00
Zn401  Zn    0.04340   0.25000   0.71735   0.00000  Uiso   1.00
Zn402  Zn    0.45659   0.25000   0.28265   0.00000  Uiso   1.00
Zn403  Zn    0.25000   0.04340   0.71735   0.00000  Uiso   1.00
Zn404  Zn    0.25000   0.45659   0.28265   0.00000  Uiso   1.00
Zn405  Zn    0.29340  -0.00000   0.78265   0.00000  Uiso   1.00
Zn406  Zn    0.00000   0.20660   0.21735   0.00000  Uiso   1.00
Zn407  Zn   -0.00000   0.29340   0.78265   0.00000  Uiso   1.00
Zn408  Zn    0.29340  -0.00000   0.21735   0.00000  Uiso   1.00
Zn409  Zn    0.20659  -0.00000   0.78265   0.00000  Uiso   1.00
Zn410  Zn    0.00000   0.29341   0.21735   0.00000  Uiso   1.00
Zn411  Zn   -0.00000   0.20659   0.78265   0.00000  Uiso   1.00
Zn412  Zn    0.45659   0.25000   0.71735   0.00000  Uiso   1.00
C413   C     0.50414   0.28354   0.41823   0.00000  Uiso   1.00
C414   C     0.74829   0.46662   0.08138   0.00000  Uiso   1.00
C415   C     0.71756   0.00530   0.54136   0.00000  Uiso   1.00
C416   C     0.50614   0.28317   0.45913   0.00000  Uiso   1.00
C417   C     0.99702   0.21701   0.54133   0.00000  Uiso   1.00
C418   C     0.71788   0.00774   0.45947   0.00000  Uiso   1.00
C419   C     0.78361   0.49691   0.54129   0.00000  Uiso   1.00
C420   C     0.74515   0.46726   0.95864   0.00000  Uiso   1.00
C421   C     0.75269   0.03344   0.04082   0.00000  Uiso   1.00
C422   C     0.53242   0.25326   0.95908   0.00000  Uiso   1.00
C423   C     0.96571   0.25099   0.04118   0.00000  Uiso   1.00
C424   C     0.75488   0.03349   0.95877   0.00000  Uiso   1.00
C425   C     0.96614   0.24831   0.91801   0.00000  Uiso   1.00
C426   C     0.74521   0.46712   0.04061   0.00000  Uiso   1.00
C427   C     0.96591   0.24985   0.95894   0.00000  Uiso   1.00
C428   C     0.53240   0.25450   0.04101   0.00000  Uiso   1.00
C429   C     0.59805   0.34815   0.24991   0.00000  Uiso   1.00
C430   C     0.90227   0.15155   0.75060   0.00000  Uiso   1.00
C431   C     0.65147   0.09758   0.25007   0.00000  Uiso   1.00
C432   C     0.84769   0.40155   0.74950   0.00000  Uiso   1.00
C433   C     0.90325   0.15051   0.25032   0.00000  Uiso   1.00
C434   C     0.59841   0.34781   0.74917   0.00000  Uiso   1.00
C435   C     0.84788   0.40166   0.24996   0.00000  Uiso   1.00
C436   C     0.53273   0.25265   0.08187   0.00000  Uiso   1.00
C437   C     0.65237   0.09856   0.74976   0.00000  Uiso   1.00
C438   C     0.59784   0.15178   0.75033   0.00000  Uiso   1.00
C439   C     0.90223   0.34829   0.25008   0.00000  Uiso   1.00
C440   C     0.65156   0.40237   0.75027   0.00000  Uiso   1.00
C441   C     0.84745   0.09877   0.25000   0.00000  Uiso   1.00
C442   C     0.90229   0.34840   0.75053   0.00000  Uiso   1.00
C443   C     0.59824   0.15214   0.24997   0.00000  Uiso   1.00
C444   C     0.84768   0.09844   0.74952   0.00000  Uiso   1.00
C445   C     0.65220   0.40171   0.25026   0.00000  Uiso   1.00
C446   C     0.50151   0.25007   0.47963   0.00000  Uiso   1.00
C447   C     0.74757   0.46685   0.91785   0.00000  Uiso   1.00
C448   C     0.50136   0.25014   0.52080   0.00000  Uiso   1.00
C449   C     0.75067   0.00135   0.47972   0.00000  Uiso   1.00
C450   C     0.75063   0.00114   0.52085   0.00000  Uiso   1.00
C451   C     0.74964   0.00039   0.97913   0.00000  Uiso   1.00
C452   C     0.74925   0.00032   0.02025   0.00000  Uiso   1.00
C453   C     0.99911   0.25172   0.97949   0.00000  Uiso   1.00
C454   C     0.99907   0.25215   0.02066   0.00000  Uiso   1.00
C455   C     0.66332   0.39222   0.17932   0.00000  Uiso   1.00
C456   C     0.88970   0.05337   0.71719   0.00000  Uiso   1.00
C457   C     0.61682   0.17107   0.18245   0.00000  Uiso   1.00
C458   C     0.74965   0.03365   0.08159   0.00000  Uiso   1.00
C459   C     0.88870   0.33478   0.82077   0.00000  Uiso   1.00
C460   C     0.85309   0.09222   0.17741   0.00000  Uiso   1.00
C461   C     0.66430   0.38926   0.82070   0.00000  Uiso   1.00
C462   C     0.90427   0.34943   0.17696   0.00000  Uiso   1.00
C463   C     0.62225   0.17774   0.81251   0.00000  Uiso   1.00
C464   C     0.67105   0.11595   0.81775   0.00000  Uiso   1.00
C465   C     0.85370   0.40812   0.17710   0.00000  Uiso   1.00
C466   C     0.61139   0.33207   0.81858   0.00000  Uiso   1.00
C467   C     0.91355   0.13963   0.17840   0.00000  Uiso   1.00
C468   C     0.83537   0.39208   0.82077   0.00000  Uiso   1.00
C469   C     0.53285   0.25038   0.91838   0.00000  Uiso   1.00
C470   C     0.67932   0.12367   0.18929   0.00000  Uiso   1.00
C471   C     0.94543   0.10935   0.71568   0.00000  Uiso   1.00
C472   C     0.60644   0.33980   0.17766   0.00000  Uiso   1.00
C473   C     0.86013   0.19667   0.78279   0.00000  Uiso   1.00
C474   C     0.59138   0.35357   0.32232   0.00000  Uiso   1.00
C475   C     0.86094   0.41478   0.67912   0.00000  Uiso   1.00
C476   C     0.62617   0.07146   0.31238   0.00000  Uiso   1.00
C477   C     0.58578   0.36083   0.67867   0.00000  Uiso   1.00
C478   C     0.89876   0.15628   0.32308   0.00000  Uiso   1.00
C479   C     0.63335   0.07801   0.68338   0.00000  Uiso   1.00
C480   C     0.96577   0.25020   0.08215   0.00000  Uiso   1.00
C481   C     0.84552   0.39992   0.32314   0.00000  Uiso   1.00
C482   C     0.89761   0.34264   0.32302   0.00000  Uiso   1.00
C483   C     0.57593   0.13169   0.68460   0.00000  Uiso   1.00
C484   C     0.83978   0.10602   0.32243   0.00000  Uiso   1.00
C485   C     0.64257   0.41440   0.67900   0.00000  Uiso   1.00
C486   C     0.57310   0.12996   0.31316   0.00000  Uiso   1.00
C487   C     0.91481   0.35802   0.67934   0.00000  Uiso   1.00
C488   C     0.64738   0.40835   0.32265   0.00000  Uiso   1.00
C489   C     0.80494   0.14011   0.78569   0.00000  Uiso   1.00
C490   C     0.50316   0.31892   0.39670   0.00000  Uiso   1.00
C491   C     0.50015   0.25014   0.39813   0.00000  Uiso   1.00
C492   C     0.98763   0.18318   0.60410   0.00000  Uiso   1.00
C493   C     0.68275   0.01104   0.39712   0.00000  Uiso   1.00
C494   C     0.81874   0.00355   0.60357   0.00000  Uiso   1.00
C495   C     0.98770   0.18257   0.39689   0.00000  Uiso   1.00
C496   C     0.50065   0.31913   0.60354   0.00000  Uiso   1.00
C497   C     0.81861   0.49512   0.39610   0.00000  Uiso   1.00
C498   C     0.68156   0.49691   0.60297   0.00000  Uiso   1.00
C499   C     0.75831   0.06841   0.89584   0.00000  Uiso   1.00
C500   C     0.75111   0.43122   0.10241   0.00000  Uiso   1.00
C501   C     0.93185   0.24238   0.89597   0.00000  Uiso   1.00
C502   C     0.50012   0.25040   0.60215   0.00000  Uiso   1.00
C503   C     0.56783   0.25139   0.10363   0.00000  Uiso   1.00
C504   C     0.74980   0.43156   0.89629   0.00000  Uiso   1.00
C505   C     0.74380   0.06874   0.10257   0.00000  Uiso   1.00
C506   C     0.56784   0.24436   0.89755   0.00000  Uiso   1.00
C507   C     0.93104   0.24811   0.10451   0.00000  Uiso   1.00
C508   C     0.75036   0.00052   0.39824   0.00000  Uiso   1.00
C509   C     0.99575   0.21719   0.58215   0.00000  Uiso   1.00
C510   C     0.75025   0.00008   0.60215   0.00000  Uiso   1.00
C511   C     0.75039   0.00030   0.89782   0.00000  Uiso   1.00
C512   C     0.74970   0.00010   0.10177   0.00000  Uiso   1.00
C513   C     0.99964   0.24998   0.89805   0.00000  Uiso   1.00
C514   C     0.99933   0.25078   0.10202   0.00000  Uiso   1.00
C515   C     0.99621   0.18410   0.48040   0.00000  Uiso   1.00
C516   C     0.51375   0.31510   0.52026   0.00000  Uiso   1.00
C517   C     0.81533   0.48795   0.48025   0.00000  Uiso   1.00
C518   C     0.68606   0.01455   0.52079   0.00000  Uiso   1.00
C519   C     0.51423   0.31497   0.48013   0.00000  Uiso   1.00
C520   C     0.71750   0.00649   0.41862   0.00000  Uiso   1.00
C521   C     0.99580   0.18418   0.52050   0.00000  Uiso   1.00
C522   C     0.68635   0.01632   0.48075   0.00000  Uiso   1.00
C523   C     0.81550   0.48924   0.52042   0.00000  Uiso   1.00
C524   C     0.73712   0.43540   0.97951   0.00000  Uiso   1.00
C525   C     0.75992   0.06559   0.02010   0.00000  Uiso   1.00
C526   C     0.56460   0.25940   0.97981   0.00000  Uiso   1.00
C527   C     0.93309   0.25228   0.02004   0.00000  Uiso   1.00
C528   C     0.76127   0.06557   0.97996   0.00000  Uiso   1.00
C529   C     0.73723   0.43531   0.01963   0.00000  Uiso   1.00
C530   C     0.93318   0.25143   0.97986   0.00000  Uiso   1.00
C531   C     0.78379   0.49954   0.58209   0.00000  Uiso   1.00
C532   C     0.56454   0.26030   0.01986   0.00000  Uiso   1.00
C533   C     0.75002   0.00007   0.35578   0.00000  Uiso   1.00
C534   C     0.75011   0.00000   0.64434   0.00000  Uiso   1.00
C535   C     0.99995   0.24998   0.35573   0.00000  Uiso   1.00
C536   C     0.50000   0.25019   0.64438   0.00000  Uiso   1.00
C537   C     0.99995   0.24995   0.85572   0.00000  Uiso   1.00
C538   C     0.99952   0.25006   0.14432   0.00000  Uiso   1.00
C539   C     0.75005   0.00041   0.85561   0.00000  Uiso   1.00
C540   C     0.74998   0.00009   0.14424   0.00000  Uiso   1.00
C541   C     0.67989   0.06979   0.25024   0.00000  Uiso   1.00
C542   C     0.99574   0.21692   0.41838   0.00000  Uiso   1.00
C543   C     0.82019   0.43029   0.74941   0.00000  Uiso   1.00
C544   C     0.93020   0.17979   0.24994   0.00000  Uiso   1.00
C545   C     0.56968   0.32029   0.74932   0.00000  Uiso   1.00
C546   C     0.82004   0.43006   0.25014   0.00000  Uiso   1.00
C547   C     0.67995   0.06989   0.74974   0.00000  Uiso   1.00
C548   C     0.56999   0.31997   0.24990   0.00000  Uiso   1.00
C549   C     0.93033   0.17975   0.74977   0.00000  Uiso   1.00
C550   C     0.68025   0.42983   0.75046   0.00000  Uiso   1.00
C551   C     0.81985   0.07013   0.25002   0.00000  Uiso   1.00
C552   C     0.92980   0.31969   0.75061   0.00000  Uiso   1.00
C553   C     0.50320   0.28381   0.58206   0.00000  Uiso   1.00
C554   C     0.56998   0.18010   0.24990   0.00000  Uiso   1.00
C555   C     0.81966   0.07025   0.75025   0.00000  Uiso   1.00
C556   C     0.68018   0.42993   0.24995   0.00000  Uiso   1.00
C557   C     0.57003   0.18015   0.75021   0.00000  Uiso   1.00
C558   C     0.93000   0.31991   0.24987   0.00000  Uiso   1.00
C559   C     0.64245   0.38478   0.21517   0.00000  Uiso   1.00
C560   C     0.88218   0.09023   0.73368   0.00000  Uiso   1.00
C561   C     0.62221   0.14900   0.21815   0.00000  Uiso   1.00
C562   C     0.88293   0.35644   0.78495   0.00000  Uiso   1.00
C563   C     0.86535   0.10760   0.21501   0.00000  Uiso   1.00
C564   C     0.78366   0.49638   0.41817   0.00000  Uiso   1.00
C565   C     0.64352   0.38288   0.78456   0.00000  Uiso   1.00
C566   C     0.89103   0.36389   0.21463   0.00000  Uiso   1.00
C567   C     0.62196   0.14915   0.78197   0.00000  Uiso   1.00
C568   C     0.64845   0.12145   0.78243   0.00000  Uiso   1.00
C569   C     0.86425   0.39102   0.21456   0.00000  Uiso   1.00
C570   C     0.61746   0.35498   0.78371   0.00000  Uiso   1.00
C571   C     0.89410   0.13246   0.21536   0.00000  Uiso   1.00
C572   C     0.85555   0.38318   0.78446   0.00000  Uiso   1.00
C573   C     0.65008   0.12276   0.21916   0.00000  Uiso   1.00
C574   C     0.90969   0.11691   0.73435   0.00000  Uiso   1.00
C575   C     0.71690   0.00136   0.58199   0.00000  Uiso   1.00
C576   C     0.61482   0.35852   0.21471   0.00000  Uiso   1.00
C577   C     0.86776   0.15976   0.76647   0.00000  Uiso   1.00
C578   C     0.60907   0.36393   0.28538   0.00000  Uiso   1.00
C579   C     0.86698   0.39342   0.71507   0.00000  Uiso   1.00
C580   C     0.62605   0.09926   0.28084   0.00000  Uiso   1.00
C581   C     0.60654   0.36720   0.71482   0.00000  Uiso   1.00
C582   C     0.88572   0.14134   0.28547   0.00000  Uiso   1.00
C583   C     0.62942   0.10251   0.71728   0.00000  Uiso   1.00
C584   C     0.85904   0.38593   0.28542   0.00000  Uiso   1.00
C585   C     0.88616   0.35911   0.28551   0.00000  Uiso   1.00
C586   C     0.75447   0.03362   0.91786   0.00000  Uiso   1.00
C587   C     0.60133   0.12851   0.71798   0.00000  Uiso   1.00
C588   C     0.85733   0.11594   0.28518   0.00000  Uiso   1.00
C589   C     0.63334   0.39447   0.71531   0.00000  Uiso   1.00
C590   C     0.60016   0.12758   0.28133   0.00000  Uiso   1.00
C591   C     0.89447   0.36679   0.71559   0.00000  Uiso   1.00
C592   C     0.63600   0.39106   0.28558   0.00000  Uiso   1.00
C593   C     0.84034   0.13296   0.76608   0.00000  Uiso   1.00
C594   C     0.99727   0.21686   0.45927   0.00000  Uiso   1.00
C595   C     0.50556   0.28334   0.54122   0.00000  Uiso   1.00
C596   C     0.78352   0.49548   0.45915   0.00000  Uiso   1.00
H597   H     0.99645   0.15777   0.46638   0.00000  Uiso   1.00
H598   H     0.76562   0.09103   0.03471   0.00000  Uiso   1.00
H599   H     0.59018   0.26455   0.96532   0.00000  Uiso   1.00
H600   H     0.90693   0.25469   0.03403   0.00000  Uiso   1.00
H601   H     0.76780   0.09108   0.96594   0.00000  Uiso   1.00
H602   H     0.73009   0.41007   0.03389   0.00000  Uiso   1.00
H603   H     0.90715   0.25294   0.96548   0.00000  Uiso   1.00
H604   H     0.59006   0.26643   0.03377   0.00000  Uiso   1.00
H605   H     0.66283   0.40930   0.12376   0.00000  Uiso   1.00
H606   H     0.92345   0.01007   0.71442   0.00000  Uiso   1.00
H607   H     0.61417   0.17091   0.12393   0.00000  Uiso   1.00
H608   H     0.52088   0.34030   0.53459   0.00000  Uiso   1.00
H609   H     0.86623   0.30242   0.86162   0.00000  Uiso   1.00
H610   H     0.86548   0.06299   0.12967   0.00000  Uiso   1.00
H611   H     0.69665   0.36757   0.86192   0.00000  Uiso   1.00
H612   H     0.94374   0.34898   0.13633   0.00000  Uiso   1.00
H613   H     0.65163   0.21576   0.84087   0.00000  Uiso   1.00
H614   H     0.67234   0.11341   0.87622   0.00000  Uiso   1.00
H615   H     0.81388   0.42501   0.14210   0.00000  Uiso   1.00
H616   H     0.60027   0.32997   0.87585   0.00000  Uiso   1.00
H617   H     0.91120   0.15935   0.12420   0.00000  Uiso   1.00
H618   H     0.83803   0.40465   0.87765   0.00000  Uiso   1.00
H619   H     0.84047   0.48041   0.46612   0.00000  Uiso   1.00
H620   H     0.71653   0.15402   0.16083   0.00000  Uiso   1.00
H621   H     0.97241   0.09217   0.66810   0.00000  Uiso   1.00
H622   H     0.62630   0.31080   0.13254   0.00000  Uiso   1.00
H623   H     0.82589   0.23956   0.78593   0.00000  Uiso   1.00
H624   H     0.58975   0.31836   0.36726   0.00000  Uiso   1.00
H625   H     0.88303   0.44714   0.63803   0.00000  Uiso   1.00
H626   H     0.61756   0.06079   0.36914   0.00000  Uiso   1.00
H627   H     0.55463   0.38283   0.63660   0.00000  Uiso   1.00
H628   H     0.88655   0.18067   0.37388   0.00000  Uiso   1.00
H629   H     0.61044   0.03960   0.64947   0.00000  Uiso   1.00
H630   H     0.66102   0.02165   0.53545   0.00000  Uiso   1.00
H631   H     0.80562   0.40002   0.36333   0.00000  Uiso   1.00
H632   H     0.93843   0.32720   0.35765   0.00000  Uiso   1.00
H633   H     0.56969   0.13442   0.62654   0.00000  Uiso   1.00
H634   H     0.84311   0.07846   0.37257   0.00000  Uiso   1.00
H635   H     0.65635   0.41119   0.62243   0.00000  Uiso   1.00
H636   H     0.53133   0.10624   0.34142   0.00000  Uiso   1.00
H637   H     0.91243   0.34544   0.62245   0.00000  Uiso   1.00
H638   H     0.66338   0.45394   0.34955   0.00000  Uiso   1.00
H639   H     0.77890   0.15667   0.83412   0.00000  Uiso   1.00
H640   H     0.98420   0.37055   0.39409   0.00000  Uiso   1.00
H641   H     0.52190   0.34007   0.46594   0.00000  Uiso   1.00
H642   H     0.95423   0.14018   0.61158   0.00000  Uiso   1.00
H643   H     0.62988   0.49717   0.39191   0.00000  Uiso   1.00
H644   H     0.86776   0.02794   0.60676   0.00000  Uiso   1.00
H645   H     0.95854   0.13601   0.39486   0.00000  Uiso   1.00
H646   H     0.97977   0.36999   0.60588   0.00000  Uiso   1.00
H647   H     0.87024   0.01295   0.39091   0.00000  Uiso   1.00
H648   H     0.63115   0.47525   0.60312   0.00000  Uiso   1.00
H649   H     0.74117   0.12008   0.88795   0.00000  Uiso   1.00
H650   H     0.77166   0.38016   0.10379   0.00000  Uiso   1.00
H651   H     0.88615   0.21270   0.88942   0.00000  Uiso   1.00
H652   H     0.99530   0.15801   0.53489   0.00000  Uiso   1.00
H653   H     0.61942   0.23309   0.10614   0.00000  Uiso   1.00
H654   H     0.77054   0.38065   0.89368   0.00000  Uiso   1.00
H655   H     0.71890   0.11783   0.10312   0.00000  Uiso   1.00
H656   H     0.61652   0.21892   0.89710   0.00000  Uiso   1.00
H657   H     0.88190   0.22463   0.11107   0.00000  Uiso   1.00
H658   H     0.66146   0.02487   0.46695   0.00000  Uiso   1.00
H659   H     0.84078   0.48301   0.53495   0.00000  Uiso   1.00
H660   H     0.72998   0.41022   0.96515   0.00000  Uiso   1.00
O661   O     0.75000  -0.00000   0.25000   0.00000  Uiso   1.00
O662   O     0.75000   0.46963   0.66245   0.00000  Uiso   1.00
O663   O     0.81139   0.38929   0.33693   0.00000  Uiso   1.00
O664   O     0.87481   0.33006   0.34514   0.00000  Uiso   1.00
O665   O     0.93438   0.34117   0.33275   0.00000  Uiso   1.00
O666   O     0.54316   0.13292   0.69029   0.00000  Uiso   1.00
O667   O     0.58958   0.13296   0.64675   0.00000  Uiso   1.00
O668   O     0.81092   0.12016   0.33164   0.00000  Uiso   1.00
O669   O     0.85708   0.08173   0.34747   0.00000  Uiso   1.00
O670   O     0.64378   0.44770   0.67887   0.00000  Uiso   1.00
O671   O     0.64991   0.39484   0.64507   0.00000  Uiso   1.00
O672   O     0.57321   0.15626   0.33490   0.00000  Uiso   1.00
O673   O     0.96963   0.25000   0.33755   0.00000  Uiso   1.00
O674   O     0.54809   0.10176   0.31854   0.00000  Uiso   1.00
O675   O     0.94800   0.35660   0.67959   0.00000  Uiso   1.00
O676   O     0.89579   0.35141   0.64501   0.00000  Uiso   1.00
O677   O     0.65415   0.38954   0.35101   0.00000  Uiso   1.00
O678   O     0.65131   0.44614   0.32465   0.00000  Uiso   1.00
O679   O     0.77639   0.13541   0.76836   0.00000  Uiso   1.00
O680   O     0.80447   0.15264   0.82397   0.00000  Uiso   1.00
O681   O     0.51927   0.32230   0.36593   0.00000  Uiso   1.00
O682   O     0.98268   0.34810   0.41115   0.00000  Uiso   1.00
O683   O     0.50729   0.17364   0.63072   0.00000  Uiso   1.00
O684   O     0.53036   0.25000   0.66245   0.00000  Uiso   1.00
O685   O     0.95696   0.16258   0.59464   0.00000  Uiso   1.00
O686   O     0.68109   0.03207   0.36975   0.00000  Uiso   1.00
O687   O     0.65194   0.49131   0.40831   0.00000  Uiso   1.00
O688   O     0.82392   0.48680   0.63366   0.00000  Uiso   1.00
O689   O     0.84540   0.02736   0.58966   0.00000  Uiso   1.00
O690   O     0.50574   0.17404   0.36854   0.00000  Uiso   1.00
O691   O     0.95934   0.16004   0.40934   0.00000  Uiso   1.00
O692   O     0.51646   0.32319   0.63431   0.00000  Uiso   1.00
O693   O     0.97914   0.34741   0.58896   0.00000  Uiso   1.00
O694   O     0.82145   0.47614   0.36717   0.00000  Uiso   1.00
O695   O     0.50000   0.21964   0.83755   0.00000  Uiso   1.00
O696   O     0.84809   0.01629   0.40808   0.00000  Uiso   1.00
O697   O     0.67674   0.01107   0.63460   0.00000  Uiso   1.00
O698   O     0.65395   0.47580   0.58658   0.00000  Uiso   1.00
O699   O     0.78152   0.07133   0.87060   0.00000  Uiso   1.00
O700   O     0.73547   0.09782   0.90426   0.00000  Uiso   1.00
O701   O     0.73578   0.42705   0.13347   0.00000  Uiso   1.00
O702   O     0.77211   0.40285   0.08701   0.00000  Uiso   1.00
O703   O     0.92462   0.26152   0.86805   0.00000  Uiso   1.00
O704   O     0.90839   0.21413   0.90664   0.00000  Uiso   1.00
O705   O     0.57148   0.26882   0.13354   0.00000  Uiso   1.00
O706   O     0.50000   0.28037   0.16245   0.00000  Uiso   1.00
O707   O     0.59657   0.22991   0.09013   0.00000  Uiso   1.00
O708   O     0.73340   0.42746   0.86588   0.00000  Uiso   1.00
O709   O     0.77154   0.40328   0.91050   0.00000  Uiso   1.00
O710   O     0.75924   0.07482   0.13318   0.00000  Uiso   1.00
O711   O     0.71988   0.09463   0.08725   0.00000  Uiso   1.00
O712   O     0.57439   0.26054   0.86745   0.00000  Uiso   1.00
O713   O     0.59308   0.21955   0.91247   0.00000  Uiso   1.00
O714   O     0.92589   0.26833   0.13213   0.00000  Uiso   1.00
O715   O     0.90442   0.22279   0.09420   0.00000  Uiso   1.00
O716   O     0.78036  -0.00000   0.83755   0.00000  Uiso   1.00
O717   O     0.71963  -0.00000   0.16245   0.00000  Uiso   1.00
O718   O     0.50000   0.28037   0.83755   0.00000  Uiso   1.00
O719   O     0.50000   0.21964   0.16245   0.00000  Uiso   1.00
O720   O     0.71963  -0.00000   0.83755   0.00000  Uiso   1.00
O721   O     0.75000  -0.00000   0.75000   0.00000  Uiso   1.00
O722   O     0.78036  -0.00000   0.16245   0.00000  Uiso   1.00
O723   O     0.70724   0.07307   0.27302   0.00000  Uiso   1.00
O724   O     0.79275   0.42692   0.72698   0.00000  Uiso   1.00
O725   O     0.92692   0.20724   0.27302   0.00000  Uiso   1.00
O726   O     0.57307   0.29275   0.72698   0.00000  Uiso   1.00
O727   O     0.79275   0.42692   0.27302   0.00000  Uiso   1.00
O728   O     0.70724   0.07307   0.72698   0.00000  Uiso   1.00
O729   O     0.57307   0.29275   0.27302   0.00000  Uiso   1.00
O730   O     0.92692   0.20724   0.72698   0.00000  Uiso   1.00
O731   O     0.70724   0.42692   0.72698   0.00000  Uiso   1.00
O732   O     0.50000   0.25000   0.25000   0.00000  Uiso   1.00
O733   O     0.79275   0.07307   0.27302   0.00000  Uiso   1.00
O734   O     0.92692   0.29275   0.72698   0.00000  Uiso   1.00
O735   O     0.57307   0.20724   0.27302   0.00000  Uiso   1.00
O736   O     0.79275   0.07307   0.72698   0.00000  Uiso   1.00
O737   O     0.70724   0.42692   0.27302   0.00000  Uiso   1.00
O738   O     0.57307   0.20724   0.72698   0.00000  Uiso   1.00
O739   O     0.92692   0.29275   0.27302   0.00000  Uiso   1.00
O740   O     0.95724   0.32307   0.77302   0.00000  Uiso   1.00
O741   O     0.54275   0.17692   0.22698   0.00000  Uiso   1.00
O742   O     0.67692   0.45724   0.77302   0.00000  Uiso   1.00
O743   O     0.50000   0.25000   0.75000   0.00000  Uiso   1.00
O744   O     0.82307   0.04275   0.22698   0.00000  Uiso   1.00
O745   O     0.54275   0.17692   0.77302   0.00000  Uiso   1.00
O746   O     0.95724   0.32307   0.22698   0.00000  Uiso   1.00
O747   O     0.82307   0.04275   0.77302   0.00000  Uiso   1.00
O748   O     0.67692   0.45724   0.22698   0.00000  Uiso   1.00
O749   O     0.95724   0.17692   0.22698   0.00000  Uiso   1.00
O750   O     0.54275   0.32308   0.77302   0.00000  Uiso   1.00
O751   O     0.67692   0.04275   0.22698   0.00000  Uiso   1.00
O752   O     0.82307   0.45724   0.77302   0.00000  Uiso   1.00
O753   O     0.54275   0.32308   0.22698   0.00000  Uiso   1.00
O754   O     0.75000   0.46963   0.33755   0.00000  Uiso   1.00
O755   O     0.95724   0.17692   0.77302   0.00000  Uiso   1.00
O756   O     0.82307   0.45724   0.22698   0.00000  Uiso   1.00
O757   O     0.67692   0.04275   0.77302   0.00000  Uiso   1.00
O758   O     0.69570   0.38497   0.17833   0.00000  Uiso   1.00
O759   O     0.64576   0.40610   0.14661   0.00000  Uiso   1.00
O760   O     0.86817   0.03936   0.69472   0.00000  Uiso   1.00
O761   O     0.92143   0.03476   0.72746   0.00000  Uiso   1.00
O762   O     0.61078   0.20380   0.18446   0.00000  Uiso   1.00
O763   O     0.61860   0.15378   0.14636   0.00000  Uiso   1.00
O764   O     0.91788   0.33586   0.83756   0.00000  Uiso   1.00
O765   O     0.75000   0.03036   0.66245   0.00000  Uiso   1.00
O766   O     0.85988   0.31459   0.83616   0.00000  Uiso   1.00
O767   O     0.82206   0.09778   0.16646   0.00000  Uiso   1.00
O768   O     0.87709   0.07186   0.15456   0.00000  Uiso   1.00
O769   O     0.66118   0.41813   0.83807   0.00000  Uiso   1.00
O770   O     0.68580   0.36123   0.83583   0.00000  Uiso   1.00
O771   O     0.88485   0.32907   0.15816   0.00000  Uiso   1.00
O772   O     0.93797   0.36046   0.16237   0.00000  Uiso   1.00
O773   O     0.59448   0.18534   0.83025   0.00000  Uiso   1.00
O774   O     0.65470   0.19596   0.82068   0.00000  Uiso   1.00
O775   O     0.70369   0.11024   0.81497   0.00000  Uiso   1.00
O776   O     0.53036   0.25000   0.33755   0.00000  Uiso   1.00
O777   O     0.65458   0.11747   0.85429   0.00000  Uiso   1.00
O778   O     0.87709   0.42061   0.15564   0.00000  Uiso   1.00
O779   O     0.81718   0.41030   0.16664   0.00000  Uiso   1.00
O780   O     0.61444   0.29898   0.81612   0.00000  Uiso   1.00
O781   O     0.60310   0.34839   0.85416   0.00000  Uiso   1.00
O782   O     0.94380   0.12670   0.17307   0.00000  Uiso   1.00
O783   O     0.89615   0.15878   0.14883   0.00000  Uiso   1.00
O784   O     0.80218   0.39374   0.82063   0.00000  Uiso   1.00
O785   O     0.85455   0.39854   0.85503   0.00000  Uiso   1.00
O786   O     0.68801   0.09595   0.17194   0.00000  Uiso   1.00
O787   O     0.96963   0.25000   0.66245   0.00000  Uiso   1.00
O788   O     0.69663   0.15668   0.18098   0.00000  Uiso   1.00
O789   O     0.97360   0.11378   0.73377   0.00000  Uiso   1.00
O790   O     0.94666   0.09654   0.67753   0.00000  Uiso   1.00
O791   O     0.57699   0.34427   0.16207   0.00000  Uiso   1.00
O792   O     0.63352   0.31920   0.15941   0.00000  Uiso   1.00
O793   O     0.88190   0.21114   0.80463   0.00000  Uiso   1.00
O794   O     0.82797   0.21479   0.77307   0.00000  Uiso   1.00
O795   O     0.56902   0.37400   0.33707   0.00000  Uiso   1.00
O796   O     0.60199   0.32155   0.34114   0.00000  Uiso   1.00
O797   O     0.83184   0.41302   0.66223   0.00000  Uiso   1.00
O798   O     0.75000   0.03036   0.33755   0.00000  Uiso   1.00
O799   O     0.88946   0.43536   0.66368   0.00000  Uiso   1.00
O800   O     0.63036   0.03920   0.30462   0.00000  Uiso   1.00
O801   O     0.62039   0.08218   0.35083   0.00000  Uiso   1.00
O802   O     0.58789   0.33149   0.66204   0.00000  Uiso   1.00
O803   O     0.56568   0.38939   0.66254   0.00000  Uiso   1.00
O804   O     0.93115   0.15531   0.33067   0.00000  Uiso   1.00
O805   O     0.87420   0.17147   0.34954   0.00000  Uiso   1.00
O806   O     0.66064   0.07969   0.66321   0.00000  Uiso   1.00
O807   O     0.60519   0.05413   0.67384   0.00000  Uiso   1.00
O808   O     0.86526   0.41913   0.34293   0.00000  Uiso   1.00
Zn809  Zn    0.70659  -0.00000   0.21735   0.00000  Uiso   1.00
Zn810  Zn    0.54340   0.25000   0.28265   0.00000  Uiso   1.00
Zn811  Zn    0.75000   0.45659   0.71735   0.00000  Uiso   1.00
Zn812  Zn    0.75000   0.04340   0.28265   0.00000  Uiso   1.00
Zn813  Zn    0.54340   0.25000   0.71735   0.00000  Uiso   1.00
Zn814  Zn    0.95659   0.25000   0.28265   0.00000  Uiso   1.00
Zn815  Zn    0.75000   0.04340   0.71735   0.00000  Uiso   1.00
Zn816  Zn    0.75000   0.45659   0.28265   0.00000  Uiso   1.00
Zn817  Zn    0.79340  -0.00000   0.78265   0.00000  Uiso   1.00
Zn818  Zn    0.50000   0.20660   0.21735   0.00000  Uiso   1.00
Zn819  Zn    0.50000   0.29340   0.78265   0.00000  Uiso   1.00
Zn820  Zn    0.79340  -0.00000   0.21735   0.00000  Uiso   1.00
Zn821  Zn    0.70659  -0.00000   0.78265   0.00000  Uiso   1.00
Zn822  Zn    0.50000   0.29341   0.21735   0.00000  Uiso   1.00
Zn823  Zn    0.50000   0.20659   0.78265   0.00000  Uiso   1.00
Zn824  Zn    0.95659   0.25000   0.71735   0.00000  Uiso   1.00
C825   C     0.00414   0.78354   0.41823   0.00000  Uiso   1.00
C826   C     0.24829   0.96662   0.08138   0.00000  Uiso   1.00
C827   C     0.21756   0.50530   0.54136   0.00000  Uiso   1.00
C828   C     0.00614   0.78317   0.45913   0.00000  Uiso   1.00
C829   C     0.49702   0.71701   0.54133   0.00000  Uiso   1.00
C830   C     0.21788   0.50774   0.45947   0.00000  Uiso   1.00
C831   C     0.28361   0.99691   0.54129   0.00000  Uiso   1.00
C832   C     0.24515   0.96726   0.95864   0.00000  Uiso   1.00
C833   C     0.25269   0.53344   0.04082   0.00000  Uiso   1.00
C834   C     0.03242   0.75326   0.95908   0.00000  Uiso   1.00
C835   C     0.46571   0.75099   0.04118   0.00000  Uiso   1.00
C836   C     0.25488   0.53349   0.95877   0.00000  Uiso   1.00
C837   C     0.46614   0.74831   0.91801   0.00000  Uiso   1.00
C838   C     0.24521   0.96712   0.04061   0.00000  Uiso   1.00
C839   C     0.46591   0.74985   0.95894   0.00000  Uiso   1.00
C840   C     0.03240   0.75450   0.04101   0.00000  Uiso   1.00
C841   C     0.09805   0.84815   0.24991   0.00000  Uiso   1.00
C842   C     0.40227   0.65155   0.75060   0.00000  Uiso   1.00
C843   C     0.15147   0.59758   0.25007   0.00000  Uiso   1.00
C844   C     0.34769   0.90155   0.74950   0.00000  Uiso   1.00
C845   C     0.40325   0.65051   0.25032   0.00000  Uiso   1.00
C846   C     0.09841   0.84781   0.74917   0.00000  Uiso   1.00
C847   C     0.34788   0.90166   0.24996   0.00000  Uiso   1.00
C848   C     0.03273   0.75265   0.08187   0.00000  Uiso   1.00
C849   C     0.15237   0.59856   0.74976   0.00000  Uiso   1.00
C850   C     0.09784   0.65178   0.75033   0.00000  Uiso   1.00
C851   C     0.40223   0.84829   0.25008   0.00000  Uiso   1.00
C852   C     0.15156   0.90237   0.75027   0.00000  Uiso   1.00
C853   C     0.34745   0.59877   0.25000   0.00000  Uiso   1.00
C854   C     0.40229   0.84840   0.75053   0.00000  Uiso   1.00
C855   C     0.09824   0.65214   0.24997   0.00000  Uiso   1.00
C856   C     0.34768   0.59844   0.74952   0.00000  Uiso   1.00
C857   C     0.15220   0.90171   0.25026   0.00000  Uiso   1.00
C858   C     0.00151   0.75007   0.47963   0.00000  Uiso   1.00
C859   C     0.24757   0.96685   0.91785   0.00000  Uiso   1.00
C860   C     0.00136   0.75014   0.52080   0.00000  Uiso   1.00
C861   C     0.25067   0.50135   0.47972   0.00000  Uiso   1.00
C862   C     0.25063   0.50114   0.52085   0.00000  Uiso   1.00
C863   C     0.24964   0.50039   0.97913   0.00000  Uiso   1.00
C864   C     0.24925   0.50032   0.02025   0.00000  Uiso   1.00
C865   C     0.49911   0.75172   0.97949   0.00000  Uiso   1.00
C866   C     0.49907   0.75215   0.02066   0.00000  Uiso   1.00
C867   C     0.16332   0.89222   0.17932   0.00000  Uiso   1.00
C868   C     0.38970   0.55337   0.71719   0.00000  Uiso   1.00
C869   C     0.11682   0.67107   0.18245   0.00000  Uiso   1.00
C870   C     0.24965   0.53365   0.08159   0.00000  Uiso   1.00
C871   C     0.38870   0.83478   0.82077   0.00000  Uiso   1.00
C872   C     0.35309   0.59222   0.17741   0.00000  Uiso   1.00
C873   C     0.16430   0.88926   0.82070   0.00000  Uiso   1.00
C874   C     0.40427   0.84943   0.17696   0.00000  Uiso   1.00
C875   C     0.12225   0.67774   0.81251   0.00000  Uiso   1.00
C876   C     0.17105   0.61595   0.81775   0.00000  Uiso   1.00
C877   C     0.35370   0.90812   0.17710   0.00000  Uiso   1.00
C878   C     0.11139   0.83207   0.81858   0.00000  Uiso   1.00
C879   C     0.41355   0.63963   0.17840   0.00000  Uiso   1.00
C880   C     0.33537   0.89208   0.82077   0.00000  Uiso   1.00
C881   C     0.03285   0.75038   0.91838   0.00000  Uiso   1.00
C882   C     0.17932   0.62367   0.18929   0.00000  Uiso   1.00
C883   C     0.44543   0.60935   0.71568   0.00000  Uiso   1.00
C884   C     0.10644   0.83980   0.17766   0.00000  Uiso   1.00
C885   C     0.36013   0.69667   0.78279   0.00000  Uiso   1.00
C886   C     0.09138   0.85357   0.32232   0.00000  Uiso   1.00
C887   C     0.36094   0.91478   0.67912   0.00000  Uiso   1.00
C888   C     0.12617   0.57146   0.31238   0.00000  Uiso   1.00
C889   C     0.08578   0.86083   0.67867   0.00000  Uiso   1.00
C890   C     0.39876   0.65628   0.32308   0.00000  Uiso   1.00
C891   C     0.13335   0.57801   0.68338   0.00000  Uiso   1.00
C892   C     0.46577   0.75020   0.08215   0.00000  Uiso   1.00
C893   C     0.34552   0.89992   0.32314   0.00000  Uiso   1.00
C894   C     0.39761   0.84264   0.32302   0.00000  Uiso   1.00
C895   C     0.07593   0.63169   0.68460   0.00000  Uiso   1.00
C896   C     0.33978   0.60602   0.32243   0.00000  Uiso   1.00
C897   C     0.14257   0.91440   0.67900   0.00000  Uiso   1.00
C898   C     0.07310   0.62996   0.31316   0.00000  Uiso   1.00
C899   C     0.41481   0.85802   0.67934   0.00000  Uiso   1.00
C900   C     0.14738   0.90835   0.32265   0.00000  Uiso   1.00
C901   C     0.30494   0.64011   0.78569   0.00000  Uiso   1.00
C902   C     0.00316   0.81892   0.39670   0.00000  Uiso   1.00
C903   C     0.00015   0.75014   0.39813   0.00000  Uiso   1.00
C904   C     0.48763   0.68318   0.60410   0.00000  Uiso   1.00
C905   C     0.18275   0.51104   0.39712   0.00000  Uiso   1.00
C906   C     0.31874   0.50355   0.60357   0.00000  Uiso   1.00
C907   C     0.48770   0.68257   0.39689   0.00000  Uiso   1.00
C908   C     0.00065   0.81913   0.60354   0.00000  Uiso   1.00
C909   C     0.31861   0.99512   0.39610   0.00000  Uiso   1.00
C910   C     0.18156   0.99691   0.60297   0.00000  Uiso   1.00
C911   C     0.25831   0.56841   0.89584   0.00000  Uiso   1.00
C912   C     0.25111   0.93122   0.10241   0.00000  Uiso   1.00
C913   C     0.43185   0.74238   0.89597   0.00000  Uiso   1.00
C914   C     0.00012   0.75040   0.60215   0.00000  Uiso   1.00
C915   C     0.06783   0.75139   0.10363   0.00000  Uiso   1.00
C916   C     0.24980   0.93156   0.89629   0.00000  Uiso   1.00
C917   C     0.24380   0.56874   0.10257   0.00000  Uiso   1.00
C918   C     0.06784   0.74436   0.89755   0.00000  Uiso   1.00
C919   C     0.43104   0.74811   0.10451   0.00000  Uiso   1.00
C920   C     0.25036   0.50052   0.39824   0.00000  Uiso   1.00
C921   C     0.49575   0.71719   0.58215   0.00000  Uiso   1.00
C922   C     0.25025   0.50008   0.60215   0.00000  Uiso   1.00
C923   C     0.25039   0.50030   0.89782   0.00000  Uiso   1.00
C924   C     0.24970   0.50010   0.10177   0.00000  Uiso   1.00
C925   C     0.49964   0.74998   0.89805   0.00000  Uiso   1.00
C926   C     0.49933   0.75078   0.10202   0.00000  Uiso   1.00
C927   C     0.49621   0.68410   0.48040   0.00000  Uiso   1.00
C928   C     0.01375   0.81510   0.52026   0.00000  Uiso   1.00
C929   C     0.31533   0.98795   0.48025   0.00000  Uiso   1.00
C930   C     0.18606   0.51455   0.52079   0.00000  Uiso   1.00
C931   C     0.01423   0.81497   0.48013   0.00000  Uiso   1.00
C932   C     0.21750   0.50649   0.41862   0.00000  Uiso   1.00
C933   C     0.49580   0.68418   0.52050   0.00000  Uiso   1.00
C934   C     0.18635   0.51632   0.48075   0.00000  Uiso   1.00
C935   C     0.31550   0.98924   0.52042   0.00000  Uiso   1.00
C936   C     0.23712   0.93540   0.97951   0.00000  Uiso   1.00
C937   C     0.25992   0.56559   0.02010   0.00000  Uiso   1.00
C938   C     0.06460   0.75940   0.97981   0.00000  Uiso   1.00
C939   C     0.43309   0.75228   0.02004   0.00000  Uiso   1.00
C940   C     0.26127   0.56557   0.97996   0.00000  Uiso   1.00
C941   C     0.23723   0.93531   0.01963   0.00000  Uiso   1.00
C942   C     0.43318   0.75143   0.97986   0.00000  Uiso   1.00
C943   C     0.28379   0.99954   0.58209   0.00000  Uiso   1.00
C944   C     0.06454   0.76030   0.01986   0.00000  Uiso   1.00
C945   C     0.25002   0.50007   0.35578   0.00000  Uiso   1.00
C946   C     0.25011   0.50000   0.64434   0.00000  Uiso   1.00
C947   C     0.49995   0.74998   0.35573   0.00000  Uiso   1.00
C948   C    -0.00000   0.75019   0.64438   0.00000  Uiso   1.00
C949   C     0.49995   0.74995   0.85572   0.00000  Uiso   1.00
C950   C     0.49952   0.75006   0.14432   0.00000  Uiso   1.00
C951   C     0.25005   0.50041   0.85561   0.00000  Uiso   1.00
C952   C     0.24998   0.50009   0.14424   0.00000  Uiso   1.00
C953   C     0.17989   0.56979   0.25024   0.00000  Uiso   1.00
C954   C     0.49574   0.71692   0.41838   0.00000  Uiso   1.00
C955   C     0.32019   0.93029   0.74941   0.00000  Uiso   1.00
C956   C     0.43020   0.67979   0.24994   0.00000  Uiso   1.00
C957   C     0.06968   0.82029   0.74932   0.00000  Uiso   1.00
C958   C     0.32004   0.93006   0.25014   0.00000  Uiso   1.00
C959   C     0.17995   0.56989   0.74974   0.00000  Uiso   1.00
C960   C     0.06999   0.81997   0.24990   0.00000  Uiso   1.00
C961   C     0.43033   0.67975   0.74977   0.00000  Uiso   1.00
C962   C     0.18025   0.92983   0.75046   0.00000  Uiso   1.00
C963   C     0.31985   0.57013   0.25002   0.00000  Uiso   1.00
C964   C     0.42980   0.81969   0.75061   0.00000  Uiso   1.00
C965   C     0.00320   0.78381   0.58206   0.00000  Uiso   1.00
C966   C     0.06998   0.68010   0.24990   0.00000  Uiso   1.00
C967   C     0.31966   0.57025   0.75025   0.00000  Uiso   1.00
C968   C     0.18018   0.92993   0.24995   0.00000  Uiso   1.00
C969   C     0.07003   0.68015   0.75021   0.00000  Uiso   1.00
C970   C     0.43000   0.81991   0.24987   0.00000  Uiso   1.00
C971   C     0.14245   0.88478   0.21517   0.00000  Uiso   1.00
C972   C     0.38218   0.59023   0.73368   0.00000  Uiso   1.00
C973   C     0.12221   0.64900   0.21815   0.00000  Uiso   1.00
C974   C     0.38293   0.85644   0.78495   0.00000  Uiso   1.00
C975   C     0.36535   0.60760   0.21501   0.00000  Uiso   1.00
C976   C     0.28366   0.99638   0.41817   0.00000  Uiso   1.00
C977   C     0.14352   0.88288   0.78456   0.00000  Uiso   1.00
C978   C     0.39103   0.86389   0.21463   0.00000  Uiso   1.00
C979   C     0.12196   0.64915   0.78197   0.00000  Uiso   1.00
C980   C     0.14845   0.62145   0.78243   0.00000  Uiso   1.00
C981   C     0.36425   0.89102   0.21456   0.00000  Uiso   1.00
C982   C     0.11746   0.85498   0.78371   0.00000  Uiso   1.00
C983   C     0.39410   0.63246   0.21536   0.00000  Uiso   1.00
C984   C     0.35555   0.88318   0.78446   0.00000  Uiso   1.00
C985   C     0.15008   0.62276   0.21916   0.00000  Uiso   1.00
C986   C     0.40969   0.61691   0.73435   0.00000  Uiso   1.00
C987   C     0.21690   0.50136   0.58199   0.00000  Uiso   1.00
C988   C     0.11482   0.85852   0.21471   0.00000  Uiso   1.00
C989   C     0.36776   0.65976   0.76647   0.00000  Uiso   1.00
C990   C     0.10907   0.86393   0.28538   0.00000  Uiso   1.00
C991   C     0.36698   0.89342   0.71507   0.00000  Uiso   1.00
C992   C     0.12605   0.59926   0.28084   0.00000  Uiso   1.00
C993   C     0.10654   0.86720   0.71482   0.00000  Uiso   1.00
C994   C     0.38572   0.64134   0.28547   0.00000  Uiso   1.00
C995   C     0.12942   0.60251   0.71728   0.00000  Uiso   1.00
C996   C     0.35904   0.88593   0.28542   0.00000  Uiso   1.00
C997   C     0.38616   0.85911   0.28551   0.00000  Uiso   1.00
C998   C     0.25447   0.53362   0.91786   0.00000  Uiso   1.00
C999   C     0.10133   0.62851   0.71798   0.00000  Uiso   1.00
C1000  C     0.35733   0.61594   0.28518   0.00000  Uiso   1.00
C1001  C     0.13334   0.89447   0.71531   0.00000  Uiso   1.00
C1002  C     0.10016   0.62758   0.28133   0.00000  Uiso   1.00
C1003  C     0.39447   0.86679   0.71559   0.00000  Uiso   1.00
C1004  C     0.13600   0.89106   0.28558   0.00000  Uiso   1.00
C1005  C     0.34034   0.63296   0.76608   0.00000  Uiso   1.00
C1006  C     0.49727   0.71686   0.45927   0.00000  Uiso   1.00
C1007  C     0.00556   0.78334   0.54122   0.00000  Uiso   1.00
C1008  C     0.28352   0.99548   0.45915   0.00000  Uiso   1.00
H1009  H     0.49645   0.65777   0.46638   0.00000  Uiso   1.00
H1010  H     0.26562   0.59103   0.03471   0.00000  Uiso   1.00
H1011  H     0.09018   0.76455   0.96532   0.00000  Uiso   1.00
H1012  H     0.40693   0.75469   0.03403   0.00000  Uiso   1.00
H1013  H     0.26780   0.59108   0.96594   0.00000  Uiso   1.00
H1014  H     0.23009   0.91007   0.03389   0.00000  Uiso   1.00
H1015  H     0.40715   0.75294   0.96548   0.00000  Uiso   1.00
H1016  H     0.09006   0.76643   0.03377   0.00000  Uiso   1.00
H1017  H     0.16283   0.90930   0.12376   0.00000  Uiso   1.00
H1018  H     0.42345   0.51007   0.71442   0.00000  Uiso   1.00
H1019  H     0.11417   0.67091   0.12393   0.00000  Uiso   1.00
H1020  H     0.02088   0.84030   0.53459   0.00000  Uiso   1.00
H1021  H     0.36623   0.80242   0.86162   0.00000  Uiso   1.00
H1022  H     0.36548   0.56299   0.12967   0.00000  Uiso   1.00
H1023  H     0.19665   0.86757   0.86192   0.00000  Uiso   1.00
H1024  H     0.44374   0.84898   0.13633   0.00000  Uiso   1.00
H1025  H     0.15163   0.71576   0.84087   0.00000  Uiso   1.00
H1026  H     0.17234   0.61341   0.87622   0.00000  Uiso   1.00
H1027  H     0.31388   0.92501   0.14210   0.00000  Uiso   1.00
H1028  H     0.10027   0.82997   0.87585   0.00000  Uiso   1.00
H1029  H     0.41120   0.65935   0.12420   0.00000  Uiso   1.00
H1030  H     0.33803   0.90465   0.87765   0.00000  Uiso   1.00
H1031  H     0.34047   0.98041   0.46612   0.00000  Uiso   1.00
H1032  H     0.21653   0.65402   0.16083   0.00000  Uiso   1.00
H1033  H     0.47241   0.59217   0.66810   0.00000  Uiso   1.00
H1034  H     0.12630   0.81080   0.13254   0.00000  Uiso   1.00
H1035  H     0.32589   0.73956   0.78593   0.00000  Uiso   1.00
H1036  H     0.08975   0.81836   0.36726   0.00000  Uiso   1.00
H1037  H     0.38303   0.94714   0.63803   0.00000  Uiso   1.00
H1038  H     0.11756   0.56079   0.36914   0.00000  Uiso   1.00
H1039  H     0.05463   0.88283   0.63660   0.00000  Uiso   1.00
H1040  H     0.38655   0.68067   0.37388   0.00000  Uiso   1.00
H1041  H     0.11044   0.53960   0.64947   0.00000  Uiso   1.00
H1042  H     0.16102   0.52165   0.53545   0.00000  Uiso   1.00
H1043  H     0.30562   0.90002   0.36333   0.00000  Uiso   1.00
H1044  H     0.43843   0.82720   0.35765   0.00000  Uiso   1.00
H1045  H     0.06969   0.63442   0.62654   0.00000  Uiso   1.00
H1046  H     0.34311   0.57846   0.37257   0.00000  Uiso   1.00
H1047  H     0.15635   0.91119   0.62243   0.00000  Uiso   1.00
H1048  H     0.03133   0.60624   0.34142   0.00000  Uiso   1.00
H1049  H     0.41243   0.84544   0.62245   0.00000  Uiso   1.00
H1050  H     0.16338   0.95394   0.34955   0.00000  Uiso   1.00
H1051  H     0.27890   0.65667   0.83412   0.00000  Uiso   1.00
H1052  H     0.48420   0.87055   0.39409   0.00000  Uiso   1.00
H1053  H     0.02190   0.84007   0.46594   0.00000  Uiso   1.00
H1054  H     0.45423   0.64018   0.61158   0.00000  Uiso   1.00
H1055  H     0.12988   0.99717   0.39191   0.00000  Uiso   1.00
H1056  H     0.36776   0.52794   0.60676   0.00000  Uiso   1.00
H1057  H     0.45854   0.63601   0.39486   0.00000  Uiso   1.00
H1058  H     0.47977   0.86999   0.60588   0.00000  Uiso   1.00
H1059  H     0.37024   0.51295   0.39091   0.00000  Uiso   1.00
H1060  H     0.13115   0.97525   0.60312   0.00000  Uiso   1.00
H1061  H     0.24117   0.62008   0.88795   0.00000  Uiso   1.00
H1062  H     0.27166   0.88016   0.10379   0.00000  Uiso   1.00
H1063  H     0.38615   0.71270   0.88942   0.00000  Uiso   1.00
H1064  H     0.49530   0.65801   0.53489   0.00000  Uiso   1.00
H1065  H     0.11942   0.73309   0.10614   0.00000  Uiso   1.00
H1066  H     0.27054   0.88065   0.89368   0.00000  Uiso   1.00
H1067  H     0.21890   0.61783   0.10312   0.00000  Uiso   1.00
H1068  H     0.11652   0.71892   0.89710   0.00000  Uiso   1.00
H1069  H     0.38190   0.72463   0.11107   0.00000  Uiso   1.00
H1070  H     0.16146   0.52487   0.46695   0.00000  Uiso   1.00
H1071  H     0.34078   0.98301   0.53495   0.00000  Uiso   1.00
H1072  H     0.22998   0.91022   0.96515   0.00000  Uiso   1.00
O1073  O     0.25000   0.50000   0.25000   0.00000  Uiso   1.00
O1074  O     0.25000   0.96963   0.66245   0.00000  Uiso   1.00
O1075  O     0.31139   0.88929   0.33693   0.00000  Uiso   1.00
O1076  O     0.37481   0.83006   0.34514   0.00000  Uiso   1.00
O1077  O     0.43438   0.84117   0.33275   0.00000  Uiso   1.00
O1078  O     0.04316   0.63292   0.69029   0.00000  Uiso   1.00
O1079  O     0.08958   0.63296   0.64675   0.00000  Uiso   1.00
O1080  O     0.31092   0.62016   0.33164   0.00000  Uiso   1.00
O1081  O     0.35708   0.58173   0.34747   0.00000  Uiso   1.00
O1082  O     0.14378   0.94770   0.67887   0.00000  Uiso   1.00
O1083  O     0.14991   0.89484   0.64507   0.00000  Uiso   1.00
O1084  O     0.07321   0.65626   0.33490   0.00000  Uiso   1.00
O1085  O     0.46963   0.75000   0.33755   0.00000  Uiso   1.00
O1086  O     0.04809   0.60176   0.31854   0.00000  Uiso   1.00
O1087  O     0.44800   0.85660   0.67959   0.00000  Uiso   1.00
O1088  O     0.39579   0.85141   0.64501   0.00000  Uiso   1.00
O1089  O     0.15415   0.88954   0.35101   0.00000  Uiso   1.00
O1090  O     0.15131   0.94614   0.32465   0.00000  Uiso   1.00
O1091  O     0.27639   0.63541   0.76836   0.00000  Uiso   1.00
O1092  O     0.30447   0.65264   0.82397   0.00000  Uiso   1.00
O1093  O     0.01927   0.82230   0.36593   0.00000  Uiso   1.00
O1094  O     0.48268   0.84810   0.41115   0.00000  Uiso   1.00
O1095  O     0.00729   0.67364   0.63072   0.00000  Uiso   1.00
O1096  O     0.03036   0.75000   0.66245   0.00000  Uiso   1.00
O1097  O     0.45696   0.66258   0.59464   0.00000  Uiso   1.00
O1098  O     0.18109   0.53207   0.36975   0.00000  Uiso   1.00
O1099  O     0.15194   0.99131   0.40831   0.00000  Uiso   1.00
O1100  O     0.32392   0.98680   0.63366   0.00000  Uiso   1.00
O1101  O     0.34540   0.52736   0.58966   0.00000  Uiso   1.00
O1102  O     0.00574   0.67404   0.36854   0.00000  Uiso   1.00
O1103  O     0.45934   0.66004   0.40934   0.00000  Uiso   1.00
O1104  O     0.01646   0.82319   0.63431   0.00000  Uiso   1.00
O1105  O     0.47914   0.84741   0.58896   0.00000  Uiso   1.00
O1106  O     0.32145   0.97614   0.36717   0.00000  Uiso   1.00
O1107  O     0.00000   0.71964   0.83755   0.00000  Uiso   1.00
O1108  O     0.34809   0.51629   0.40808   0.00000  Uiso   1.00
O1109  O     0.17674   0.51107   0.63460   0.00000  Uiso   1.00
O1110  O     0.15395   0.97580   0.58658   0.00000  Uiso   1.00
O1111  O     0.28152   0.57133   0.87060   0.00000  Uiso   1.00
O1112  O     0.23547   0.59782   0.90426   0.00000  Uiso   1.00
O1113  O     0.23578   0.92705   0.13347   0.00000  Uiso   1.00
O1114  O     0.27211   0.90285   0.08701   0.00000  Uiso   1.00
O1115  O     0.42462   0.76152   0.86805   0.00000  Uiso   1.00
O1116  O     0.40839   0.71413   0.90664   0.00000  Uiso   1.00
O1117  O     0.07148   0.76882   0.13354   0.00000  Uiso   1.00
O1118  O     0.00000   0.78037   0.16245   0.00000  Uiso   1.00
O1119  O     0.09657   0.72991   0.09013   0.00000  Uiso   1.00
O1120  O     0.23340   0.92746   0.86588   0.00000  Uiso   1.00
O1121  O     0.27154   0.90328   0.91050   0.00000  Uiso   1.00
O1122  O     0.25924   0.57482   0.13318   0.00000  Uiso   1.00
O1123  O     0.21988   0.59463   0.08725   0.00000  Uiso   1.00
O1124  O     0.07439   0.76054   0.86745   0.00000  Uiso   1.00
O1125  O     0.09308   0.71955   0.91247   0.00000  Uiso   1.00
O1126  O     0.42589   0.76833   0.13213   0.00000  Uiso   1.00
O1127  O     0.40442   0.72279   0.09420   0.00000  Uiso   1.00
O1128  O     0.28036   0.50000   0.83755   0.00000  Uiso   1.00
O1129  O     0.21963   0.50000   0.16245   0.00000  Uiso   1.00
O1130  O     0.00000   0.78037   0.83755   0.00000  Uiso   1.00
O1131  O     0.00000   0.71964   0.16245   0.00000  Uiso   1.00
O1132  O     0.21963   0.50000   0.83755   0.00000  Uiso   1.00
O1133  O     0.25000   0.50000   0.75000   0.00000  Uiso   1.00
O1134  O     0.28036   0.50000   0.16245   0.00000  Uiso   1.00
O1135  O     0.20724   0.57307   0.27302   0.00000  Uiso   1.00
O1136  O     0.29275   0.92692   0.72698   0.00000  Uiso   1.00
O1137  O     0.42692   0.70724   0.27302   0.00000  Uiso   1.00
O1138  O     0.07307   0.79275   0.72698   0.00000  Uiso   1.00
O1139  O     0.29275   0.92692   0.27302   0.00000  Uiso   1.00
O1140  O     0.20724   0.57307   0.72698   0.00000  Uiso   1.00
O1141  O     0.07307   0.79275   0.27302   0.00000  Uiso   1.00
O1142  O     0.42692   0.70724   0.72698   0.00000  Uiso   1.00
O1143  O     0.20724   0.92692   0.72698   0.00000  Uiso   1.00
O1144  O     0.00000   0.75000   0.25000   0.00000  Uiso   1.00
O1145  O     0.29275   0.57307   0.27302   0.00000  Uiso   1.00
O1146  O     0.42692   0.79275   0.72698   0.00000  Uiso   1.00
O1147  O     0.07307   0.70724   0.27302   0.00000  Uiso   1.00
O1148  O     0.29275   0.57307   0.72698   0.00000  Uiso   1.00
O1149  O     0.20724   0.92692   0.27302   0.00000  Uiso   1.00
O1150  O     0.07307   0.70724   0.72698   0.00000  Uiso   1.00
O1151  O     0.42692   0.79275   0.27302   0.00000  Uiso   1.00
O1152  O     0.45724   0.82307   0.77302   0.00000  Uiso   1.00
O1153  O     0.04275   0.67692   0.22698   0.00000  Uiso   1.00
O1154  O     0.17692   0.95724   0.77302   0.00000  Uiso   1.00
O1155  O    -0.00000   0.75000   0.75000   0.00000  Uiso   1.00
O1156  O     0.32307   0.54275   0.22698   0.00000  Uiso   1.00
O1157  O     0.04275   0.67692   0.77302   0.00000  Uiso   1.00
O1158  O     0.45724   0.82307   0.22698   0.00000  Uiso   1.00
O1159  O     0.32307   0.54275   0.77302   0.00000  Uiso   1.00
O1160  O     0.17692   0.95724   0.22698   0.00000  Uiso   1.00
O1161  O     0.45724   0.67692   0.22698   0.00000  Uiso   1.00
O1162  O     0.04275   0.82308   0.77302   0.00000  Uiso   1.00
O1163  O     0.17692   0.54275   0.22698   0.00000  Uiso   1.00
O1164  O     0.32307   0.95724   0.77302   0.00000  Uiso   1.00
O1165  O     0.04275   0.82308   0.22698   0.00000  Uiso   1.00
O1166  O     0.25000   0.96963   0.33755   0.00000  Uiso   1.00
O1167  O     0.45724   0.67692   0.77302   0.00000  Uiso   1.00
O1168  O     0.32307   0.95724   0.22698   0.00000  Uiso   1.00
O1169  O     0.17692   0.54275   0.77302   0.00000  Uiso   1.00
O1170  O     0.19570   0.88497   0.17833   0.00000  Uiso   1.00
O1171  O     0.14576   0.90610   0.14661   0.00000  Uiso   1.00
O1172  O     0.36817   0.53936   0.69472   0.00000  Uiso   1.00
O1173  O     0.42143   0.53476   0.72746   0.00000  Uiso   1.00
O1174  O     0.11078   0.70380   0.18446   0.00000  Uiso   1.00
O1175  O     0.11860   0.65378   0.14636   0.00000  Uiso   1.00
O1176  O     0.41788   0.83586   0.83756   0.00000  Uiso   1.00
O1177  O     0.25000   0.53036   0.66245   0.00000  Uiso   1.00
O1178  O     0.35988   0.81459   0.83616   0.00000  Uiso   1.00
O1179  O     0.32206   0.59778   0.16646   0.00000  Uiso   1.00
O1180  O     0.37709   0.57186   0.15456   0.00000  Uiso   1.00
O1181  O     0.16118   0.91813   0.83807   0.00000  Uiso   1.00
O1182  O     0.18580   0.86123   0.83583   0.00000  Uiso   1.00
O1183  O     0.38485   0.82907   0.15816   0.00000  Uiso   1.00
O1184  O     0.43797   0.86046   0.16237   0.00000  Uiso   1.00
O1185  O     0.09448   0.68534   0.83025   0.00000  Uiso   1.00
O1186  O     0.15470   0.69596   0.82068   0.00000  Uiso   1.00
O1187  O     0.20369   0.61024   0.81497   0.00000  Uiso   1.00
O1188  O     0.03036   0.75000   0.33755   0.00000  Uiso   1.00
O1189  O     0.15458   0.61747   0.85429   0.00000  Uiso   1.00
O1190  O     0.37709   0.92061   0.15564   0.00000  Uiso   1.00
O1191  O     0.31718   0.91030   0.16664   0.00000  Uiso   1.00
O1192  O     0.11444   0.79898   0.81612   0.00000  Uiso   1.00
O1193  O     0.10310   0.84839   0.85416   0.00000  Uiso   1.00
O1194  O     0.44380   0.62670   0.17307   0.00000  Uiso   1.00
O1195  O     0.39615   0.65878   0.14883   0.00000  Uiso   1.00
O1196  O     0.30218   0.89374   0.82063   0.00000  Uiso   1.00
O1197  O     0.35455   0.89854   0.85503   0.00000  Uiso   1.00
O1198  O     0.18801   0.59595   0.17194   0.00000  Uiso   1.00
O1199  O     0.46963   0.75000   0.66245   0.00000  Uiso   1.00
O1200  O     0.19663   0.65668   0.18098   0.00000  Uiso   1.00
O1201  O     0.47360   0.61378   0.73377   0.00000  Uiso   1.00
O1202  O     0.44666   0.59654   0.67753   0.00000  Uiso   1.00
O1203  O     0.07699   0.84427   0.16207   0.00000  Uiso   1.00
O1204  O     0.13352   0.81920   0.15941   0.00000  Uiso   1.00
O1205  O     0.38190   0.71114   0.80463   0.00000  Uiso   1.00
O1206  O     0.32797   0.71479   0.77307   0.00000  Uiso   1.00
O1207  O     0.06902   0.87400   0.33707   0.00000  Uiso   1.00
O1208  O     0.10199   0.82155   0.34114   0.00000  Uiso   1.00
O1209  O     0.33184   0.91302   0.66223   0.00000  Uiso   1.00
O1210  O     0.25000   0.53036   0.33755   0.00000  Uiso   1.00
O1211  O     0.38946   0.93536   0.66368   0.00000  Uiso   1.00
O1212  O     0.13036   0.53920   0.30462   0.00000  Uiso   1.00
O1213  O     0.12039   0.58218   0.35083   0.00000  Uiso   1.00
O1214  O     0.08789   0.83149   0.66204   0.00000  Uiso   1.00
O1215  O     0.06568   0.88939   0.66254   0.00000  Uiso   1.00
O1216  O     0.43115   0.65531   0.33067   0.00000  Uiso   1.00
O1217  O     0.37420   0.67147   0.34954   0.00000  Uiso   1.00
O1218  O     0.16064   0.57969   0.66321   0.00000  Uiso   1.00
O1219  O     0.10519   0.55413   0.67384   0.00000  Uiso   1.00
O1220  O     0.36526   0.91913   0.34293   0.00000  Uiso   1.00
Zn1221 Zn    0.20659   0.50000   0.21735   0.00000  Uiso   1.00
Zn1222 Zn    0.04340   0.75000   0.28265   0.00000  Uiso   1.00
Zn1223 Zn    0.25000   0.95659   0.71735   0.00000  Uiso   1.00
Zn1224 Zn    0.25000   0.54340   0.28265   0.00000  Uiso   1.00
Zn1225 Zn    0.04340   0.75000   0.71735   0.00000  Uiso   1.00
Zn1226 Zn    0.45659   0.75000   0.28265   0.00000  Uiso   1.00
Zn1227 Zn    0.25000   0.54340   0.71735   0.00000  Uiso   1.00
Zn1228 Zn    0.25000   0.95659   0.28265   0.00000  Uiso   1.00
Zn1229 Zn    0.29340   0.50000   0.78265   0.00000  Uiso   1.00
Zn1230 Zn    0.00000   0.70660   0.21735   0.00000  Uiso   1.00
Zn1231 Zn   -0.00000   0.79340   0.78265   0.00000  Uiso   1.00
Zn1232 Zn    0.29340   0.50000   0.21735   0.00000  Uiso   1.00
Zn1233 Zn    0.20659   0.50000   0.78265   0.00000  Uiso   1.00
Zn1234 Zn    0.00000   0.79341   0.21735   0.00000  Uiso   1.00
Zn1235 Zn   -0.00000   0.70659   0.78265   0.00000  Uiso   1.00
Zn1236 Zn    0.45659   0.75000   0.71735   0.00000  Uiso   1.00
C1237  C     0.50414   0.78354   0.41823   0.00000  Uiso   1.00
C1238  C     0.74829   0.96662   0.08138   0.00000  Uiso   1.00
C1239  C     0.71756   0.50530   0.54136   0.00000  Uiso   1.00
C1240  C     0.50614   0.78317   0.45913   0.00000  Uiso   1.00
C1241  C     0.99702   0.71701   0.54133   0.00000  Uiso   1.00
C1242  C     0.71788   0.50774   0.45947   0.00000  Uiso   1.00
C1243  C     0.78361   0.99691   0.54129   0.00000  Uiso   1.00
C1244  C     0.74515   0.96726   0.95864   0.00000  Uiso   1.00
C1245  C     0.75269   0.53344   0.04082   0.00000  Uiso   1.00
C1246  C     0.53242   0.75326   0.95908   0.00000  Uiso   1.00
C1247  C     0.96571   0.75099   0.04118   0.00000  Uiso   1.00
C1248  C     0.75488   0.53349   0.95877   0.00000  Uiso   1.00
C1249  C     0.96614   0.74831   0.91801   0.00000  Uiso   1.00
C1250  C     0.74521   0.96712   0.04061   0.00000  Uiso   1.00
C1251  C     0.96591   0.74985   0.95894   0.00000  Uiso   1.00
C1252  C     0.53240   0.75450   0.04101   0.00000  Uiso   1.00
C1253  C     0.59805   0.84815   0.24991   0.00000  Uiso   1.00
C1254  C     0.90227   0.65155   0.75060   0.00000  Uiso   1.00
C1255  C     0.65147   0.59758   0.25007   0.00000  Uiso   1.00
C1256  C     0.84769   0.90155   0.74950   0.00000  Uiso   1.00
C1257  C     0.90325   0.65051   0.25032   0.00000  Uiso   1.00
C1258  C     0.59841   0.84781   0.74917   0.00000  Uiso   1.00
C1259  C     0.84788   0.90166   0.24996   0.00000  Uiso   1.00
C1260  C     0.53273   0.75265   0.08187   0.00000  Uiso   1.00
C1261  C     0.65237   0.59856   0.74976   0.00000  Uiso   1.00
C1262  C     0.59784   0.65178   0.75033   0.00000  Uiso   1.00
C1263  C     0.90223   0.84829   0.25008   0.00000  Uiso   1.00
C1264  C     0.65156   0.90237   0.75027   0.00000  Uiso   1.00
C1265  C     0.84745   0.59877   0.25000   0.00000  Uiso   1.00
C1266  C     0.90229   0.84840   0.75053   0.00000  Uiso   1.00
C1267  C     0.59824   0.65214   0.24997   0.00000  Uiso   1.00
C1268  C     0.84768   0.59844   0.74952   0.00000  Uiso   1.00
C1269  C     0.65220   0.90171   0.25026   0.00000  Uiso   1.00
C1270  C     0.50151   0.75007   0.47963   0.00000  Uiso   1.00
C1271  C     0.74757   0.96685   0.91785   0.00000  Uiso   1.00
C1272  C     0.50136   0.75014   0.52080   0.00000  Uiso   1.00
C1273  C     0.75067   0.50135   0.47972   0.00000  Uiso   1.00
C1274  C     0.75063   0.50114   0.52085   0.00000  Uiso   1.00
C1275  C     0.74964   0.50039   0.97913   0.00000  Uiso   1.00
C1276  C     0.74925   0.50032   0.02025   0.00000  Uiso   1.00
C1277  C     0.99911   0.75172   0.97949   0.00000  Uiso   1.00
C1278  C     0.99907   0.75215   0.02066   0.00000  Uiso   1.00
C1279  C     0.66332   0.89222   0.17932   0.00000  Uiso   1.00
C1280  C     0.88970   0.55337   0.71719   0.00000  Uiso   1.00
C1281  C     0.61682   0.67107   0.18245   0.00000  Uiso   1.00
C1282  C     0.74965   0.53365   0.08159   0.00000  Uiso   1.00
C1283  C     0.88870   0.83478   0.82077   0.00000  Uiso   1.00
C1284  C     0.85309   0.59222   0.17741   0.00000  Uiso   1.00
C1285  C     0.66430   0.88926   0.82070   0.00000  Uiso   1.00
C1286  C     0.90427   0.84943   0.17696   0.00000  Uiso   1.00
C1287  C     0.62225   0.67774   0.81251   0.00000  Uiso   1.00
C1288  C     0.67105   0.61595   0.81775   0.00000  Uiso   1.00
C1289  C     0.85370   0.90812   0.17710   0.00000  Uiso   1.00
C1290  C     0.61139   0.83207   0.81858   0.00000  Uiso   1.00
C1291  C     0.91355   0.63963   0.17840   0.00000  Uiso   1.00
C1292  C     0.83537   0.89208   0.82077   0.00000  Uiso   1.00
C1293  C     0.53285   0.75038   0.91838   0.00000  Uiso   1.00
C1294  C     0.67932   0.62367   0.18929   0.00000  Uiso   1.00
C1295  C     0.94543   0.60935   0.71568   0.00000  Uiso   1.00
C1296  C     0.60644   0.83980   0.17766   0.00000  Uiso   1.00
C1297  C     0.86013   0.69667   0.78279   0.00000  Uiso   1.00
C1298  C     0.59138   0.85357   0.32232   0.00000  Uiso   1.00
C1299  C     0.86094   0.91478   0.67912   0.00000  Uiso   1.00
C1300  C     0.62617   0.57146   0.31238   0.00000  Uiso   1.00
C1301  C     0.58578   0.86083   0.67867   0.00000  Uiso   1.00
C1302  C     0.89876   0.65628   0.32308   0.00000  Uiso   1.00
C1303  C     0.63335   0.57801   0.68338   0.00000  Uiso   1.00
C1304  C     0.96577   0.75020   0.08215   0.00000  Uiso   1.00
C1305  C     0.84552   0.89992   0.32314   0.00000  Uiso   1.00
C1306  C     0.89761   0.84264   0.32302   0.00000  Uiso   1.00
C1307  C     0.57593   0.63169   0.68460   0.00000  Uiso   1.00
C1308  C     0.83978   0.60602   0.32243   0.00000  Uiso   1.00
C1309  C     0.64257   0.91440   0.67900   0.00000  Uiso   1.00
C1310  C     0.57310   0.62996   0.31316   0.00000  Uiso   1.00
C1311  C     0.91481   0.85802   0.67934   0.00000  Uiso   1.00
C1312  C     0.64738   0.90835   0.32265   0.00000  Uiso   1.00
C1313  C     0.80494   0.64011   0.78569   0.00000  Uiso   1.00
C1314  C     0.50316   0.81892   0.39670   0.00000  Uiso   1.00
C1315  C     0.50015   0.75014   0.39813   0.00000  Uiso   1.00
C1316  C     0.98763   0.68318   0.60410   0.00000  Uiso   1.00
C1317  C     0.68275   0.51104   0.39712   0.00000  Uiso   1.00
C1318  C     0.81874   0.50355   0.60357   0.00000  Uiso   1.00
C1319  C     0.98770   0.68257   0.39689   0.00000  Uiso   1.00
C1320  C     0.50065   0.81913   0.60354   0.00000  Uiso   1.00
C1321  C     0.81861   0.99512   0.39610   0.00000  Uiso   1.00
C1322  C     0.68156   0.99691   0.60297   0.00000  Uiso   1.00
C1323  C     0.75831   0.56841   0.89584   0.00000  Uiso   1.00
C1324  C     0.75111   0.93122   0.10241   0.00000  Uiso   1.00
C1325  C     0.93185   0.74238   0.89597   0.00000  Uiso   1.00
C1326  C     0.50012   0.75040   0.60215   0.00000  Uiso   1.00
C1327  C     0.56783   0.75139   0.10363   0.00000  Uiso   1.00
C1328  C     0.74980   0.93156   0.89629   0.00000  Uiso   1.00
C1329  C     0.74380   0.56874   0.10257   0.00000  Uiso   1.00
C1330  C     0.56784   0.74436   0.89755   0.00000  Uiso   1.00
C1331  C     0.93104   0.74811   0.10451   0.00000  Uiso   1.00
C1332  C     0.75036   0.50052   0.39824   0.00000  Uiso   1.00
C1333  C     0.99575   0.71719   0.58215   0.00000  Uiso   1.00
C1334  C     0.75025   0.50008   0.60215   0.00000  Uiso   1.00
C1335  C     0.75039   0.50030   0.89782   0.00000  Uiso   1.00
C1336  C     0.74970   0.50010   0.10177   0.00000  Uiso   1.00
C1337  C     0.99964   0.74998   0.89805   0.00000  Uiso   1.00
C1338  C     0.99933   0.75078   0.10202   0.00000  Uiso   1.00
C1339  C     0.99621   0.68410   0.48040   0.00000  Uiso   1.00
C1340  C     0.51375   0.81510   0.52026   0.00000  Uiso   1.00
C1341  C     0.81533   0.98795   0.48025   0.00000  Uiso   1.00
C1342  C     0.68606   0.51455   0.52079   0.00000  Uiso   1.00
C1343  C     0.51423   0.81497   0.48013   0.00000  Uiso   1.00
C1344  C     0.71750   0.50649   0.41862   0.00000  Uiso   1.00
C1345  C     0.99580   0.68418   0.52050   0.00000  Uiso   1.00
C1346  C     0.68635   0.51632   0.48075   0.00000  Uiso   1.00
C1347  C     0.81550   0.98924   0.52042   0.00000  Uiso   1.00
C1348  C     0.73712   0.93540   0.97951   0.00000  Uiso   1.00
C1349  C     0.75992   0.56559   0.02010   0.00000  Uiso   1.00
C1350  C     0.56460   0.75940   0.97981   0.00000  Uiso   1.00
C1351  C     0.93309   0.75228   0.02004   0.00000  Uiso   1.00
C1352  C     0.76127   0.56557   0.97996   0.00000  Uiso   1.00
C1353  C     0.73723   0.93531   0.01963   0.00000  Uiso   1.00
C1354  C     0.93318   0.75143   0.97986   0.00000  Uiso   1.00
C1355  C     0.78379   0.99954   0.58209   0.00000  Uiso   1.00
C1356  C     0.56454   0.76030   0.01986   0.00000  Uiso   1.00
C1357  C     0.75002   0.50007   0.35578   0.00000  Uiso   1.00
C1358  C     0.75011   0.50000   0.64434   0.00000  Uiso   1.00
C1359  C     0.99995   0.74998   0.35573   0.00000  Uiso   1.00
C1360  C     0.50000   0.75019   0.64438   0.00000  Uiso   1.00
C1361  C     0.99995   0.74995   0.85572   0.00000  Uiso   1.00
C1362  C     0.99952   0.75006   0.14432   0.00000  Uiso   1.00
C1363  C     0.75005   0.50041   0.85561   0.00000  Uiso   1.00
C1364  C     0.74998   0.50009   0.14424   0.00000  Uiso   1.00
C1365  C     0.67989   0.56979   0.25024   0.00000  Uiso   1.00
C1366  C     0.99574   0.71692   0.41838   0.00000  Uiso   1.00
C1367  C     0.82019   0.93029   0.74941   0.00000  Uiso   1.00
C1368  C     0.93020   0.67979   0.24994   0.00000  Uiso   1.00
C1369  C     0.56968   0.82029   0.74932   0.00000  Uiso   1.00
C1370  C     0.82004   0.93006   0.25014   0.00000  Uiso   1.00
C1371  C     0.67995   0.56989   0.74974   0.00000  Uiso   1.00
C1372  C     0.56999   0.81997   0.24990   0.00000  Uiso   1.00
C1373  C     0.93033   0.67975   0.74977   0.00000  Uiso   1.00
C1374  C     0.68025   0.92983   0.75046   0.00000  Uiso   1.00
C1375  C     0.81985   0.57013   0.25002   0.00000  Uiso   1.00
C1376  C     0.92980   0.81969   0.75061   0.00000  Uiso   1.00
C1377  C     0.50320   0.78381   0.58206   0.00000  Uiso   1.00
C1378  C     0.56998   0.68010   0.24990   0.00000  Uiso   1.00
C1379  C     0.81966   0.57025   0.75025   0.00000  Uiso   1.00
C1380  C     0.68018   0.92993   0.24995   0.00000  Uiso   1.00
C1381  C     0.57003   0.68015   0.75021   0.00000  Uiso   1.00
C1382  C     0.93000   0.81991   0.24987   0.00000  Uiso   1.00
C1383  C     0.64245   0.88478   0.21517   0.00000  Uiso   1.00
C1384  C     0.88218   0.59023   0.73368   0.00000  Uiso   1.00
C1385  C     0.62221   0.64900   0.21815   0.00000  Uiso   1.00
C1386  C     0.88293   0.85644   0.78495   0.00000  Uiso   1.00
C1387  C     0.86535   0.60760   0.21501   0.00000  Uiso   1.00
C1388  C     0.78366   0.99638   0.41817   0.00000  Uiso   1.00
C1389  C     0.64352   0.88288   0.78456   0.00000  Uiso   1.00
C1390  C     0.89103   0.86389   0.21463   0.00000  Uiso   1.00
C1391  C     0.62196   0.64915   0.78197   0.00000  Uiso   1.00
C1392  C     0.64845   0.62145   0.78243   0.00000  Uiso   1.00
C1393  C     0.86425   0.89102   0.21456   0.00000  Uiso   1.00
C1394  C     0.61746   0.85498   0.78371   0.00000  Uiso   1.00
C1395  C     0.89410   0.63246   0.21536   0.00000  Uiso   1.00
C1396  C     0.85555   0.88318   0.78446   0.00000  Uiso   1.00
C1397  C     0.65008   0.62276   0.21916   0.00000  Uiso   1.00
C1398  C     0.90969   0.61691   0.73435   0.00000  Uiso   1.00
C1399  C     0.71690   0.50136   0.58199   0.00000  Uiso   1.00
C1400  C     0.61482   0.85852   0.21471   0.00000  Uiso   1.00
C1401  C     0.86776   0.65976   0.76647   0.00000  Uiso   1.00
C1402  C     0.60907   0.86393   0.28538   0.00000  Uiso   1.00
C1403  C     0.86698   0.89342   0.71507   0.00000  Uiso   1.00
C1404  C     0.62605   0.59926   0.28084   0.00000  Uiso   1.00
C1405  C     0.60654   0.86720   0.71482   0.00000  Uiso   1.00
C1406  C     0.88572   0.64134   0.28547   0.00000  Uiso   1.00
C1407  C     0.62942   0.60251   0.71728   0.00000  Uiso   1.00
C1408  C     0.85904   0.88593   0.28542   0.00000  Uiso   1.00
C1409  C     0.88616   0.85911   0.28551   0.00000  Uiso   1.00
C1410  C     0.75447   0.53362   0.91786   0.00000  Uiso   1.00
C1411  C     0.60133   0.62851   0.71798   0.00000  Uiso   1.00
C1412  C     0.85733   0.61594   0.28518   0.00000  Uiso   1.00
C1413  C     0.63334   0.89447   0.71531   0.00000  Uiso   1.00
C1414  C     0.60016   0.62758   0.28133   0.00000  Uiso   1.00
C1415  C     0.89447   0.86679   0.71559   0.00000  Uiso   1.00
C1416  C     0.63600   0.89106   0.28558   0.00000  Uiso   1.00
C1417  C     0.84034   0.63296   0.76608   0.00000  Uiso   1.00
C1418  C     0.99727   0.71686   0.45927   0.00000  Uiso   1.00
C1419  C     0.50556   0.78334   0.54122   0.00000  Uiso   1.00
C1420  C     0.78352   0.99548   0.45915   0.00000  Uiso   1.00
H1421  H     0.99645   0.65777   0.46638   0.00000  Uiso   1.00
H1422  H     0.76562   0.59103   0.03471   0.00000  Uiso   1.00
H1423  H     0.59018   0.76455   0.96532   0.00000  Uiso   1.00
H1424  H     0.90693   0.75469   0.03403   0.00000  Uiso   1.00
H1425  H     0.76780   0.59108   0.96594   0.00000  Uiso   1.00
H1426  H     0.73009   0.91007   0.03389   0.00000  Uiso   1.00
H1427  H     0.90715   0.75294   0.96548   0.00000  Uiso   1.00
H1428  H     0.59006   0.76643   0.03377   0.00000  Uiso   1.00
H1429  H     0.66283   0.90930   0.12376   0.00000  Uiso   1.00
H1430  H     0.92345   0.51007   0.71442   0.00000  Uiso   1.00
H1431  H     0.61417   0.67091   0.12393   0.00000  Uiso   1.00
H1432  H     0.52088   0.84030   0.53459   0.00000  Uiso   1.00
H1433  H     0.86623   0.80242   0.86162   0.00000  Uiso   1.00
H1434  H     0.86548   0.56299   0.12967   0.00000  Uiso   1.00
H1435  H     0.69665   0.86757   0.86192   0.00000  Uiso   1.00
H1436  H     0.94374   0.84898   0.13633   0.00000  Uiso   1.00
H1437  H     0.65163   0.71576   0.84087   0.00000  Uiso   1.00
H1438  H     0.67234   0.61341   0.87622   0.00000  Uiso   1.00
H1439  H     0.81388   0.92501   0.14210   0.00000  Uiso   1.00
H1440  H     0.60027   0.82997   0.87585   0.00000  Uiso   1.00
H1441  H     0.91120   0.65935   0.12420   0.00000  Uiso   1.00
H1442  H     0.83803   0.90465   0.87765   0.00000  Uiso   1.00
H1443  H     0.84047   0.98041   0.46612   0.00000  Uiso   1.00
H1444  H     0.71653   0.65402   0.16083   0.00000  Uiso   1.00
H1445  H     0.97241   0.59217   0.66810   0.00000  Uiso   1.00
H1446  H     0.62630   0.81080   0.13254   0.00000  Uiso   1.00
H1447  H     0.82589   0.73956   0.78593   0.00000  Uiso   1.00
H1448  H     0.58975   0.81836   0.36726   0.00000  Uiso   1.00
H1449  H     0.88303   0.94714   0.63803   0.00000  Uiso   1.00
H1450  H     0.61756   0.56079   0.36914   0.00000  Uiso   1.00
H1451  H     0.55463   0.88283   0.63660   0.00000  Uiso   1.00
H1452  H     0.88655   0.68067   0.37388   0.00000  Uiso   1.00
H1453  H     0.61044   0.53960   0.64947   0.00000  Uiso   1.00
H1454  H     0.66102   0.52165   0.53545   0.00000  Uiso   1.00
H1455  H     0.80562   0.90002   0.36333   0.00000  Uiso   1.00
H1456  H     0.93843   0.82720   0.35765   0.00000  Uiso   1.00
H1457  H     0.56969   0.63442   0.62654   0.00000  Uiso   1.00
H1458  H     0.84311   0.57846   0.37257   0.00000  Uiso   1.00
H1459  H     0.65635   0.91119   0.62243   0.00000  Uiso   1.00
H1460  H     0.53133   0.60624   0.34142   0.00000  Uiso   1.00
H1461  H     0.91243   0.84544   0.62245   0.00000  Uiso   1.00
H1462  H     0.66338   0.95394   0.34955   0.00000  Uiso   1.00
H1463  H     0.77890   0.65667   0.83412   0.00000  Uiso   1.00
H1464  H     0.98420   0.87055   0.39409   0.00000  Uiso   1.00
H1465  H     0.52190   0.84007   0.46594   0.00000  Uiso   1.00
H1466  H     0.95423   0.64018   0.61158   0.00000  Uiso   1.00
H1467  H     0.62988   0.99717   0.39191   0.00000  Uiso   1.00
H1468  H     0.86776   0.52794   0.60676   0.00000  Uiso   1.00
H1469  H     0.95854   0.63601   0.39486   0.00000  Uiso   1.00
H1470  H     0.97977   0.86999   0.60588   0.00000  Uiso   1.00
H1471  H     0.87024   0.51295   0.39091   0.00000  Uiso   1.00
H1472  H     0.63115   0.97525   0.60312   0.00000  Uiso   1.00
H1473  H     0.74117   0.62008   0.88795   0.00000  Uiso   1.00
H1474  H     0.77166   0.88016   0.10379   0.00000  Uiso   1.00
H1475  H     0.88615   0.71270   0.88942   0.00000  Uiso   1.00
H1476  H     0.99530   0.65801   0.53489   0.00000  Uiso   1.00
H1477  H     0.61942   0.73309   0.10614   0.00000  Uiso   1.00
H1478  H     0.77054   0.88065   0.89368   0.00000  Uiso   1.00
H1479  H     0.71890   0.61783   0.10312   0.00000  Uiso   1.00
H1480  H     0.61652   0.71892   0.89710   0.00000  Uiso   1.00
H1481  H     0.88190   0.72463   0.11107   0.00000  Uiso   1.00
H1482  H     0.66146   0.52487   0.46695   0.00000  Uiso   1.00
H1483  H     0.84078   0.98301   0.53495   0.00000  Uiso   1.00
H1484  H     0.72998   0.91022   0.96515   0.00000  Uiso   1.00
O1485  O     0.75000   0.50000   0.25000   0.00000  Uiso   1.00
O1486  O     0.75000   0.96963   0.66245   0.00000  Uiso   1.00
O1487  O     0.81139   0.88929   0.33693   0.00000  Uiso   1.00
O1488  O     0.87481   0.83006   0.34514   0.00000  Uiso   1.00
O1489  O     0.93438   0.84117   0.33275   0.00000  Uiso   1.00
O1490  O     0.54316   0.63292   0.69029   0.00000  Uiso   1.00
O1491  O     0.58958   0.63296   0.64675   0.00000  Uiso   1.00
O1492  O     0.81092   0.62016   0.33164   0.00000  Uiso   1.00
O1493  O     0.85708   0.58173   0.34747   0.00000  Uiso   1.00
O1494  O     0.64378   0.94770   0.67887   0.00000  Uiso   1.00
O1495  O     0.64991   0.89484   0.64507   0.00000  Uiso   1.00
O1496  O     0.57321   0.65626   0.33490   0.00000  Uiso   1.00
O1497  O     0.96963   0.75000   0.33755   0.00000  Uiso   1.00
O1498  O     0.54809   0.60176   0.31854   0.00000  Uiso   1.00
O1499  O     0.94800   0.85660   0.67959   0.00000  Uiso   1.00
O1500  O     0.89579   0.85141   0.64501   0.00000  Uiso   1.00
O1501  O     0.65415   0.88954   0.35101   0.00000  Uiso   1.00
O1502  O     0.65131   0.94614   0.32465   0.00000  Uiso   1.00
O1503  O     0.77639   0.63541   0.76836   0.00000  Uiso   1.00
O1504  O     0.80447   0.65264   0.82397   0.00000  Uiso   1.00
O1505  O     0.51927   0.82230   0.36593   0.00000  Uiso   1.00
O1506  O     0.98268   0.84810   0.41115   0.00000  Uiso   1.00
O1507  O     0.50729   0.67364   0.63072   0.00000  Uiso   1.00
O1508  O     0.53036   0.75000   0.66245   0.00000  Uiso   1.00
O1509  O     0.95696   0.66258   0.59464   0.00000  Uiso   1.00
O1510  O     0.68109   0.53207   0.36975   0.00000  Uiso   1.00
O1511  O     0.65194   0.99131   0.40831   0.00000  Uiso   1.00
O1512  O     0.82392   0.98680   0.63366   0.00000  Uiso   1.00
O1513  O     0.84540   0.52736   0.58966   0.00000  Uiso   1.00
O1514  O     0.50574   0.67404   0.36854   0.00000  Uiso   1.00
O1515  O     0.95934   0.66004   0.40934   0.00000  Uiso   1.00
O1516  O     0.51646   0.82319   0.63431   0.00000  Uiso   1.00
O1517  O     0.97914   0.84741   0.58896   0.00000  Uiso   1.00
O1518  O     0.82145   0.97614   0.36717   0.00000  Uiso   1.00
O1519  O     0.50000   0.71964   0.83755   0.00000  Uiso   1.00
O1520  O     0.84809   0.51629   0.40808   0.00000  Uiso   1.00
O1521  O     0.67674   0.51107   0.63460   0.00000  Uiso   1.00
O1522  O     0.65395   0.97580   0.58658   0.00000  Uiso   1.00
O1523  O     0.78152   0.57133   0.87060   0.00000  Uiso   1.00
O1524  O     0.73547   0.59782   0.90426   0.00000  Uiso   1.00
O1525  O     0.73578   0.92705   0.13347   0.00000  Uiso   1.00
O1526  O     0.77211   0.90285   0.08701   0.00000  Uiso   1.00
O1527  O     0.92462   0.76152   0.86805   0.00000  Uiso   1.00
O1528  O     0.90839   0.71413   0.90664   0.00000  Uiso   1.00
O1529  O     0.57148   0.76882   0.13354   0.00000  Uiso   1.00
O1530  O     0.50000   0.78037   0.16245   0.00000  Uiso   1.00
O1531  O     0.59657   0.72991   0.09013   0.00000  Uiso   1.00
O1532  O     0.73340   0.92746   0.86588   0.00000  Uiso   1.00
O1533  O     0.77154   0.90328   0.91050   0.00000  Uiso   1.00
O1534  O     0.75924   0.57482   0.13318   0.00000  Uiso   1.00
O1535  O     0.71988   0.59463   0.08725   0.00000  Uiso   1.00
O1536  O     0.57439   0.76054   0.86745   0.00000  Uiso   1.00
O1537  O     0.59308   0.71955   0.91247   0.00000  Uiso   1.00
O1538  O     0.92589   0.76833   0.13213   0.00000  Uiso   1.00
O1539  O     0.90442   0.72279   0.09420   0.00000  Uiso   1.00
O1540  O     0.78036   0.50000   0.83755   0.00000  Uiso   1.00
O1541  O     0.71963   0.50000   0.16245   0.00000  Uiso   1.00
O1542  O     0.50000   0.78037   0.83755   0.00000  Uiso   1.00
O1543  O     0.50000   0.71964   0.16245   0.00000  Uiso   1.00
O1544  O     0.71963   0.50000   0.83755   0.00000  Uiso   1.00
O1545  O     0.75000   0.50000   0.75000   0.00000  Uiso   1.00
O1546  O     0.78036   0.50000   0.16245   0.00000  Uiso   1.00
O1547  O     0.70724   0.57307   0.27302   0.00000  Uiso   1.00
O1548  O     0.79275   0.92692   0.72698   0.00000  Uiso   1.00
O1549  O     0.92692   0.70724   0.27302   0.00000  Uiso   1.00
O1550  O     0.57307   0.79275   0.72698   0.00000  Uiso   1.00
O1551  O     0.79275   0.92692   0.27302   0.00000  Uiso   1.00
O1552  O     0.70724   0.57307   0.72698   0.00000  Uiso   1.00
O1553  O     0.57307   0.79275   0.27302   0.00000  Uiso   1.00
O1554  O     0.92692   0.70724   0.72698   0.00000  Uiso   1.00
O1555  O     0.70724   0.92692   0.72698   0.00000  Uiso   1.00
O1556  O     0.50000   0.75000   0.25000   0.00000  Uiso   1.00
O1557  O     0.79275   0.57307   0.27302   0.00000  Uiso   1.00
O1558  O     0.92692   0.79275   0.72698   0.00000  Uiso   1.00
O1559  O     0.57307   0.70724   0.27302   0.00000  Uiso   1.00
O1560  O     0.79275   0.57307   0.72698   0.00000  Uiso   1.00
O1561  O     0.70724   0.92692   0.27302   0.00000  Uiso   1.00
O1562  O     0.57307   0.70724   0.72698   0.00000  Uiso   1.00
O1563  O     0.92692   0.79275   0.27302   0.00000  Uiso   1.00
O1564  O     0.95724   0.82307   0.77302   0.00000  Uiso   1.00
O1565  O     0.54275   0.67692   0.22698   0.00000  Uiso   1.00
O1566  O     0.67692   0.95724   0.77302   0.00000  Uiso   1.00
O1567  O     0.50000   0.75000   0.75000   0.00000  Uiso   1.00
O1568  O     0.82307   0.54275   0.22698   0.00000  Uiso   1.00
O1569  O     0.54275   0.67692   0.77302   0.00000  Uiso   1.00
O1570  O     0.95724   0.82307   0.22698   0.00000  Uiso   1.00
O1571  O     0.82307   0.54275   0.77302   0.00000  Uiso   1.00
O1572  O     0.67692   0.95724   0.22698   0.00000  Uiso   1.00
O1573  O     0.95724   0.67692   0.22698   0.00000  Uiso   1.00
O1574  O     0.54275   0.82308   0.77302   0.00000  Uiso   1.00
O1575  O     0.67692   0.54275   0.22698   0.00000  Uiso   1.00
O1576  O     0.82307   0.95724   0.77302   0.00000  Uiso   1.00
O1577  O     0.54275   0.82308   0.22698   0.00000  Uiso   1.00
O1578  O     0.75000   0.96963   0.33755   0.00000  Uiso   1.00
O1579  O     0.95724   0.67692   0.77302   0.00000  Uiso   1.00
O1580  O     0.82307   0.95724   0.22698   0.00000  Uiso   1.00
O1581  O     0.67692   0.54275   0.77302   0.00000  Uiso   1.00
O1582  O     0.69570   0.88497   0.17833   0.00000  Uiso   1.00
O1583  O     0.64576   0.90610   0.14661   0.00000  Uiso   1.00
O1584  O     0.86817   0.53936   0.69472   0.00000  Uiso   1.00
O1585  O     0.92143   0.53476   0.72746   0.00000  Uiso   1.00
O1586  O     0.61078   0.70380   0.18446   0.00000  Uiso   1.00
O1587  O     0.61860   0.65378   0.14636   0.00000  Uiso   1.00
O1588  O     0.91788   0.83586   0.83756   0.00000  Uiso   1.00
O1589  O     0.75000   0.53036   0.66245   0.00000  Uiso   1.00
O1590  O     0.85988   0.81459   0.83616   0.00000  Uiso   1.00
O1591  O     0.82206   0.59778   0.16646   0.00000  Uiso   1.00
O1592  O     0.87709   0.57186   0.15456   0.00000  Uiso   1.00
O1593  O     0.66118   0.91813   0.83807   0.00000  Uiso   1.00
O1594  O     0.68580   0.86123   0.83583   0.00000  Uiso   1.00
O1595  O     0.88485   0.82907   0.15816   0.00000  Uiso   1.00
O1596  O     0.93797   0.86046   0.16237   0.00000  Uiso   1.00
O1597  O     0.59448   0.68534   0.83025   0.00000  Uiso   1.00
O1598  O     0.65470   0.69596   0.82068   0.00000  Uiso   1.00
O1599  O     0.70369   0.61024   0.81497   0.00000  Uiso   1.00
O1600  O     0.53036   0.75000   0.33755   0.00000  Uiso   1.00
O1601  O     0.65458   0.61747   0.85429   0.00000  Uiso   1.00
O1602  O     0.87709   0.92061   0.15564   0.00000  Uiso   1.00
O1603  O     0.81718   0.91030   0.16664   0.00000  Uiso   1.00
O1604  O     0.61444   0.79898   0.81612   0.00000  Uiso   1.00
O1605  O     0.60310   0.84839   0.85416   0.00000  Uiso   1.00
O1606  O     0.94380   0.62670   0.17307   0.00000  Uiso   1.00
O1607  O     0.89615   0.65878   0.14883   0.00000  Uiso   1.00
O1608  O     0.80218   0.89374   0.82063   0.00000  Uiso   1.00
O1609  O     0.85455   0.89854   0.85503   0.00000  Uiso   1.00
O1610  O     0.68801   0.59595   0.17194   0.00000  Uiso   1.00
O1611  O     0.96963   0.75000   0.66245   0.00000  Uiso   1.00
O1612  O     0.69663   0.65668   0.18098   0.00000  Uiso   1.00
O1613  O     0.97360   0.61378   0.73377   0.00000  Uiso   1.00
O1614  O     0.94666   0.59654   0.67753   0.00000  Uiso   1.00
O1615  O     0.57699   0.84427   0.16207   0.00000  Uiso   1.00
O1616  O     0.63352   0.81920   0.15941   0.00000  Uiso   1.00
O1617  O     0.88190   0.71114   0.80463   0.00000  Uiso   1.00
O1618  O     0.82797   0.71479   0.77307   0.00000  Uiso   1.00
O1619  O     0.56902   0.87400   0.33707   0.00000  Uiso   1.00
O1620  O     0.60199   0.82155   0.34114   0.00000  Uiso   1.00
O1621  O     0.83184   0.91302   0.66223   0.00000  Uiso   1.00
O1622  O     0.75000   0.53036   0.33755   0.00000  Uiso   1.00
O1623  O     0.88946   0.93536   0.66368   0.00000  Uiso   1.00
O1624  O     0.63036   0.53920   0.30462   0.00000  Uiso   1.00
O1625  O     0.62039   0.58218   0.35083   0.00000  Uiso   1.00
O1626  O     0.58789   0.83149   0.66204   0.00000  Uiso   1.00
O1627  O     0.56568   0.88939   0.66254   0.00000  Uiso   1.00
O1628  O     0.93115   0.65531   0.33067   0.00000  Uiso   1.00
O1629  O     0.87420   0.67147   0.34954   0.00000  Uiso   1.00
O1630  O     0.66064   0.57969   0.66321   0.00000  Uiso   1.00
O1631  O     0.60519   0.55413   0.67384   0.00000  Uiso   1.00
O1632  O     0.86526   0.91913   0.34293   0.00000  Uiso   1.00
Zn1633 Zn    0.70659   0.50000   0.21735   0.00000  Uiso   1.00
Zn1634 Zn    0.54340   0.75000   0.28265   0.00000  Uiso   1.00
Zn1635 Zn    0.75000   0.95659   0.71735   0.00000  Uiso   1.00
Zn1636 Zn    0.75000   0.54340   0.28265   0.00000  Uiso   1.00
Zn1637 Zn    0.54340   0.75000   0.71735   0.00000  Uiso   1.00
Zn1638 Zn    0.95659   0.75000   0.28265   0.00000  Uiso   1.00
Zn1639 Zn    0.75000   0.54340   0.71735   0.00000  Uiso   1.00
Zn1640 Zn    0.75000   0.95659   0.28265   0.00000  Uiso   1.00
Zn1641 Zn    0.79340   0.50000   0.78265   0.00000  Uiso   1.00
Zn1642 Zn    0.50000   0.70660   0.21735   0.00000  Uiso   1.00
Zn1643 Zn    0.50000   0.79340   0.78265   0.00000  Uiso   1.00
Zn1644 Zn    0.79340   0.50000   0.21735   0.00000  Uiso   1.00
Zn1645 Zn    0.70659   0.50000   0.78265   0.00000  Uiso   1.00
Zn1646 Zn    0.50000   0.79341   0.21735   0.00000  Uiso   1.00
Zn1647 Zn    0.50000   0.70659   0.78265   0.00000  Uiso   1.00
Zn1648 Zn    0.95659   0.75000   0.71735   0.00000  Uiso   1.00
loop_
_geom_bond_atom_site_label_1
_geom_bond_atom_site_label_2
_geom_bond_distance
_geom_bond_site_symmetry_2
_ccdc_geom_bond_type
C1     C79     1.416   .     A
C1     C78     1.496   .     S
C1     C4      1.413   .     A
C2     C14     1.412   .     A
C2     C88     1.491   .     S
C2     C924    1.416   .     S
C3     C163    1.409   .     A
C3     C106    1.402   .     A
C3     C38     1.414   .     A
C4     C107    1.406   .     A
C4     C34     1.416   .     A
C5     C97     1.409   .     A
C5     C109    1.403   .     A
C5     C448    1.416   .     S
C6     C110    1.407   .     A
C6     C37     1.415   .     A
C6     C108    1.410   .     A
C7     C119    1.411   .     A
C7     C111    1.404   .     A
C7     C862    1.414   .     S
C8     C35     1.410   .     A
C8     C112    1.404   .     A
C8     C863    1.416   .     S
C9     C46     1.411   .     A
C9     C113    1.405   .     A
C9     C40     1.413   .     A
C10    C114    1.403   .     A
C10    C57     1.408   .     A
C10    C453    1.414   1_455 S
C11    C115    1.407   .     A
C11    C68     1.414   .     A
C11    C42     1.416   .     A
C12    C174    1.411   .     A
C12    C39     1.416   .     A
C12    C116    1.406   .     A
C13    C15     1.413   .     A
C13    C101    1.412   .     A
C13    C89     1.491   .     S
C14    C117    1.405   .     A
C14    C864    1.414   .     S
C15    C118    1.404   .     A
C15    C41     1.416   .     A
C16    C120    1.405   .     A
C16    C24     1.411   .     A
C16    C454    1.418   1_455 S
C17    C164    1.413   .     A
C17    C166    1.414   .     A
C17    C136    1.462   .     S
C18    C137    1.463   .     S
C18    C165    1.414   .     A
C18    C162    1.415   .     A
C19    C129    1.460   .     S
C19    C161    1.412   .     A
C19    C168    1.414   .     A
C20    C160    1.412   .     A
C20    C167    1.414   .     A
C20    C131    1.460   .     S
C21    C159    1.417   .     A
C21    C132    1.463   .     S
C21    C170    1.413   .     A
C22    C133    1.463   .     S
C22    C158    1.409   .     A
C22    C169    1.414   .     A
C23    C134    1.461   .     S
C23    C157    1.415   .     A
C23    C172    1.414   .     A
C24    C91     1.497   .     S
C24    C514    1.412   1_455 S
C25    C171    1.412   .     A
C25    C135    1.461   .     S
C25    C156    1.413   .     A
C26    C155    1.412   .     A
C26    C145    1.459   .     S
C26    C175    1.411   .     A
C27    C154    1.412   .     A
C27    C146    1.458   .     S
C27    C173    1.414   .     A
C28    C153    1.413   .     A
C28    C177    1.411   .     A
C28    C138    1.460   .     S
C29    C151    1.411   .     A
C29    C139    1.462   .     S
C29    C176    1.416   .     A
C30    C150    1.414   .     A
C30    C179    1.412   .     A
C30    C140    1.460   .     S
C31    C178    1.410   .     A
C31    C149    1.411   .     A
C31    C142    1.460   .     S
C32    C181    1.415   .     A
C32    C148    1.413   .     A
C32    C143    1.462   .     S
C33    C147    1.408   .     A
C33    C144    1.461   .     S
C33    C180    1.411   .     A
C34    C36     1.420   .     A
C34    C594    1.415   1_455 S
C35    C92     1.495   .     S
C35    C923    1.412   .     S
C36    C183    1.416   .     A
C36    C417    1.416   1_455 S
C37    C38     1.419   .     A
C37    C1008   1.416   1_545 S
C38    C831    1.414   1_545 S
C39    C832    1.416   1_545 S
C39    C40     1.419   1_556 S
C40    C838    1.414   1_545 S
C40    C39     1.419   1_554 S
C41    C422    1.414   .     S
C41    C42     1.420   1_556 S
C42    C428    1.418   .     S
C42    C41     1.420   1_554 S
C43    O347    1.398   .     S
C43    O346    1.221   .     D
C43    C147    1.480   .     S
C44    O348    1.223   .     D
C44    C148    1.492   .     S
C44    O349    1.398   .     S
C45    O350    1.223   .     D
C45    O351    1.399   .     S
C45    C149    1.488   .     S
C46    C100    1.414   .     A
C46    C93     1.492   .     S
C47    O352    1.222   .     D
C47    C150    1.485   .     S
C47    O354    1.398   .     S
C48    C151    1.486   .     S
C48    O355    1.221   .     D
C48    O356    1.398   .     S
C49    C153    1.483   .     S
C49    O357    1.222   .     D
C49    O358    1.398   .     S
C50    O359    1.222   .     D
C50    O360    1.398   .     S
C50    C154    1.484   .     S
C51    C155    1.486   .     S
C51    O362    1.398   .     S
C51    O361    1.222   .     D
C52    O365    1.399   .     S
C52    O363    1.223   .     D
C52    C156    1.490   .     S
C53    O366    1.223   .     D
C53    O367    1.395   .     S
C53    C157    1.489   .     S
C54    O369    1.398   .     S
C54    O368    1.222   .     D
C54    C158    1.484   .     S
C55    O370    1.223   .     D
C55    O371    1.395   .     S
C55    C159    1.484   .     S
C56    O372    1.223   .     D
C56    O373    1.398   .     S
C56    C160    1.491   .     S
C57    C94     1.489   .     S
C57    C513    1.411   1_455 S
C58    O374    1.222   .     D
C58    O376    1.398   .     S
C58    C161    1.488   .     S
C59    O377    1.222   .     D
C59    C162    1.489   .     S
C59    O378    1.398   .     S
C60    O380    1.398   .     S
C60    C164    1.484   .     S
C60    O379    1.222   .     D
C61    C165    1.492   .     S
C61    O381    1.223   .     D
C61    O382    1.398   .     S
C62    O383    1.222   .     D
C62    C166    1.480   .     S
C62    O384    1.398   .     S
C63    O387    1.398   .     S
C63    C167    1.484   .     S
C63    O385    1.222   .     D
C64    O388    1.223   .     D
C64    O389    1.399   .     S
C64    C168    1.491   .     S
C65    O390    1.222   .     D
C65    C169    1.483   .     S
C65    O391    1.398   .     S
C66    O393    1.398   .     S
C66    O392    1.222   .     D
C66    C170    1.489   .     S
C67    O394    1.222   .     D
C67    O395    1.398   .     S
C67    C171    1.481   .     S
C68    C95     1.493   .     S
C68    C102    1.414   .     A
C69    O251    1.398   .     S
C69    O396    1.222   .     D
C69    C172    1.484   .     S
C70    O252    1.223   .     D
C70    O253    1.396   .     S
C70    C173    1.490   .     S
C71    C175    1.489   .     S
C71    O255    1.399   .     S
C71    O254    1.222   .     D
C72    O257    1.395   .     S
C72    C176    1.482   .     S
C72    O256    1.223   .     D
C73    O259    1.398   .     S
C73    O258    1.223   .     D
C73    C177    1.489   .     S
C74    C178    1.483   .     S
C74    O260    1.222   .     D
C74    O262    1.398   .     S
C75    O263    1.223   .     D
C75    C179    1.491   .     S
C75    O264    1.398   .     S
C76    O266    1.396   .     S
C76    C180    1.489   .     S
C76    O265    1.223   .     D
C77    C181    1.490   .     S
C77    O268    1.398   .     S
C77    O267    1.223   .     D
C78    O269    1.221   .     D
C78    O682    1.400   1_455 S
C79    C535    1.463   1_455 S
C79    C542    1.414   1_455 S
C80    C97     1.490   .     S
C80    O273    1.398   .     S
C80    O683    1.222   .     S
C81    C108    1.489   .     S
C81    O274    1.221   .     D
C81    O1099   1.399   1_545 S
C82    O277    1.399   .     S
C82    C943    1.494   1_545 S
C82    O1100   1.222   1_545 S
C83    O279    1.399   .     S
C83    C130    1.492   .     S
C83    O690    1.221   .     S
C84    O280    1.221   .     D
C84    C141    1.495   .     S
C84    O693    1.399   1_455 S
C85    O282    1.221   .     D
C85    C152    1.494   .     S
C85    O1108   1.398   .     S
C86    O286    1.399   .     S
C86    C987    1.496   .     S
C86    O1109   1.221   .     S
C87    O287    1.223   .     D
C87    C174    1.492   .     S
C87    O288    1.397   .     S
C88    O290    1.400   .     S
C88    O289    1.219   .     D
C89    O292    1.399   .     S
C89    O291    1.222   .     D
C90    C141    1.413   .     A
C90    C509    1.410   1_455 S
C90    C124    1.457   .     S
C91    O295    1.397   .     S
C91    O293    1.221   .     D
C92    O297    1.399   .     S
C92    O296    1.221   .     D
C93    O299    1.399   .     S
C93    O298    1.221   .     D
C94    O300    1.220   .     D
C94    O301    1.399   .     S
C95    O303    1.397   .     S
C95    O302    1.222   .     D
C96    C108    1.414   .     A
C96    C121    1.465   .     S
C96    C976    1.415   1_545 S
C97    C502    1.410   .     S
C98    C122    1.456   .     S
C98    C163    1.413   .     A
C98    C943    1.414   1_545 S
C99    C174    1.412   .     A
C99    C127    1.456   .     S
C99    C859    1.412   1_545 S
C100   C128    1.465   .     S
C100   C826    1.416   1_545 S
C101   C125    1.460   .     S
C101   C469    1.411   .     S
C102   C126    1.459   .     S
C102   C436    1.412   .     S
C103   H185    1.080   .     S
C103   C109    1.384   .     A
C103   C182    1.407   .     A
C104   C107    1.385   .     A
C104   C183    1.404   .     A
C104   H196    1.081   .     S
C105   C184    1.407   .     A
C105   C111    1.387   .     A
C105   H207    1.080   .     S
C106   H218    1.082   .     S
C106   C110    1.383   .     A
C107   H229    1.080   .     S
C109   H240    1.081   .     S
C110   H246    1.080   .     S
C111   H247    1.082   .     S
C112   H248    1.081   .     S
C112   C117    1.384   1_556 S
C113   H186    1.082   .     S
C113   C116    1.385   1_554 S
C114   H187    1.082   .     S
C114   C120    1.382   1_556 S
C115   H188    1.079   .     S
C115   C118    1.386   1_554 S
C116   H189    1.081   .     S
C116   C113    1.385   1_556 S
C117   H190    1.081   .     S
C117   C112    1.384   1_554 S
C118   H191    1.081   .     S
C118   C115    1.386   1_556 S
C119   C922    1.414   .     S
C119   C906    1.494   .     S
C120   H192    1.080   .     S
C120   C114    1.382   1_554 S
C121   O386    1.277   .     A
C121   O1166   1.282   1_545 S
C122   O353    1.277   .     A
C122   O1074   1.277   1_545 S
C123   O261    1.281   .     A
C123   C491    1.463   .     S
C123   O776    1.282   .     S
C124   O787    1.278   1_455 A
C124   O272    1.281   .     S
C125   O695    1.277   .     S
C125   O718    1.280   .     S
C126   O706    1.276   .     S
C126   O719    1.280   .     S
C127   O308    1.283   .     A
C127   O304    1.277   .     A
C128   O305    1.280   .     A
C128   O310    1.284   .     A
C129   O311    1.284   .     A
C129   O339    1.280   .     A
C130   C182    1.412   .     A
C130   C491    1.414   .     S
C131   O340    1.286   .     A
C131   O312    1.280   .     A
C132   O337    1.275   .     A
C132   O313    1.289   .     A
C133   O338    1.287   .     A
C133   O314    1.276   .     A
C134   O344    1.283   .     A
C134   O315    1.281   .     A
C135   O316    1.279   .     A
C135   O345    1.284   .     A
C136   O317    1.283   .     A
C136   O341    1.283   .     A
C137   O343    1.280   .     A
C137   O318    1.285   .     A
C138   O330    1.277   .     A
C138   O319    1.285   .     A
C139   O321    1.277   .     A
C139   O332    1.286   .     A
C140   O328    1.280   .     A
C140   O322    1.286   .     A
C141   C183    1.411   .     A
C142   O323    1.281   .     A
C142   O329    1.283   .     A
C143   O324    1.280   .     A
C143   O335    1.285   .     A
C144   O336    1.284   .     A
C144   O325    1.281   .     A
C145   O333    1.279   .     A
C145   O326    1.282   .     A
C146   O334    1.280   .     A
C146   O327    1.282   .     A
C147   C164    1.402   .     A
C148   C162    1.410   .     A
C149   C161    1.407   .     A
C150   C160    1.406   .     A
C151   C159    1.398   .     A
C152   C184    1.414   .     A
C152   C920    1.415   .     S
C153   C158    1.404   .     A
C154   C157    1.400   .     A
C155   C156    1.408   .     A
C163   C910    1.496   1_545 S
C165   C181    1.410   .     A
C166   C180    1.405   .     A
C167   C179    1.406   .     A
C168   C178    1.409   .     A
C169   C177    1.406   .     A
C170   C176    1.401   .     A
C171   C175    1.406   .     A
C172   C173    1.400   .     A
C182   C446    1.415   .     S
C184   C861    1.416   .     S
H193   O347    1.014   .     S
H194   O349    1.014   .     S
H195   O351    1.010   .     S
H197   O354    1.013   .     S
H198   O356    1.014   .     S
H199   O358    1.013   .     S
H200   O360    1.014   .     S
H201   O362    1.013   .     S
H202   O365    1.012   .     S
H203   O367    1.012   .     S
H204   O369    1.013   .     S
H205   O371    1.013   .     S
H206   O373    1.013   .     S
H208   O376    1.013   .     S
H209   O378    1.014   .     S
H210   O380    1.013   .     S
H211   O382    1.014   .     S
H212   O384    1.013   .     S
H213   O387    1.013   .     S
H214   O389    1.013   .     S
H215   O391    1.013   .     S
H216   O393    1.014   .     S
H217   O395    1.013   .     S
H219   O251    1.014   .     S
H220   O253    1.012   .     S
H221   O255    1.013   .     S
H222   O257    1.013   .     S
H223   O259    1.013   .     S
H224   O262    1.014   .     S
H225   O264    1.013   .     S
H226   O266    1.009   .     S
H227   O268    1.014   .     S
H228   O270    1.014   .     S
H230   O273    1.013   .     S
H231   O275    1.014   .     S
H232   O277    1.014   .     S
H233   O279    1.013   .     S
H234   O281    1.014   .     S
H235   O284    1.014   .     S
H236   O286    1.014   .     S
H237   O288    1.014   .     S
H238   O290    1.014   .     S
H239   O292    1.014   .     S
H241   O295    1.014   .     S
H242   O297    1.014   .     S
H243   O299    1.012   .     S
H244   O301    1.012   .     S
H245   O303    1.014   .     S
O249   Zn408   1.952   .     S
O249   Zn400   1.950   .     S
O249   Zn397   1.957   .     S
O249   Zn1228  1.951   1_545 S
O250   Zn399   1.953   .     S
O250   C946    1.277   .     S
O261   Zn402   1.955   .     S
O270   C490    1.400   .     S
O271   C492    1.222   1_455 S
O272   Zn401   1.955   .     S
O275   C905    1.399   .     S
O276   C906    1.222   .     S
O278   C495    1.221   1_455 S
O281   C496    1.399   .     S
O283   C537    1.277   1_455 S
O283   Zn411   1.953   .     S
O284   C909    1.398   1_545 S
O285   C910    1.221   1_545 S
O294   Zn410   1.953   .     S
O294   C538    1.276   1_455 S
O304   Zn405   1.953   .     S
O305   Zn397   1.953   .     S
O306   C537    1.280   1_455 S
O306   Zn407   1.953   .     S
O307   Zn406   1.953   .     S
O307   C538    1.280   1_455 S
O308   Zn409   1.955   .     S
O309   Zn403   1.951   .     S
O309   Zn409   1.952   .     S
O309   Zn405   1.957   .     S
O309   Zn1223  1.950   1_545 S
O310   Zn408   1.955   .     S
O311   Zn400   1.942   .     S
O312   Zn399   1.942   .     S
O313   Zn402   1.941   .     S
O314   Zn401   1.941   .     S
O315   Zn404   1.940   .     S
O316   Zn403   1.940   .     S
O317   Zn398   1.941   .     S
O318   Zn412   1.941   .     S
O319   Zn399   1.942   .     S
O320   Zn410   1.951   .     S
O320   Zn406   1.950   .     S
O320   Zn398   1.957   .     S
O320   Zn814   1.952   1_455 S
O321   Zn400   1.942   .     S
O322   Zn412   1.938   .     S
O323   Zn398   1.938   .     S
O324   Zn403   1.944   .     S
O325   Zn404   1.944   .     S
O326   Zn401   1.939   .     S
O327   Zn402   1.939   .     S
O328   Zn819   1.942   .     S
O329   Zn406   1.942   .     S
O330   Zn1233  1.941   .     S
O331   Zn824   1.957   1_455 S
O331   Zn411   1.951   .     S
O331   Zn407   1.950   .     S
O331   Zn401   1.952   .     S
O332   Zn408   1.941   .     S
O333   Zn411   1.940   .     S
O334   Zn822   1.940   .     S
O335   Zn405   1.941   .     S
O336   Zn1221  1.941   .     S
O337   Zn818   1.942   .     S
O338   Zn407   1.942   .     S
O339   Zn397   1.938   .     S
O340   Zn1229  1.938   .     S
O341   Zn410   1.944   .     S
O342   Zn404   1.953   .     S
O342   C945    1.282   .     S
O343   Zn823   1.944   .     S
O344   Zn1232  1.939   .     S
O345   Zn409   1.939   .     S
O353   Zn403   1.953   .     S
O364   Zn398   1.953   .     S
O364   C535    1.282   1_455 S
O375   Zn412   1.953   .     S
O375   C536    1.278   .     A
O386   Zn400   1.953   .     S
Zn397  O1160   1.941   1_545 S
Zn399  O1133   1.950   .     S
Zn402  O732    1.952   .     S
Zn404  O1073   1.951   .     S
Zn405  O1164   1.938   1_545 S
Zn406  O749    1.942   1_455 S
Zn407  O740    1.942   1_455 S
Zn408  O1168   1.939   1_545 S
Zn409  O1154   1.941   1_545 S
Zn410  O746    1.940   1_455 S
Zn411  O755    1.944   1_455 S
Zn412  O743    1.957   .     S
C413   C491    1.416   .     A
C413   C490    1.496   .     S
C413   C416    1.413   .     A
C414   C426    1.412   .     A
C414   C500    1.491   .     S
C414   C1336   1.416   .     S
C415   C575    1.409   .     A
C415   C518    1.402   .     A
C415   C450    1.414   .     A
C416   C519    1.406   .     A
C416   C446    1.416   .     A
C417   C509    1.409   .     A
C417   C521    1.403   .     A
C417   C36     1.416   1_655 S
C418   C522    1.407   .     A
C418   C449    1.415   .     A
C418   C520    1.410   .     A
C419   C531    1.411   .     A
C419   C523    1.404   .     A
C419   C1274   1.414   .     S
C420   C447    1.410   .     A
C420   C524    1.404   .     A
C420   C1275   1.416   .     S
C421   C458    1.411   .     A
C421   C525    1.405   .     A
C421   C452    1.413   .     A
C422   C526    1.403   .     A
C422   C469    1.408   .     A
C423   C527    1.407   .     A
C423   C480    1.414   .     A
C423   C454    1.416   .     A
C424   C586    1.411   .     A
C424   C451    1.416   .     A
C424   C528    1.406   .     A
C425   C427    1.413   .     A
C425   C513    1.412   .     A
C425   C501    1.491   .     S
C426   C529    1.405   .     A
C426   C1276   1.414   .     S
C427   C530    1.404   .     A
C427   C453    1.416   .     A
C428   C532    1.405   .     A
C428   C436    1.411   .     A
C429   C576    1.413   .     A
C429   C578    1.414   .     A
C429   C548    1.462   .     S
C430   C549    1.463   .     S
C430   C577    1.414   .     A
C430   C574    1.415   .     A
C431   C541    1.460   .     S
C431   C573    1.412   .     A
C431   C580    1.414   .     A
C432   C572    1.412   .     A
C432   C579    1.414   .     A
C432   C543    1.460   .     S
C433   C571    1.417   .     A
C433   C544    1.463   .     S
C433   C582    1.413   .     A
C434   C545    1.463   .     S
C434   C570    1.409   .     A
C434   C581    1.414   .     A
C435   C546    1.461   .     S
C435   C569    1.415   .     A
C435   C584    1.414   .     A
C436   C503    1.497   .     S
C437   C583    1.412   .     A
C437   C547    1.461   .     S
C437   C568    1.413   .     A
C438   C567    1.412   .     A
C438   C557    1.459   .     S
C438   C587    1.411   .     A
C439   C566    1.412   .     A
C439   C558    1.458   .     S
C439   C585    1.414   .     A
C440   C565    1.413   .     A
C440   C589    1.411   .     A
C440   C550    1.460   .     S
C441   C563    1.411   .     A
C441   C551    1.462   .     S
C441   C588    1.416   .     A
C442   C562    1.414   .     A
C442   C591    1.412   .     A
C442   C552    1.460   .     S
C443   C590    1.410   .     A
C443   C561    1.411   .     A
C443   C554    1.460   .     S
C444   C593    1.415   .     A
C444   C560    1.413   .     A
C444   C555    1.462   .     S
C445   C559    1.408   .     A
C445   C556    1.461   .     S
C445   C592    1.411   .     A
C446   C448    1.420   .     A
C447   C504    1.495   .     S
C447   C1335   1.412   .     S
C448   C595    1.416   .     A
C449   C450    1.419   .     A
C449   C1420   1.416   1_545 S
C450   C1243   1.414   1_545 S
C451   C1244   1.416   1_545 S
C451   C452    1.419   1_556 S
C452   C1250   1.414   1_545 S
C452   C451    1.419   1_554 S
C453   C10     1.414   1_655 S
C453   C454    1.420   1_556 S
C454   C16     1.418   1_655 S
C454   C453    1.420   1_554 S
C455   O759    1.398   .     S
C455   O758    1.221   .     D
C455   C559    1.480   .     S
C456   O760    1.223   .     D
C456   C560    1.492   .     S
C456   O761    1.398   .     S
C457   O762    1.223   .     D
C457   O763    1.399   .     S
C457   C561    1.488   .     S
C458   C512    1.414   .     A
C458   C505    1.492   .     S
C459   O764    1.222   .     D
C459   C562    1.485   .     S
C459   O766    1.398   .     S
C460   C563    1.486   .     S
C460   O767    1.221   .     D
C460   O768    1.398   .     S
C461   C565    1.483   .     S
C461   O769    1.222   .     D
C461   O770    1.398   .     S
C462   O771    1.222   .     D
C462   O772    1.398   .     S
C462   C566    1.484   .     S
C463   C567    1.486   .     S
C463   O774    1.398   .     S
C463   O773    1.222   .     D
C464   O777    1.399   .     S
C464   O775    1.223   .     D
C464   C568    1.490   .     S
C465   O778    1.223   .     D
C465   O779    1.395   .     S
C465   C569    1.489   .     S
C466   O781    1.398   .     S
C466   O780    1.222   .     D
C466   C570    1.484   .     S
C467   O782    1.223   .     D
C467   O783    1.395   .     S
C467   C571    1.484   .     S
C468   O784    1.223   .     D
C468   O785    1.398   .     S
C468   C572    1.491   .     S
C469   C506    1.489   .     S
C470   O786    1.222   .     D
C470   O788    1.398   .     S
C470   C573    1.488   .     S
C471   O789    1.222   .     D
C471   C574    1.489   .     S
C471   O790    1.398   .     S
C472   O792    1.398   .     S
C472   C576    1.484   .     S
C472   O791    1.222   .     D
C473   C577    1.492   .     S
C473   O793    1.223   .     D
C473   O794    1.398   .     S
C474   O795    1.222   .     D
C474   C578    1.480   .     S
C474   O796    1.398   .     S
C475   O799    1.398   .     S
C475   C579    1.484   .     S
C475   O797    1.222   .     D
C476   O800    1.223   .     D
C476   O801    1.399   .     S
C476   C580    1.491   .     S
C477   O802    1.222   .     D
C477   C581    1.483   .     S
C477   O803    1.398   .     S
C478   O805    1.398   .     S
C478   O804    1.222   .     D
C478   C582    1.489   .     S
C479   O806    1.222   .     D
C479   O807    1.398   .     S
C479   C583    1.481   .     S
C480   C507    1.493   .     S
C480   C514    1.414   .     A
C481   O663    1.398   .     S
C481   O808    1.222   .     D
C481   C584    1.484   .     S
C482   O664    1.223   .     D
C482   O665    1.396   .     S
C482   C585    1.490   .     S
C483   C587    1.489   .     S
C483   O667    1.399   .     S
C483   O666    1.222   .     D
C484   O669    1.395   .     S
C484   C588    1.482   .     S
C484   O668    1.223   .     D
C485   O671    1.398   .     S
C485   O670    1.223   .     D
C485   C589    1.489   .     S
C486   C590    1.483   .     S
C486   O672    1.222   .     D
C486   O674    1.398   .     S
C487   O675    1.223   .     D
C487   C591    1.491   .     S
C487   O676    1.398   .     S
C488   O678    1.396   .     S
C488   C592    1.489   .     S
C488   O677    1.223   .     D
C489   C593    1.490   .     S
C489   O680    1.398   .     S
C489   O679    1.223   .     D
C490   O681    1.221   .     D
C492   C509    1.490   .     S
C492   O685    1.398   .     S
C492   O271    1.222   1_655 S
C493   C520    1.489   .     S
C493   O686    1.221   .     D
C493   O1511   1.399   1_545 S
C494   O689    1.399   .     S
C494   C1355   1.494   1_545 S
C494   O1512   1.222   1_545 S
C495   O691    1.399   .     S
C495   C542    1.492   .     S
C495   O278    1.221   1_655 S
C496   O692    1.221   .     D
C496   C553    1.495   .     S
C497   O694    1.221   .     D
C497   C564    1.494   .     S
C497   O1520   1.398   .     S
C498   O698    1.399   .     S
C498   C1399   1.496   .     S
C498   O1521   1.221   .     S
C499   O699    1.223   .     D
C499   C586    1.492   .     S
C499   O700    1.397   .     S
C500   O702    1.400   .     S
C500   O701    1.219   .     D
C501   O704    1.399   .     S
C501   O703    1.222   .     D
C502   C553    1.413   .     A
C502   C536    1.457   .     S
C503   O707    1.397   .     S
C503   O705    1.221   .     D
C504   O709    1.399   .     S
C504   O708    1.221   .     D
C505   O711    1.399   .     S
C505   O710    1.221   .     D
C506   O712    1.220   .     D
C506   O713    1.399   .     S
C507   O715    1.397   .     S
C507   O714    1.222   .     D
C508   C520    1.414   .     A
C508   C533    1.465   .     S
C508   C1388   1.415   1_545 S
C509   C90     1.410   1_655 S
C510   C534    1.456   .     S
C510   C575    1.413   .     A
C510   C1355   1.414   1_545 S
C511   C586    1.412   .     A
C511   C539    1.456   .     S
C511   C1271   1.412   1_545 S
C512   C540    1.465   .     S
C512   C1238   1.416   1_545 S
C513   C537    1.460   .     S
C513   C57     1.411   1_655 S
C514   C538    1.459   .     S
C514   C24     1.412   1_655 S
C515   H597    1.080   .     S
C515   C521    1.384   .     A
C515   C594    1.407   .     A
C516   C519    1.385   .     A
C516   C595    1.404   .     A
C516   H608    1.081   .     S
C517   C596    1.407   .     A
C517   C523    1.387   .     A
C517   H619    1.080   .     S
C518   H630    1.082   .     S
C518   C522    1.383   .     A
C519   H641    1.080   .     S
C521   H652    1.081   .     S
C522   H658    1.080   .     S
C523   H659    1.082   .     S
C524   H660    1.081   .     S
C524   C529    1.384   1_556 S
C525   H598    1.082   .     S
C525   C528    1.385   1_554 S
C526   H599    1.082   .     S
C526   C532    1.382   1_556 S
C527   H600    1.079   .     S
C527   C530    1.386   1_554 S
C528   H601    1.081   .     S
C528   C525    1.385   1_556 S
C529   H602    1.081   .     S
C529   C524    1.384   1_554 S
C530   H603    1.081   .     S
C530   C527    1.386   1_556 S
C531   C1334   1.414   .     S
C531   C1318   1.494   .     S
C532   H604    1.080   .     S
C532   C526    1.382   1_554 S
C533   O798    1.277   .     A
C533   O1578   1.282   1_545 S
C534   O765    1.277   .     A
C534   O1486   1.277   1_545 S
C535   O673    1.281   .     A
C535   C79     1.463   1_655 S
C535   O364    1.282   1_655 S
C536   O684    1.281   .     S
C537   O283    1.277   1_655 S
C537   O306    1.280   1_655 S
C538   O294    1.276   1_655 S
C538   O307    1.280   1_655 S
C539   O720    1.283   .     A
C539   O716    1.277   .     A
C540   O717    1.280   .     A
C540   O722    1.284   .     A
C541   O723    1.284   .     A
C541   O751    1.280   .     A
C542   C594    1.412   .     A
C542   C79     1.414   1_655 S
C543   O752    1.286   .     A
C543   O724    1.280   .     A
C544   O749    1.275   .     A
C544   O725    1.289   .     A
C545   O750    1.287   .     A
C545   O726    1.276   .     A
C546   O756    1.283   .     A
C546   O727    1.281   .     A
C547   O728    1.279   .     A
C547   O757    1.284   .     A
C548   O729    1.283   .     A
C548   O753    1.283   .     A
C549   O755    1.280   .     A
C549   O730    1.285   .     A
C550   O742    1.277   .     A
C550   O731    1.285   .     A
C551   O733    1.277   .     A
C551   O744    1.286   .     A
C552   O740    1.280   .     A
C552   O734    1.286   .     A
C553   C595    1.411   .     A
C554   O735    1.281   .     A
C554   O741    1.283   .     A
C555   O736    1.280   .     A
C555   O747    1.285   .     A
C556   O748    1.284   .     A
C556   O737    1.281   .     A
C557   O745    1.279   .     A
C557   O738    1.282   .     A
C558   O746    1.280   .     A
C558   O739    1.282   .     A
C559   C576    1.402   .     A
C560   C574    1.410   .     A
C561   C573    1.407   .     A
C562   C572    1.406   .     A
C563   C571    1.398   .     A
C564   C596    1.414   .     A
C564   C1332   1.415   .     S
C565   C570    1.404   .     A
C566   C569    1.400   .     A
C567   C568    1.408   .     A
C575   C1322   1.496   1_545 S
C577   C593    1.410   .     A
C578   C592    1.405   .     A
C579   C591    1.406   .     A
C580   C590    1.409   .     A
C581   C589    1.406   .     A
C582   C588    1.401   .     A
C583   C587    1.406   .     A
C584   C585    1.400   .     A
C594   C34     1.415   1_655 S
C596   C1273   1.416   .     S
H605   O759    1.014   .     S
H606   O761    1.014   .     S
H607   O763    1.010   .     S
H609   O766    1.013   .     S
H610   O768    1.014   .     S
H611   O770    1.013   .     S
H612   O772    1.014   .     S
H613   O774    1.013   .     S
H614   O777    1.012   .     S
H615   O779    1.012   .     S
H616   O781    1.013   .     S
H617   O783    1.013   .     S
H618   O785    1.013   .     S
H620   O788    1.013   .     S
H621   O790    1.014   .     S
H622   O792    1.013   .     S
H623   O794    1.014   .     S
H624   O796    1.013   .     S
H625   O799    1.013   .     S
H626   O801    1.013   .     S
H627   O803    1.013   .     S
H628   O805    1.014   .     S
H629   O807    1.013   .     S
H631   O663    1.014   .     S
H632   O665    1.012   .     S
H633   O667    1.013   .     S
H634   O669    1.013   .     S
H635   O671    1.013   .     S
H636   O674    1.014   .     S
H637   O676    1.013   .     S
H638   O678    1.009   .     S
H639   O680    1.014   .     S
H640   O682    1.014   .     S
H642   O685    1.013   .     S
H643   O687    1.014   .     S
H644   O689    1.014   .     S
H645   O691    1.013   .     S
H646   O693    1.014   .     S
H647   O696    1.014   .     S
H648   O698    1.014   .     S
H649   O700    1.014   .     S
H650   O702    1.014   .     S
H651   O704    1.014   .     S
H653   O707    1.014   .     S
H654   O709    1.014   .     S
H655   O711    1.012   .     S
H656   O713    1.012   .     S
H657   O715    1.014   .     S
O661   Zn820   1.952   .     S
O661   Zn812   1.950   .     S
O661   Zn809   1.957   .     S
O661   Zn1640  1.951   1_545 S
O662   Zn811   1.953   .     S
O662   C1358   1.277   .     S
O673   Zn814   1.955   .     S
O682   C78     1.400   1_655 S
O684   Zn813   1.955   .     S
O687   C1317   1.399   .     S
O688   C1318   1.222   .     S
O693   C84     1.399   1_655 S
O695   Zn823   1.953   .     S
O696   C1321   1.398   1_545 S
O697   C1322   1.221   1_545 S
O706   Zn822   1.953   .     S
O716   Zn817   1.953   .     S
O717   Zn809   1.953   .     S
O718   Zn819   1.953   .     S
O719   Zn818   1.953   .     S
O720   Zn821   1.955   .     S
O721   Zn815   1.951   .     S
O721   Zn821   1.952   .     S
O721   Zn817   1.957   .     S
O721   Zn1635  1.950   1_545 S
O722   Zn820   1.955   .     S
O723   Zn812   1.942   .     S
O724   Zn811   1.942   .     S
O725   Zn814   1.941   .     S
O726   Zn813   1.941   .     S
O727   Zn816   1.940   .     S
O728   Zn815   1.940   .     S
O729   Zn810   1.941   .     S
O730   Zn824   1.941   .     S
O731   Zn811   1.942   .     S
O732   Zn822   1.951   .     S
O732   Zn818   1.950   .     S
O732   Zn810   1.957   .     S
O733   Zn812   1.942   .     S
O734   Zn824   1.938   .     S
O735   Zn810   1.938   .     S
O736   Zn815   1.944   .     S
O737   Zn816   1.944   .     S
O738   Zn813   1.939   .     S
O739   Zn814   1.939   .     S
O740   Zn407   1.942   1_655 S
O741   Zn818   1.942   .     S
O742   Zn1645  1.941   .     S
O743   Zn823   1.951   .     S
O743   Zn819   1.950   .     S
O743   Zn813   1.952   .     S
O744   Zn820   1.941   .     S
O745   Zn823   1.940   .     S
O746   Zn410   1.940   1_655 S
O747   Zn817   1.941   .     S
O748   Zn1633  1.941   .     S
O749   Zn406   1.942   1_655 S
O750   Zn819   1.942   .     S
O751   Zn809   1.938   .     S
O752   Zn1641  1.938   .     S
O753   Zn822   1.944   .     S
O754   Zn816   1.953   .     S
O754   C1357   1.282   .     S
O755   Zn411   1.944   1_655 S
O756   Zn1644  1.939   .     S
O757   Zn821   1.939   .     S
O765   Zn815   1.953   .     S
O776   Zn810   1.953   .     S
O787   Zn824   1.953   .     S
O787   C124    1.278   1_655 A
O798   Zn812   1.953   .     S
Zn809  O1572   1.941   1_545 S
Zn811  O1545   1.950   .     S
Zn814  O320    1.952   1_655 S
Zn816  O1485   1.951   .     S
Zn817  O1576   1.938   1_545 S
Zn820  O1580   1.939   1_545 S
Zn821  O1566   1.941   1_545 S
Zn824  O331    1.957   1_655 S
C825   C903    1.416   .     A
C825   C902    1.496   .     S
C825   C828    1.413   .     A
C826   C838    1.412   .     A
C826   C912    1.491   .     S
C826   C100    1.416   1_565 S
C827   C987    1.409   .     A
C827   C930    1.402   .     A
C827   C862    1.414   .     A
C828   C931    1.406   .     A
C828   C858    1.416   .     A
C829   C921    1.409   .     A
C829   C933    1.403   .     A
C829   C1272   1.416   .     S
C830   C934    1.407   .     A
C830   C861    1.415   .     A
C830   C932    1.410   .     A
C831   C943    1.411   .     A
C831   C935    1.404   .     A
C831   C38     1.414   1_565 S
C832   C859    1.410   .     A
C832   C936    1.404   .     A
C832   C39     1.416   1_565 S
C833   C870    1.411   .     A
C833   C937    1.405   .     A
C833   C864    1.413   .     A
C834   C938    1.403   .     A
C834   C881    1.408   .     A
C834   C1277   1.414   1_455 S
C835   C939    1.407   .     A
C835   C892    1.414   .     A
C835   C866    1.416   .     A
C836   C998    1.411   .     A
C836   C863    1.416   .     A
C836   C940    1.406   .     A
C837   C839    1.413   .     A
C837   C925    1.412   .     A
C837   C913    1.491   .     S
C838   C941    1.405   .     A
C838   C40     1.414   1_565 S
C839   C942    1.404   .     A
C839   C865    1.416   .     A
C840   C944    1.405   .     A
C840   C848    1.411   .     A
C840   C1278   1.418   1_455 S
C841   C988    1.413   .     A
C841   C990    1.414   .     A
C841   C960    1.462   .     S
C842   C961    1.463   .     S
C842   C989    1.414   .     A
C842   C986    1.415   .     A
C843   C953    1.460   .     S
C843   C985    1.412   .     A
C843   C992    1.414   .     A
C844   C984    1.412   .     A
C844   C991    1.414   .     A
C844   C955    1.460   .     S
C845   C983    1.417   .     A
C845   C956    1.463   .     S
C845   C994    1.413   .     A
C846   C957    1.463   .     S
C846   C982    1.409   .     A
C846   C993    1.414   .     A
C847   C958    1.461   .     S
C847   C981    1.415   .     A
C847   C996    1.414   .     A
C848   C915    1.497   .     S
C848   C1338   1.412   1_455 S
C849   C995    1.412   .     A
C849   C959    1.461   .     S
C849   C980    1.413   .     A
C850   C979    1.412   .     A
C850   C969    1.459   .     S
C850   C999    1.411   .     A
C851   C978    1.412   .     A
C851   C970    1.458   .     S
C851   C997    1.414   .     A
C852   C977    1.413   .     A
C852   C1001   1.411   .     A
C852   C962    1.460   .     S
C853   C975    1.411   .     A
C853   C963    1.462   .     S
C853   C1000   1.416   .     A
C854   C974    1.414   .     A
C854   C1003   1.412   .     A
C854   C964    1.460   .     S
C855   C1002   1.410   .     A
C855   C973    1.411   .     A
C855   C966    1.460   .     S
C856   C1005   1.415   .     A
C856   C972    1.413   .     A
C856   C967    1.462   .     S
C857   C971    1.408   .     A
C857   C968    1.461   .     S
C857   C1004   1.411   .     A
C858   C860    1.420   .     A
C858   C1418   1.415   1_455 S
C859   C916    1.495   .     S
C859   C99     1.412   1_565 S
C860   C1007   1.416   .     A
C860   C1241   1.416   1_455 S
C861   C862    1.419   .     A
C863   C864    1.419   1_556 S
C864   C863    1.419   1_554 S
C865   C1246   1.414   .     S
C865   C866    1.420   1_556 S
C866   C1252   1.418   .     S
C866   C865    1.420   1_554 S
C867   O1171   1.398   .     S
C867   O1170   1.221   .     D
C867   C971    1.480   .     S
C868   O1172   1.223   .     D
C868   C972    1.492   .     S
C868   O1173   1.398   .     S
C869   O1174   1.223   .     D
C869   O1175   1.399   .     S
C869   C973    1.488   .     S
C870   C924    1.414   .     A
C870   C917    1.492   .     S
C871   O1176   1.222   .     D
C871   C974    1.485   .     S
C871   O1178   1.398   .     S
C872   C975    1.486   .     S
C872   O1179   1.221   .     D
C872   O1180   1.398   .     S
C873   C977    1.483   .     S
C873   O1181   1.222   .     D
C873   O1182   1.398   .     S
C874   O1183   1.222   .     D
C874   O1184   1.398   .     S
C874   C978    1.484   .     S
C875   C979    1.486   .     S
C875   O1186   1.398   .     S
C875   O1185   1.222   .     D
C876   O1189   1.399   .     S
C876   O1187   1.223   .     D
C876   C980    1.490   .     S
C877   O1190   1.223   .     D
C877   O1191   1.395   .     S
C877   C981    1.489   .     S
C878   O1193   1.398   .     S
C878   O1192   1.222   .     D
C878   C982    1.484   .     S
C879   O1194   1.223   .     D
C879   O1195   1.395   .     S
C879   C983    1.484   .     S
C880   O1196   1.223   .     D
C880   O1197   1.398   .     S
C880   C984    1.491   .     S
C881   C918    1.489   .     S
C881   C1337   1.411   1_455 S
C882   O1198   1.222   .     D
C882   O1200   1.398   .     S
C882   C985    1.488   .     S
C883   O1201   1.222   .     D
C883   C986    1.489   .     S
C883   O1202   1.398   .     S
C884   O1204   1.398   .     S
C884   C988    1.484   .     S
C884   O1203   1.222   .     D
C885   C989    1.492   .     S
C885   O1205   1.223   .     D
C885   O1206   1.398   .     S
C886   O1207   1.222   .     D
C886   C990    1.480   .     S
C886   O1208   1.398   .     S
C887   O1211   1.398   .     S
C887   C991    1.484   .     S
C887   O1209   1.222   .     D
C888   O1212   1.223   .     D
C888   O1213   1.399   .     S
C888   C992    1.491   .     S
C889   O1214   1.222   .     D
C889   C993    1.483   .     S
C889   O1215   1.398   .     S
C890   O1217   1.398   .     S
C890   O1216   1.222   .     D
C890   C994    1.489   .     S
C891   O1218   1.222   .     D
C891   O1219   1.398   .     S
C891   C995    1.481   .     S
C892   C919    1.493   .     S
C892   C926    1.414   .     A
C893   O1075   1.398   .     S
C893   O1220   1.222   .     D
C893   C996    1.484   .     S
C894   O1076   1.223   .     D
C894   O1077   1.396   .     S
C894   C997    1.490   .     S
C895   C999    1.489   .     S
C895   O1079   1.399   .     S
C895   O1078   1.222   .     D
C896   O1081   1.395   .     S
C896   C1000   1.482   .     S
C896   O1080   1.223   .     D
C897   O1083   1.398   .     S
C897   O1082   1.223   .     D
C897   C1001   1.489   .     S
C898   C1002   1.483   .     S
C898   O1084   1.222   .     D
C898   O1086   1.398   .     S
C899   O1087   1.223   .     D
C899   C1003   1.491   .     S
C899   O1088   1.398   .     S
C900   O1090   1.396   .     S
C900   C1004   1.489   .     S
C900   O1089   1.223   .     D
C901   C1005   1.490   .     S
C901   O1092   1.398   .     S
C901   O1091   1.223   .     D
C902   O1093   1.221   .     D
C902   O1506   1.400   1_455 S
C903   C1359   1.463   1_455 S
C903   C1366   1.414   1_455 S
C904   C921    1.490   .     S
C904   O1097   1.398   .     S
C904   O1507   1.222   .     S
C905   C932    1.489   .     S
C905   O1098   1.221   .     D
C906   O1101   1.399   .     S
C907   O1103   1.399   .     S
C907   C954    1.492   .     S
C907   O1514   1.221   .     S
C908   O1104   1.221   .     D
C908   C965    1.495   .     S
C908   O1517   1.399   1_455 S
C909   O1106   1.221   .     D
C909   C976    1.494   .     S
C909   O284    1.398   1_565 S
C910   O1110   1.399   .     S
C910   C163    1.496   1_565 S
C910   O285    1.221   1_565 S
C911   O1111   1.223   .     D
C911   C998    1.492   .     S
C911   O1112   1.397   .     S
C912   O1114   1.400   .     S
C912   O1113   1.219   .     D
C913   O1116   1.399   .     S
C913   O1115   1.222   .     D
C914   C965    1.413   .     A
C914   C1333   1.410   1_455 S
C914   C948    1.457   .     S
C915   O1119   1.397   .     S
C915   O1117   1.221   .     D
C916   O1121   1.399   .     S
C916   O1120   1.221   .     D
C917   O1123   1.399   .     S
C917   O1122   1.221   .     D
C918   O1124   1.220   .     D
C918   O1125   1.399   .     S
C919   O1127   1.397   .     S
C919   O1126   1.222   .     D
C920   C932    1.414   .     A
C920   C945    1.465   .     S
C921   C1326   1.410   .     S
C922   C946    1.456   .     S
C922   C987    1.413   .     A
C923   C998    1.412   .     A
C923   C951    1.456   .     S
C924   C952    1.465   .     S
C925   C949    1.460   .     S
C925   C1293   1.411   .     S
C926   C950    1.459   .     S
C926   C1260   1.412   .     S
C927   H1009   1.080   .     S
C927   C933    1.384   .     A
C927   C1006   1.407   .     A
C928   C931    1.385   .     A
C928   C1007   1.404   .     A
C928   H1020   1.081   .     S
C929   C1008   1.407   .     A
C929   C935    1.387   .     A
C929   H1031   1.080   .     S
C930   H1042   1.082   .     S
C930   C934    1.383   .     A
C931   H1053   1.080   .     S
C933   H1064   1.081   .     S
C934   H1070   1.080   .     S
C935   H1071   1.082   .     S
C936   H1072   1.081   .     S
C936   C941    1.384   1_556 S
C937   H1010   1.082   .     S
C937   C940    1.385   1_554 S
C938   H1011   1.082   .     S
C938   C944    1.382   1_556 S
C939   H1012   1.079   .     S
C939   C942    1.386   1_554 S
C940   H1013   1.081   .     S
C940   C937    1.385   1_556 S
C941   H1014   1.081   .     S
C941   C936    1.384   1_554 S
C942   H1015   1.081   .     S
C942   C939    1.386   1_556 S
C943   C98     1.414   1_565 S
C943   C82     1.494   1_565 S
C944   H1016   1.080   .     S
C944   C938    1.382   1_554 S
C945   O1210   1.277   .     A
C946   O1177   1.277   .     A
C947   O1085   1.281   .     A
C947   C1315   1.463   .     S
C947   O1600   1.282   .     S
C948   O1611   1.278   1_455 A
C948   O1096   1.281   .     S
C949   O1519   1.277   .     S
C949   O1542   1.280   .     S
C950   O1530   1.276   .     S
C950   O1543   1.280   .     S
C951   O1132   1.283   .     A
C951   O1128   1.277   .     A
C952   O1129   1.280   .     A
C952   O1134   1.284   .     A
C953   O1135   1.284   .     A
C953   O1163   1.280   .     A
C954   C1006   1.412   .     A
C954   C1315   1.414   .     S
C955   O1164   1.286   .     A
C955   O1136   1.280   .     A
C956   O1161   1.275   .     A
C956   O1137   1.289   .     A
C957   O1162   1.287   .     A
C957   O1138   1.276   .     A
C958   O1168   1.283   .     A
C958   O1139   1.281   .     A
C959   O1140   1.279   .     A
C959   O1169   1.284   .     A
C960   O1141   1.283   .     A
C960   O1165   1.283   .     A
C961   O1167   1.280   .     A
C961   O1142   1.285   .     A
C962   O1154   1.277   .     A
C962   O1143   1.285   .     A
C963   O1145   1.277   .     A
C963   O1156   1.286   .     A
C964   O1152   1.280   .     A
C964   O1146   1.286   .     A
C965   C1007   1.411   .     A
C966   O1147   1.281   .     A
C966   O1153   1.283   .     A
C967   O1148   1.280   .     A
C967   O1159   1.285   .     A
C968   O1160   1.284   .     A
C968   O1149   1.281   .     A
C969   O1157   1.279   .     A
C969   O1150   1.282   .     A
C970   O1158   1.280   .     A
C970   O1151   1.282   .     A
C971   C988    1.402   .     A
C972   C986    1.410   .     A
C973   C985    1.407   .     A
C974   C984    1.406   .     A
C975   C983    1.398   .     A
C976   C1008   1.414   .     A
C976   C96     1.415   1_565 S
C977   C982    1.404   .     A
C978   C981    1.400   .     A
C979   C980    1.408   .     A
C989   C1005   1.410   .     A
C990   C1004   1.405   .     A
C991   C1003   1.406   .     A
C992   C1002   1.409   .     A
C993   C1001   1.406   .     A
C994   C1000   1.401   .     A
C995   C999    1.406   .     A
C996   C997    1.400   .     A
C1006  C1270   1.415   .     S
C1008  C37     1.416   1_565 S
H1017  O1171   1.014   .     S
H1018  O1173   1.014   .     S
H1019  O1175   1.010   .     S
H1021  O1178   1.013   .     S
H1022  O1180   1.014   .     S
H1023  O1182   1.013   .     S
H1024  O1184   1.014   .     S
H1025  O1186   1.013   .     S
H1026  O1189   1.012   .     S
H1027  O1191   1.012   .     S
H1028  O1193   1.013   .     S
H1029  O1195   1.013   .     S
H1030  O1197   1.013   .     S
H1032  O1200   1.013   .     S
H1033  O1202   1.014   .     S
H1034  O1204   1.013   .     S
H1035  O1206   1.014   .     S
H1036  O1208   1.013   .     S
H1037  O1211   1.013   .     S
H1038  O1213   1.013   .     S
H1039  O1215   1.013   .     S
H1040  O1217   1.014   .     S
H1041  O1219   1.013   .     S
H1043  O1075   1.014   .     S
H1044  O1077   1.012   .     S
H1045  O1079   1.013   .     S
H1046  O1081   1.013   .     S
H1047  O1083   1.013   .     S
H1048  O1086   1.014   .     S
H1049  O1088   1.013   .     S
H1050  O1090   1.009   .     S
H1051  O1092   1.014   .     S
H1052  O1094   1.014   .     S
H1054  O1097   1.013   .     S
H1055  O1099   1.014   .     S
H1056  O1101   1.014   .     S
H1057  O1103   1.013   .     S
H1058  O1105   1.014   .     S
H1059  O1108   1.014   .     S
H1060  O1110   1.014   .     S
H1061  O1112   1.014   .     S
H1062  O1114   1.014   .     S
H1063  O1116   1.014   .     S
H1065  O1119   1.014   .     S
H1066  O1121   1.014   .     S
H1067  O1123   1.012   .     S
H1068  O1125   1.012   .     S
H1069  O1127   1.014   .     S
O1073  Zn1232  1.952   .     S
O1073  Zn1224  1.950   .     S
O1073  Zn1221  1.957   .     S
O1074  Zn1223  1.953   .     S
O1074  C122    1.277   1_565 S
O1085  Zn1226  1.955   .     S
O1094  C1314   1.400   .     S
O1095  C1316   1.222   1_455 S
O1096  Zn1225  1.955   .     S
O1099  C81     1.399   1_565 S
O1100  C82     1.222   1_565 S
O1102  C1319   1.221   1_455 S
O1105  C1320   1.399   .     S
O1107  C1361   1.277   1_455 S
O1107  Zn1235  1.953   .     S
O1118  Zn1234  1.953   .     S
O1118  C1362   1.276   1_455 S
O1128  Zn1229  1.953   .     S
O1129  Zn1221  1.953   .     S
O1130  C1361   1.280   1_455 S
O1130  Zn1231  1.953   .     S
O1131  Zn1230  1.953   .     S
O1131  C1362   1.280   1_455 S
O1132  Zn1233  1.955   .     S
O1133  Zn1227  1.951   .     S
O1133  Zn1233  1.952   .     S
O1133  Zn1229  1.957   .     S
O1134  Zn1232  1.955   .     S
O1135  Zn1224  1.942   .     S
O1136  Zn1223  1.942   .     S
O1137  Zn1226  1.941   .     S
O1138  Zn1225  1.941   .     S
O1139  Zn1228  1.940   .     S
O1140  Zn1227  1.940   .     S
O1141  Zn1222  1.941   .     S
O1142  Zn1236  1.941   .     S
O1143  Zn1223  1.942   .     S
O1144  Zn1234  1.951   .     S
O1144  Zn1230  1.950   .     S
O1144  Zn1222  1.957   .     S
O1144  Zn1638  1.952   1_455 S
O1145  Zn1224  1.942   .     S
O1146  Zn1236  1.938   .     S
O1147  Zn1222  1.938   .     S
O1148  Zn1227  1.944   .     S
O1149  Zn1228  1.944   .     S
O1150  Zn1225  1.939   .     S
O1151  Zn1226  1.939   .     S
O1152  Zn1643  1.942   .     S
O1153  Zn1230  1.942   .     S
O1154  Zn409   1.941   1_565 S
O1155  Zn1648  1.957   1_455 S
O1155  Zn1235  1.951   .     S
O1155  Zn1231  1.950   .     S
O1155  Zn1225  1.952   .     S
O1156  Zn1232  1.941   .     S
O1157  Zn1235  1.940   .     S
O1158  Zn1646  1.940   .     S
O1159  Zn1229  1.941   .     S
O1160  Zn397   1.941   1_565 S
O1161  Zn1642  1.942   .     S
O1162  Zn1231  1.942   .     S
O1163  Zn1221  1.938   .     S
O1164  Zn405   1.938   1_565 S
O1165  Zn1234  1.944   .     S
O1166  Zn1228  1.953   .     S
O1166  C121    1.282   1_565 S
O1167  Zn1647  1.944   .     S
O1168  Zn408   1.939   1_565 S
O1169  Zn1233  1.939   .     S
O1177  Zn1227  1.953   .     S
O1188  Zn1222  1.953   .     S
O1188  C1359   1.282   1_455 S
O1199  Zn1236  1.953   .     S
O1199  C1360   1.278   .     A
O1210  Zn1224  1.953   .     S
Zn1223 O309    1.950   1_565 S
Zn1226 O1556   1.952   .     S
Zn1228 O249    1.951   1_565 S
Zn1230 O1573   1.942   1_455 S
Zn1231 O1564   1.942   1_455 S
Zn1234 O1570   1.940   1_455 S
Zn1235 O1579   1.944   1_455 S
Zn1236 O1567   1.957   .     S
C1237  C1315   1.416   .     A
C1237  C1314   1.496   .     S
C1237  C1240   1.413   .     A
C1238  C1250   1.412   .     A
C1238  C1324   1.491   .     S
C1238  C512    1.416   1_565 S
C1239  C1399   1.409   .     A
C1239  C1342   1.402   .     A
C1239  C1274   1.414   .     A
C1240  C1343   1.406   .     A
C1240  C1270   1.416   .     A
C1241  C1333   1.409   .     A
C1241  C1345   1.403   .     A
C1241  C860    1.416   1_655 S
C1242  C1346   1.407   .     A
C1242  C1273   1.415   .     A
C1242  C1344   1.410   .     A
C1243  C1355   1.411   .     A
C1243  C1347   1.404   .     A
C1243  C450    1.414   1_565 S
C1244  C1271   1.410   .     A
C1244  C1348   1.404   .     A
C1244  C451    1.416   1_565 S
C1245  C1282   1.411   .     A
C1245  C1349   1.405   .     A
C1245  C1276   1.413   .     A
C1246  C1350   1.403   .     A
C1246  C1293   1.408   .     A
C1247  C1351   1.407   .     A
C1247  C1304   1.414   .     A
C1247  C1278   1.416   .     A
C1248  C1410   1.411   .     A
C1248  C1275   1.416   .     A
C1248  C1352   1.406   .     A
C1249  C1251   1.413   .     A
C1249  C1337   1.412   .     A
C1249  C1325   1.491   .     S
C1250  C1353   1.405   .     A
C1250  C452    1.414   1_565 S
C1251  C1354   1.404   .     A
C1251  C1277   1.416   .     A
C1252  C1356   1.405   .     A
C1252  C1260   1.411   .     A
C1253  C1400   1.413   .     A
C1253  C1402   1.414   .     A
C1253  C1372   1.462   .     S
C1254  C1373   1.463   .     S
C1254  C1401   1.414   .     A
C1254  C1398   1.415   .     A
C1255  C1365   1.460   .     S
C1255  C1397   1.412   .     A
C1255  C1404   1.414   .     A
C1256  C1396   1.412   .     A
C1256  C1403   1.414   .     A
C1256  C1367   1.460   .     S
C1257  C1395   1.417   .     A
C1257  C1368   1.463   .     S
C1257  C1406   1.413   .     A
C1258  C1369   1.463   .     S
C1258  C1394   1.409   .     A
C1258  C1405   1.414   .     A
C1259  C1370   1.461   .     S
C1259  C1393   1.415   .     A
C1259  C1408   1.414   .     A
C1260  C1327   1.497   .     S
C1261  C1407   1.412   .     A
C1261  C1371   1.461   .     S
C1261  C1392   1.413   .     A
C1262  C1391   1.412   .     A
C1262  C1381   1.459   .     S
C1262  C1411   1.411   .     A
C1263  C1390   1.412   .     A
C1263  C1382   1.458   .     S
C1263  C1409   1.414   .     A
C1264  C1389   1.413   .     A
C1264  C1413   1.411   .     A
C1264  C1374   1.460   .     S
C1265  C1387   1.411   .     A
C1265  C1375   1.462   .     S
C1265  C1412   1.416   .     A
C1266  C1386   1.414   .     A
C1266  C1415   1.412   .     A
C1266  C1376   1.460   .     S
C1267  C1414   1.410   .     A
C1267  C1385   1.411   .     A
C1267  C1378   1.460   .     S
C1268  C1417   1.415   .     A
C1268  C1384   1.413   .     A
C1268  C1379   1.462   .     S
C1269  C1383   1.408   .     A
C1269  C1380   1.461   .     S
C1269  C1416   1.411   .     A
C1270  C1272   1.420   .     A
C1271  C1328   1.495   .     S
C1271  C511    1.412   1_565 S
C1272  C1419   1.416   .     A
C1273  C1274   1.419   .     A
C1275  C1276   1.419   1_556 S
C1276  C1275   1.419   1_554 S
C1277  C834    1.414   1_655 S
C1277  C1278   1.420   1_556 S
C1278  C840    1.418   1_655 S
C1278  C1277   1.420   1_554 S
C1279  O1583   1.398   .     S
C1279  O1582   1.221   .     D
C1279  C1383   1.480   .     S
C1280  O1584   1.223   .     D
C1280  C1384   1.492   .     S
C1280  O1585   1.398   .     S
C1281  O1586   1.223   .     D
C1281  O1587   1.399   .     S
C1281  C1385   1.488   .     S
C1282  C1336   1.414   .     A
C1282  C1329   1.492   .     S
C1283  O1588   1.222   .     D
C1283  C1386   1.485   .     S
C1283  O1590   1.398   .     S
C1284  C1387   1.486   .     S
C1284  O1591   1.221   .     D
C1284  O1592   1.398   .     S
C1285  C1389   1.483   .     S
C1285  O1593   1.222   .     D
C1285  O1594   1.398   .     S
C1286  O1595   1.222   .     D
C1286  O1596   1.398   .     S
C1286  C1390   1.484   .     S
C1287  C1391   1.486   .     S
C1287  O1598   1.398   .     S
C1287  O1597   1.222   .     D
C1288  O1601   1.399   .     S
C1288  O1599   1.223   .     D
C1288  C1392   1.490   .     S
C1289  O1602   1.223   .     D
C1289  O1603   1.395   .     S
C1289  C1393   1.489   .     S
C1290  O1605   1.398   .     S
C1290  O1604   1.222   .     D
C1290  C1394   1.484   .     S
C1291  O1606   1.223   .     D
C1291  O1607   1.395   .     S
C1291  C1395   1.484   .     S
C1292  O1608   1.223   .     D
C1292  O1609   1.398   .     S
C1292  C1396   1.491   .     S
C1293  C1330   1.489   .     S
C1294  O1610   1.222   .     D
C1294  O1612   1.398   .     S
C1294  C1397   1.488   .     S
C1295  O1613   1.222   .     D
C1295  C1398   1.489   .     S
C1295  O1614   1.398   .     S
C1296  O1616   1.398   .     S
C1296  C1400   1.484   .     S
C1296  O1615   1.222   .     D
C1297  C1401   1.492   .     S
C1297  O1617   1.223   .     D
C1297  O1618   1.398   .     S
C1298  O1619   1.222   .     D
C1298  C1402   1.480   .     S
C1298  O1620   1.398   .     S
C1299  O1623   1.398   .     S
C1299  C1403   1.484   .     S
C1299  O1621   1.222   .     D
C1300  O1624   1.223   .     D
C1300  O1625   1.399   .     S
C1300  C1404   1.491   .     S
C1301  O1626   1.222   .     D
C1301  C1405   1.483   .     S
C1301  O1627   1.398   .     S
C1302  O1629   1.398   .     S
C1302  O1628   1.222   .     D
C1302  C1406   1.489   .     S
C1303  O1630   1.222   .     D
C1303  O1631   1.398   .     S
C1303  C1407   1.481   .     S
C1304  C1331   1.493   .     S
C1304  C1338   1.414   .     A
C1305  O1487   1.398   .     S
C1305  O1632   1.222   .     D
C1305  C1408   1.484   .     S
C1306  O1488   1.223   .     D
C1306  O1489   1.396   .     S
C1306  C1409   1.490   .     S
C1307  C1411   1.489   .     S
C1307  O1491   1.399   .     S
C1307  O1490   1.222   .     D
C1308  O1493   1.395   .     S
C1308  C1412   1.482   .     S
C1308  O1492   1.223   .     D
C1309  O1495   1.398   .     S
C1309  O1494   1.223   .     D
C1309  C1413   1.489   .     S
C1310  C1414   1.483   .     S
C1310  O1496   1.222   .     D
C1310  O1498   1.398   .     S
C1311  O1499   1.223   .     D
C1311  C1415   1.491   .     S
C1311  O1500   1.398   .     S
C1312  O1502   1.396   .     S
C1312  C1416   1.489   .     S
C1312  O1501   1.223   .     D
C1313  C1417   1.490   .     S
C1313  O1504   1.398   .     S
C1313  O1503   1.223   .     D
C1314  O1505   1.221   .     D
C1316  C1333   1.490   .     S
C1316  O1509   1.398   .     S
C1316  O1095   1.222   1_655 S
C1317  C1344   1.489   .     S
C1317  O1510   1.221   .     D
C1318  O1513   1.399   .     S
C1319  O1515   1.399   .     S
C1319  C1366   1.492   .     S
C1319  O1102   1.221   1_655 S
C1320  O1516   1.221   .     D
C1320  C1377   1.495   .     S
C1321  O1518   1.221   .     D
C1321  C1388   1.494   .     S
C1321  O696    1.398   1_565 S
C1322  O1522   1.399   .     S
C1322  C575    1.496   1_565 S
C1322  O697    1.221   1_565 S
C1323  O1523   1.223   .     D
C1323  C1410   1.492   .     S
C1323  O1524   1.397   .     S
C1324  O1526   1.400   .     S
C1324  O1525   1.219   .     D
C1325  O1528   1.399   .     S
C1325  O1527   1.222   .     D
C1326  C1377   1.413   .     A
C1326  C1360   1.457   .     S
C1327  O1531   1.397   .     S
C1327  O1529   1.221   .     D
C1328  O1533   1.399   .     S
C1328  O1532   1.221   .     D
C1329  O1535   1.399   .     S
C1329  O1534   1.221   .     D
C1330  O1536   1.220   .     D
C1330  O1537   1.399   .     S
C1331  O1539   1.397   .     S
C1331  O1538   1.222   .     D
C1332  C1344   1.414   .     A
C1332  C1357   1.465   .     S
C1333  C914    1.410   1_655 S
C1334  C1358   1.456   .     S
C1334  C1399   1.413   .     A
C1335  C1410   1.412   .     A
C1335  C1363   1.456   .     S
C1336  C1364   1.465   .     S
C1337  C1361   1.460   .     S
C1337  C881    1.411   1_655 S
C1338  C1362   1.459   .     S
C1338  C848    1.412   1_655 S
C1339  H1421   1.080   .     S
C1339  C1345   1.384   .     A
C1339  C1418   1.407   .     A
C1340  C1343   1.385   .     A
C1340  C1419   1.404   .     A
C1340  H1432   1.081   .     S
C1341  C1420   1.407   .     A
C1341  C1347   1.387   .     A
C1341  H1443   1.080   .     S
C1342  H1454   1.082   .     S
C1342  C1346   1.383   .     A
C1343  H1465   1.080   .     S
C1345  H1476   1.081   .     S
C1346  H1482   1.080   .     S
C1347  H1483   1.082   .     S
C1348  H1484   1.081   .     S
C1348  C1353   1.384   1_556 S
C1349  H1422   1.082   .     S
C1349  C1352   1.385   1_554 S
C1350  H1423   1.082   .     S
C1350  C1356   1.382   1_556 S
C1351  H1424   1.079   .     S
C1351  C1354   1.386   1_554 S
C1352  H1425   1.081   .     S
C1352  C1349   1.385   1_556 S
C1353  H1426   1.081   .     S
C1353  C1348   1.384   1_554 S
C1354  H1427   1.081   .     S
C1354  C1351   1.386   1_556 S
C1355  C510    1.414   1_565 S
C1355  C494    1.494   1_565 S
C1356  H1428   1.080   .     S
C1356  C1350   1.382   1_554 S
C1357  O1622   1.277   .     A
C1358  O1589   1.277   .     A
C1359  O1497   1.281   .     A
C1359  C903    1.463   1_655 S
C1359  O1188   1.282   1_655 S
C1360  O1508   1.281   .     S
C1361  O1107   1.277   1_655 S
C1361  O1130   1.280   1_655 S
C1362  O1118   1.276   1_655 S
C1362  O1131   1.280   1_655 S
C1363  O1544   1.283   .     A
C1363  O1540   1.277   .     A
C1364  O1541   1.280   .     A
C1364  O1546   1.284   .     A
C1365  O1547   1.284   .     A
C1365  O1575   1.280   .     A
C1366  C1418   1.412   .     A
C1366  C903    1.414   1_655 S
C1367  O1576   1.286   .     A
C1367  O1548   1.280   .     A
C1368  O1573   1.275   .     A
C1368  O1549   1.289   .     A
C1369  O1574   1.287   .     A
C1369  O1550   1.276   .     A
C1370  O1580   1.283   .     A
C1370  O1551   1.281   .     A
C1371  O1552   1.279   .     A
C1371  O1581   1.284   .     A
C1372  O1553   1.283   .     A
C1372  O1577   1.283   .     A
C1373  O1579   1.280   .     A
C1373  O1554   1.285   .     A
C1374  O1566   1.277   .     A
C1374  O1555   1.285   .     A
C1375  O1557   1.277   .     A
C1375  O1568   1.286   .     A
C1376  O1564   1.280   .     A
C1376  O1558   1.286   .     A
C1377  C1419   1.411   .     A
C1378  O1559   1.281   .     A
C1378  O1565   1.283   .     A
C1379  O1560   1.280   .     A
C1379  O1571   1.285   .     A
C1380  O1572   1.284   .     A
C1380  O1561   1.281   .     A
C1381  O1569   1.279   .     A
C1381  O1562   1.282   .     A
C1382  O1570   1.280   .     A
C1382  O1563   1.282   .     A
C1383  C1400   1.402   .     A
C1384  C1398   1.410   .     A
C1385  C1397   1.407   .     A
C1386  C1396   1.406   .     A
C1387  C1395   1.398   .     A
C1388  C1420   1.414   .     A
C1388  C508    1.415   1_565 S
C1389  C1394   1.404   .     A
C1390  C1393   1.400   .     A
C1391  C1392   1.408   .     A
C1401  C1417   1.410   .     A
C1402  C1416   1.405   .     A
C1403  C1415   1.406   .     A
C1404  C1414   1.409   .     A
C1405  C1413   1.406   .     A
C1406  C1412   1.401   .     A
C1407  C1411   1.406   .     A
C1408  C1409   1.400   .     A
C1418  C858    1.415   1_655 S
C1420  C449    1.416   1_565 S
H1429  O1583   1.014   .     S
H1430  O1585   1.014   .     S
H1431  O1587   1.010   .     S
H1433  O1590   1.013   .     S
H1434  O1592   1.014   .     S
H1435  O1594   1.013   .     S
H1436  O1596   1.014   .     S
H1437  O1598   1.013   .     S
H1438  O1601   1.012   .     S
H1439  O1603   1.012   .     S
H1440  O1605   1.013   .     S
H1441  O1607   1.013   .     S
H1442  O1609   1.013   .     S
H1444  O1612   1.013   .     S
H1445  O1614   1.014   .     S
H1446  O1616   1.013   .     S
H1447  O1618   1.014   .     S
H1448  O1620   1.013   .     S
H1449  O1623   1.013   .     S
H1450  O1625   1.013   .     S
H1451  O1627   1.013   .     S
H1452  O1629   1.014   .     S
H1453  O1631   1.013   .     S
H1455  O1487   1.014   .     S
H1456  O1489   1.012   .     S
H1457  O1491   1.013   .     S
H1458  O1493   1.013   .     S
H1459  O1495   1.013   .     S
H1460  O1498   1.014   .     S
H1461  O1500   1.013   .     S
H1462  O1502   1.009   .     S
H1463  O1504   1.014   .     S
H1464  O1506   1.014   .     S
H1466  O1509   1.013   .     S
H1467  O1511   1.014   .     S
H1468  O1513   1.014   .     S
H1469  O1515   1.013   .     S
H1470  O1517   1.014   .     S
H1471  O1520   1.014   .     S
H1472  O1522   1.014   .     S
H1473  O1524   1.014   .     S
H1474  O1526   1.014   .     S
H1475  O1528   1.014   .     S
H1477  O1531   1.014   .     S
H1478  O1533   1.014   .     S
H1479  O1535   1.012   .     S
H1480  O1537   1.012   .     S
H1481  O1539   1.014   .     S
O1485  Zn1644  1.952   .     S
O1485  Zn1636  1.950   .     S
O1485  Zn1633  1.957   .     S
O1486  Zn1635  1.953   .     S
O1486  C534    1.277   1_565 S
O1497  Zn1638  1.955   .     S
O1506  C902    1.400   1_655 S
O1508  Zn1637  1.955   .     S
O1511  C493    1.399   1_565 S
O1512  C494    1.222   1_565 S
O1517  C908    1.399   1_655 S
O1519  Zn1647  1.953   .     S
O1530  Zn1646  1.953   .     S
O1540  Zn1641  1.953   .     S
O1541  Zn1633  1.953   .     S
O1542  Zn1643  1.953   .     S
O1543  Zn1642  1.953   .     S
O1544  Zn1645  1.955   .     S
O1545  Zn1639  1.951   .     S
O1545  Zn1645  1.952   .     S
O1545  Zn1641  1.957   .     S
O1546  Zn1644  1.955   .     S
O1547  Zn1636  1.942   .     S
O1548  Zn1635  1.942   .     S
O1549  Zn1638  1.941   .     S
O1550  Zn1637  1.941   .     S
O1551  Zn1640  1.940   .     S
O1552  Zn1639  1.940   .     S
O1553  Zn1634  1.941   .     S
O1554  Zn1648  1.941   .     S
O1555  Zn1635  1.942   .     S
O1556  Zn1646  1.951   .     S
O1556  Zn1642  1.950   .     S
O1556  Zn1634  1.957   .     S
O1557  Zn1636  1.942   .     S
O1558  Zn1648  1.938   .     S
O1559  Zn1634  1.938   .     S
O1560  Zn1639  1.944   .     S
O1561  Zn1640  1.944   .     S
O1562  Zn1637  1.939   .     S
O1563  Zn1638  1.939   .     S
O1564  Zn1231  1.942   1_655 S
O1565  Zn1642  1.942   .     S
O1566  Zn821   1.941   1_565 S
O1567  Zn1647  1.951   .     S
O1567  Zn1643  1.950   .     S
O1567  Zn1637  1.952   .     S
O1568  Zn1644  1.941   .     S
O1569  Zn1647  1.940   .     S
O1570  Zn1234  1.940   1_655 S
O1571  Zn1641  1.941   .     S
O1572  Zn809   1.941   1_565 S
O1573  Zn1230  1.942   1_655 S
O1574  Zn1643  1.942   .     S
O1575  Zn1633  1.938   .     S
O1576  Zn817   1.938   1_565 S
O1577  Zn1646  1.944   .     S
O1578  Zn1640  1.953   .     S
O1578  C533    1.282   1_565 S
O1579  Zn1235  1.944   1_655 S
O1580  Zn820   1.939   1_565 S
O1581  Zn1645  1.939   .     S
O1589  Zn1639  1.953   .     S
O1600  Zn1634  1.953   .     S
O1611  Zn1648  1.953   .     S
O1611  C948    1.278   1_655 A
O1622  Zn1636  1.953   .     S
Zn1635 O721    1.950   1_565 S
Zn1638 O1144   1.952   1_655 S
Zn1640 O661    1.951   1_565 S
Zn1648 O1155   1.957   1_655 S
