data_str_m1_o5_o17_pcu_sym.7
_audit_creation_date              2020-01-03
_audit_creation_method            'Materials Studio'
_symmetry_space_group_name_H-M    'P1'
_symmetry_Int_Tables_number       1
_symmetry_cell_setting            triclinic
loop_
_symmetry_equiv_pos_as_xyz
  x,y,z
_cell_length_a                    31.7716
_cell_length_b                    31.7786
_cell_length_c                    34.3747
_cell_angle_alpha                 89.9308
_cell_angle_beta                  89.9703
_cell_angle_gamma                 90.1485
loop_
_atom_site_label
_atom_site_type_symbol
_atom_site_fract_x
_atom_site_fract_y
_atom_site_fract_z
_atom_site_U_iso_or_equiv
_atom_site_adp_type
_atom_site_occupancy
C1     C     0.25000   0.49998   0.35597   0.00000  Uiso   1.00
C2     C     0.33003   0.41996   0.75002   0.00000  Uiso   1.00
C3     C     0.43602   0.20223   0.02099   0.00000  Uiso   1.00
C4     C     0.30438   0.05541   0.97826   0.00000  Uiso   1.00
C5     C     0.19121   0.45116   0.02089   0.00000  Uiso   1.00
C6     C     0.43106   0.20910   0.98023   0.00000  Uiso   1.00
C7     C     0.08070   0.23586   0.01980   0.00000  Uiso   1.00
C8     C     0.42420   0.27931   0.40312   0.00000  Uiso   1.00
C9     C     0.39948   0.23797   0.39819   0.00000  Uiso   1.00
C10    C     0.35892   0.24503   0.37536   0.00000  Uiso   1.00
C11    C     0.01973   0.17218   0.60285   0.00000  Uiso   1.00
C12    C     0.47674   0.15440   0.61532   0.00000  Uiso   1.00
C13    C     0.41997   0.16998   0.25002   0.00000  Uiso   1.00
C14    C     0.48185   0.11265   0.63683   0.00000  Uiso   1.00
C15    C     0.17036   0.48926   0.39966   0.00000  Uiso   1.00
C16    C     0.16828   0.44136   0.39385   0.00000  Uiso   1.00
C17    C     0.12898   0.42860   0.37119   0.00000  Uiso   1.00
C18    C     0.32697   0.02089   0.60007   0.00000  Uiso   1.00
C19    C     0.32277   0.06900   0.60198   0.00000  Uiso   1.00
C20    C     0.36090   0.08895   0.62172   0.00000  Uiso   1.00
C21    C     0.07578   0.22073   0.40313   0.00000  Uiso   1.00
C22    C     0.10048   0.26209   0.39811   0.00000  Uiso   1.00
C23    C     0.14105   0.25508   0.37529   0.00000  Uiso   1.00
C24    C     0.08002   0.33003   0.74998   0.00000  Uiso   1.00
C25    C     0.48028   0.32782   0.60271   0.00000  Uiso   1.00
C26    C     0.02324   0.34562   0.61517   0.00000  Uiso   1.00
C27    C     0.01806   0.38731   0.63666   0.00000  Uiso   1.00
C28    C     0.32963   0.01059   0.39958   0.00000  Uiso   1.00
C29    C     0.33175   0.05849   0.39369   0.00000  Uiso   1.00
C30    C     0.37105   0.07123   0.37093   0.00000  Uiso   1.00
C31    C     0.17304   0.47914   0.60020   0.00000  Uiso   1.00
C32    C     0.17727   0.43104   0.60208   0.00000  Uiso   1.00
C33    C     0.13915   0.41100   0.62185   0.00000  Uiso   1.00
C34    C     0.27069   0.07834   0.89735   0.00000  Uiso   1.00
C35    C     0.33004   0.41995   0.24999   0.00000  Uiso   1.00
C36    C     0.22798   0.09499   0.88299   0.00000  Uiso   1.00
C37    C     0.23142   0.14051   0.86904   0.00000  Uiso   1.00
C38    C     0.16802   0.00141   0.09445   0.00000  Uiso   1.00
C39    C     0.16218   0.04857   0.10347   0.00000  Uiso   1.00
C40    C     0.16176   0.07549   0.06653   0.00000  Uiso   1.00
C41    C     0.42287   0.26131   0.90159   0.00000  Uiso   1.00
C42    C     0.42457   0.30964   0.89923   0.00000  Uiso   1.00
C43    C     0.38784   0.32690   0.87551   0.00000  Uiso   1.00
C44    C     0.06999   0.28815   0.09783   0.00000  Uiso   1.00
C45    C     0.05341   0.33360   0.09626   0.00000  Uiso   1.00
C46    C     0.16997   0.08006   0.75002   0.00000  Uiso   1.00
C47    C     0.05319   0.35128   0.05484   0.00000  Uiso   1.00
C48    C     0.22646   0.42412   0.90081   0.00000  Uiso   1.00
C49    C     0.26991   0.40496   0.89207   0.00000  Uiso   1.00
C50    C     0.29638   0.39932   0.92886   0.00000  Uiso   1.00
C51    C     0.32930   0.01703   0.09453   0.00000  Uiso   1.00
C52    C     0.34449   0.47159   0.10094   0.00000  Uiso   1.00
C53    C     0.38666   0.47080   0.12214   0.00000  Uiso   1.00
C54    C     0.07789   0.27082   0.89955   0.00000  Uiso   1.00
C55    C     0.07276   0.31889   0.89998   0.00000  Uiso   1.00
C56    C     0.10992   0.34087   0.88033   0.00000  Uiso   1.00
C57    C     0.08002   0.33003   0.25000   0.00000  Uiso   1.00
C58    C     0.42161   0.23811   0.10114   0.00000  Uiso   1.00
C59    C     0.40881   0.28423   0.10722   0.00000  Uiso   1.00
C60    C     0.36683   0.28740   0.12861   0.00000  Uiso   1.00
C61    C     0.05330   0.14621   0.46155   0.00000  Uiso   1.00
C62    C     0.02345   0.11251   0.47803   0.00000  Uiso   1.00
C63    C     0.02356   0.07281   0.45301   0.00000  Uiso   1.00
C64    C     0.40845   0.32336   0.53943   0.00000  Uiso   1.00
C65    C     0.36989   0.30158   0.52138   0.00000  Uiso   1.00
C66    C     0.32998   0.31037   0.54474   0.00000  Uiso   1.00
C67    C     0.33793   0.42930   0.45798   0.00000  Uiso   1.00
C68    C     0.42001   0.16994   0.74996   0.00000  Uiso   1.00
C69    C     0.30692   0.39203   0.45834   0.00000  Uiso   1.00
C70    C     0.31815   0.35916   0.42774   0.00000  Uiso   1.00
C71    C     0.14455   0.05308   0.54258   0.00000  Uiso   1.00
C72    C     0.10055   0.03374   0.53597   0.00000  Uiso   1.00
C73    C     0.07006   0.04557   0.56848   0.00000  Uiso   1.00
C74    C     0.44665   0.35379   0.46139   0.00000  Uiso   1.00
C75    C     0.47643   0.38752   0.47781   0.00000  Uiso   1.00
C76    C     0.47620   0.42727   0.45277   0.00000  Uiso   1.00
C77    C     0.09154   0.17660   0.53947   0.00000  Uiso   1.00
C78    C     0.13013   0.19830   0.52130   0.00000  Uiso   1.00
C79    C     0.16996   0.42000   0.74999   0.00000  Uiso   1.00
C80    C     0.17004   0.18945   0.54461   0.00000  Uiso   1.00
C81    C     0.16198   0.07056   0.45783   0.00000  Uiso   1.00
C82    C     0.19289   0.10792   0.45819   0.00000  Uiso   1.00
C83    C     0.18162   0.14081   0.42755   0.00000  Uiso   1.00
C84    C     0.35535   0.44688   0.54267   0.00000  Uiso   1.00
C85    C     0.39939   0.46612   0.53594   0.00000  Uiso   1.00
C86    C     0.42988   0.45426   0.56843   0.00000  Uiso   1.00
C87    C     0.15038   0.43501   0.95878   0.00000  Uiso   1.00
C88    C     0.10984   0.45608   0.97347   0.00000  Uiso   1.00
C89    C     0.07116   0.43849   0.95272   0.00000  Uiso   1.00
C90    C     0.33005   0.07999   0.25002   0.00000  Uiso   1.00
C91    C     0.31405   0.09955   0.03893   0.00000  Uiso   1.00
C92    C     0.27643   0.12081   0.05898   0.00000  Uiso   1.00
C93    C     0.28894   0.16299   0.07682   0.00000  Uiso   1.00
C94    C     0.10774   0.19631   0.95971   0.00000  Uiso   1.00
C95    C     0.09473   0.15129   0.97120   0.00000  Uiso   1.00
C96    C     0.12655   0.11901   0.95665   0.00000  Uiso   1.00
C97    C     0.42196   0.16065   0.03932   0.00000  Uiso   1.00
C98    C     0.45113   0.12474   0.02629   0.00000  Uiso   1.00
C99    C     0.44000   0.08323   0.04623   0.00000  Uiso   1.00
C100   C     0.34646   0.06704   0.95935   0.00000  Uiso   1.00
C101   C     0.41995   0.33002   0.75001   0.00000  Uiso   1.00
C102   C     0.36911   0.02777   0.94404   0.00000  Uiso   1.00
C103   C     0.41300   0.03866   0.92892   0.00000  Uiso   1.00
C104   C     0.17064   0.41528   0.04397   0.00000  Uiso   1.00
C105   C     0.20373   0.38788   0.06455   0.00000  Uiso   1.00
C106   C     0.18360   0.36043   0.09596   0.00000  Uiso   1.00
C107   C     0.39402   0.18813   0.95967   0.00000  Uiso   1.00
C108   C     0.35216   0.20859   0.97198   0.00000  Uiso   1.00
C109   C     0.31517   0.19134   0.94868   0.00000  Uiso   1.00
C110   C     0.12194   0.22694   0.04103   0.00000  Uiso   1.00
C111   C     0.15612   0.25965   0.03076   0.00000  Uiso   1.00
C112   C     0.25000   0.00002   0.64400   0.00000  Uiso   1.00
C113   C     0.08004   0.16997   0.25001   0.00000  Uiso   1.00
C114   C     0.19470   0.25464   0.05674   0.00000  Uiso   1.00
C115   C     0.33004   0.08001   0.74997   0.00000  Uiso   1.00
C116   C     0.16996   0.41999   0.25003   0.00000  Uiso   1.00
C117   C     0.08004   0.16995   0.74999   0.00000  Uiso   1.00
C118   C     0.41994   0.33003   0.24997   0.00000  Uiso   1.00
C119   C     0.13832   0.38835   0.25005   0.00000  Uiso   1.00
C120   C     0.36170   0.11163   0.74992   0.00000  Uiso   1.00
C121   C     0.11168   0.13833   0.25001   0.00000  Uiso   1.00
C122   C     0.38831   0.36165   0.75003   0.00000  Uiso   1.00
C123   C     0.36170   0.11163   0.25004   0.00000  Uiso   1.00
C124   C     0.49999   0.25000   0.35628   0.00000  Uiso   1.00
C125   C     0.13830   0.38837   0.74998   0.00000  Uiso   1.00
C126   C     0.38830   0.36165   0.24996   0.00000  Uiso   1.00
C127   C     0.11168   0.13832   0.75001   0.00000  Uiso   1.00
C128   C     0.13834   0.11169   0.75001   0.00000  Uiso   1.00
C129   C     0.36166   0.38830   0.24997   0.00000  Uiso   1.00
C130   C     0.11165   0.36168   0.74996   0.00000  Uiso   1.00
C131   C     0.38835   0.13832   0.25006   0.00000  Uiso   1.00
C132   C     0.36166   0.38831   0.75005   0.00000  Uiso   1.00
C133   C     0.13832   0.11167   0.25000   0.00000  Uiso   1.00
C134   C     0.38839   0.13828   0.74993   0.00000  Uiso   1.00
C135   C     0.00001   0.25000   0.64433   0.00000  Uiso   1.00
C136   C     0.11164   0.36169   0.25003   0.00000  Uiso   1.00
C137   C     0.46776   0.27108   0.42035   0.00000  Uiso   1.00
C138   C     0.01574   0.21476   0.58226   0.00000  Uiso   1.00
C139   C     0.21160   0.00206   0.41904   0.00000  Uiso   1.00
C140   C     0.28845   0.00133   0.58087   0.00000  Uiso   1.00
C141   C     0.03221   0.22892   0.42037   0.00000  Uiso   1.00
C142   C     0.48430   0.28525   0.58220   0.00000  Uiso   1.00
C143   C     0.28838   0.49781   0.41902   0.00000  Uiso   1.00
C144   C     0.21153   0.49878   0.58091   0.00000  Uiso   1.00
C145   C     0.26648   0.03578   0.91763   0.00000  Uiso   1.00
C146   C     0.00019   0.24997   0.85620   0.00000  Uiso   1.00
C147   C     0.21224   0.49149   0.07963   0.00000  Uiso   1.00
C148   C     0.46278   0.24350   0.92000   0.00000  Uiso   1.00
C149   C     0.03887   0.25700   0.07998   0.00000  Uiso   1.00
C150   C     0.22983   0.46793   0.91892   0.00000  Uiso   1.00
C151   C     0.28446   0.01778   0.07884   0.00000  Uiso   1.00
C152   C     0.04006   0.24959   0.91887   0.00000  Uiso   1.00
C153   C     0.46445   0.23504   0.08099   0.00000  Uiso   1.00
C154   C     0.49998   0.25000   0.39928   0.00000  Uiso   1.00
C155   C     0.00003   0.25001   0.60233   0.00000  Uiso   1.00
C156   C     0.25000   0.49993   0.39849   0.00000  Uiso   1.00
C157   C     0.00057   0.24999   0.14377   0.00000  Uiso   1.00
C158   C     0.24999   0.00007   0.60137   0.00000  Uiso   1.00
C159   C     0.24925   0.00092   0.89799   0.00000  Uiso   1.00
C160   C     0.24920   0.00293   0.10055   0.00000  Uiso   1.00
C161   C     0.00096   0.24909   0.89922   0.00000  Uiso   1.00
C162   C     0.00092   0.24901   0.10070   0.00000  Uiso   1.00
C163   C     0.02540   0.22138   0.46032   0.00000  Uiso   1.00
C164   C     0.47681   0.28089   0.54197   0.00000  Uiso   1.00
C165   C     0.28675   0.48921   0.45932   0.00000  Uiso   1.00
C166   C     0.21222   0.00874   0.54069   0.00000  Uiso   1.00
C167   C     0.47457   0.27862   0.46028   0.00000  Uiso   1.00
C168   C     0.24990   0.49975   0.85580   0.00000  Uiso   1.00
C169   C     0.02321   0.21912   0.54201   0.00000  Uiso   1.00
C170   C     0.21322   0.01070   0.45931   0.00000  Uiso   1.00
C171   C     0.28775   0.49129   0.54069   0.00000  Uiso   1.00
C172   C     0.22090   0.47463   0.95874   0.00000  Uiso   1.00
C173   C     0.27780   0.02760   0.03928   0.00000  Uiso   1.00
C174   C     0.04117   0.23903   0.95886   0.00000  Uiso   1.00
C175   C     0.46725   0.22525   0.04096   0.00000  Uiso   1.00
C176   C     0.27345   0.03168   0.95791   0.00000  Uiso   1.00
C177   C     0.21708   0.48102   0.04011   0.00000  Uiso   1.00
C178   C     0.46438   0.23017   0.95966   0.00000  Uiso   1.00
C179   C     0.24991   0.00072   0.14365   0.00000  Uiso   1.00
C180   C     0.04211   0.24392   0.04030   0.00000  Uiso   1.00
C181   C     0.49999   0.25000   0.48079   0.00000  Uiso   1.00
C182   C     0.00001   0.25000   0.52158   0.00000  Uiso   1.00
C183   C     0.24998   0.49997   0.47973   0.00000  Uiso   1.00
C184   C     0.24998   0.00001   0.52037   0.00000  Uiso   1.00
C185   C     0.24703   0.00357   0.97865   0.00000  Uiso   1.00
C186   C     0.24740   0.00388   0.01917   0.00000  Uiso   1.00
C187   C     0.00332   0.23426   0.97945   0.00000  Uiso   1.00
C188   C     0.00429   0.23434   0.02041   0.00000  Uiso   1.00
C189   C     0.04555   0.18860   0.48079   0.00000  Uiso   1.00
C190   C     0.16996   0.08003   0.25000   0.00000  Uiso   1.00
C191   C     0.44910   0.30743   0.52113   0.00000  Uiso   1.00
C192   C     0.31869   0.46696   0.47915   0.00000  Uiso   1.00
C193   C     0.17869   0.02934   0.52043   0.00000  Uiso   1.00
C194   C     0.45443   0.31140   0.48071   0.00000  Uiso   1.00
C195   C     0.05090   0.19257   0.52119   0.00000  Uiso   1.00
C196   C     0.18126   0.03295   0.47910   0.00000  Uiso   1.00
C197   C     0.32125   0.47062   0.52047   0.00000  Uiso   1.00
C198   C     0.18944   0.45186   0.97964   0.00000  Uiso   1.00
C199   C     0.30124   0.05848   0.01904   0.00000  Uiso   1.00
C200   C     0.07866   0.22862   0.97880   0.00000  Uiso   1.00
H201   H     0.33864   0.26825   0.39051   0.00000  Uiso   1.00
H202   H     0.45067   0.10123   0.64691   0.00000  Uiso   1.00
H203   H     0.11236   0.33095   0.84943   0.00000  Uiso   1.00
H204   H     0.10528   0.37548   0.88129   0.00000  Uiso   1.00
H205   H     0.04339   0.32830   0.88490   0.00000  Uiso   1.00
H206   H     0.07067   0.32988   0.93062   0.00000  Uiso   1.00
H207   H     0.10771   0.26423   0.91500   0.00000  Uiso   1.00
H208   H     0.08188   0.25917   0.86932   0.00000  Uiso   1.00
H209   H     0.34156   0.27153   0.11172   0.00000  Uiso   1.00
H210   H     0.36923   0.27261   0.15782   0.00000  Uiso   1.00
H211   H     0.35830   0.32102   0.13234   0.00000  Uiso   1.00
H212   H     0.43292   0.30143   0.12428   0.00000  Uiso   1.00
H213   H     0.45998   0.17645   0.63478   0.00000  Uiso   1.00
H214   H     0.40589   0.30000   0.07845   0.00000  Uiso   1.00
H215   H     0.39607   0.22374   0.08364   0.00000  Uiso   1.00
H216   H     0.42236   0.22101   0.12934   0.00000  Uiso   1.00
H217   H     0.00514   0.04765   0.46771   0.00000  Uiso   1.00
H218   H     0.00893   0.07941   0.42431   0.00000  Uiso   1.00
H219   H     0.05616   0.06148   0.44822   0.00000  Uiso   1.00
H220   H     0.03298   0.10427   0.50814   0.00000  Uiso   1.00
H221   H     0.49076   0.12492   0.47906   0.00000  Uiso   1.00
H222   H     0.04751   0.14783   0.42976   0.00000  Uiso   1.00
H223   H     0.08633   0.13643   0.46587   0.00000  Uiso   1.00
H224   H     0.45682   0.14929   0.58915   0.00000  Uiso   1.00
H225   H     0.30233   0.29692   0.52936   0.00000  Uiso   1.00
H226   H     0.33218   0.29560   0.57397   0.00000  Uiso   1.00
H227   H     0.32523   0.34472   0.54831   0.00000  Uiso   1.00
H228   H     0.36526   0.31264   0.49110   0.00000  Uiso   1.00
H229   H     0.37495   0.26697   0.52061   0.00000  Uiso   1.00
H230   H     0.40734   0.31621   0.57098   0.00000  Uiso   1.00
H231   H     0.40601   0.35792   0.53586   0.00000  Uiso   1.00
H232   H     0.29745   0.33119   0.43116   0.00000  Uiso   1.00
H233   H     0.31362   0.37233   0.39809   0.00000  Uiso   1.00
H234   H     0.35130   0.34920   0.43090   0.00000  Uiso   1.00
H235   H     0.03325   0.14797   0.58347   0.00000  Uiso   1.00
H236   H     0.30689   0.37718   0.48754   0.00000  Uiso   1.00
H237   H     0.27439   0.40305   0.45221   0.00000  Uiso   1.00
H238   H     0.34544   0.43659   0.42735   0.00000  Uiso   1.00
H239   H     0.36816   0.41945   0.47067   0.00000  Uiso   1.00
H240   H     0.03817   0.03328   0.56162   0.00000  Uiso   1.00
H241   H     0.08050   0.03174   0.59654   0.00000  Uiso   1.00
H242   H     0.06828   0.08025   0.57154   0.00000  Uiso   1.00
H243   H     0.08741   0.04490   0.50809   0.00000  Uiso   1.00
H244   H     0.10217   0.49890   0.53395   0.00000  Uiso   1.00
H245   H     0.15180   0.05472   0.57409   0.00000  Uiso   1.00
H246   H     0.04097   0.17522   0.62836   0.00000  Uiso   1.00
H247   H     0.14439   0.08657   0.53375   0.00000  Uiso   1.00
H248   H     0.49459   0.45244   0.46742   0.00000  Uiso   1.00
H249   H     0.49081   0.42075   0.42404   0.00000  Uiso   1.00
H250   H     0.44357   0.43855   0.44804   0.00000  Uiso   1.00
H251   H     0.46688   0.39569   0.50793   0.00000  Uiso   1.00
H252   H     0.00914   0.37519   0.47881   0.00000  Uiso   1.00
H253   H     0.45249   0.35218   0.42961   0.00000  Uiso   1.00
H254   H     0.41359   0.36350   0.46568   0.00000  Uiso   1.00
H255   H     0.19770   0.20285   0.52915   0.00000  Uiso   1.00
H256   H     0.16789   0.20422   0.57381   0.00000  Uiso   1.00
H257   H     0.10018   0.43873   0.38691   0.00000  Uiso   1.00
H258   H     0.17474   0.15509   0.54825   0.00000  Uiso   1.00
H259   H     0.13471   0.18721   0.49104   0.00000  Uiso   1.00
H260   H     0.12512   0.23292   0.52044   0.00000  Uiso   1.00
H261   H     0.09268   0.18378   0.57099   0.00000  Uiso   1.00
H262   H     0.09392   0.14203   0.53600   0.00000  Uiso   1.00
H263   H     0.20223   0.16883   0.43097   0.00000  Uiso   1.00
H264   H     0.18626   0.12771   0.39792   0.00000  Uiso   1.00
H265   H     0.14844   0.15066   0.43068   0.00000  Uiso   1.00
H266   H     0.19282   0.12272   0.48738   0.00000  Uiso   1.00
H267   H     0.22546   0.09699   0.45209   0.00000  Uiso   1.00
H268   H     0.12941   0.44308   0.34176   0.00000  Uiso   1.00
H269   H     0.15461   0.06328   0.42719   0.00000  Uiso   1.00
H270   H     0.13167   0.08031   0.47044   0.00000  Uiso   1.00
H271   H     0.46179   0.46648   0.56148   0.00000  Uiso   1.00
H272   H     0.41949   0.46814   0.59647   0.00000  Uiso   1.00
H273   H     0.43158   0.41957   0.57159   0.00000  Uiso   1.00
H274   H     0.41249   0.45491   0.50807   0.00000  Uiso   1.00
H275   H     0.39784   0.00097   0.53381   0.00000  Uiso   1.00
H276   H     0.34812   0.44532   0.57420   0.00000  Uiso   1.00
H277   H     0.35545   0.41336   0.53399   0.00000  Uiso   1.00
H278   H     0.04249   0.45461   0.96353   0.00000  Uiso   1.00
H279   H     0.12811   0.39384   0.36790   0.00000  Uiso   1.00
H280   H     0.07366   0.44371   0.92085   0.00000  Uiso   1.00
H281   H     0.06798   0.40425   0.95862   0.00000  Uiso   1.00
H282   H     0.10561   0.45108   0.00517   0.00000  Uiso   1.00
H283   H     0.11175   0.49055   0.96813   0.00000  Uiso   1.00
H284   H     0.15170   0.44197   0.92718   0.00000  Uiso   1.00
H285   H     0.14833   0.40027   0.96175   0.00000  Uiso   1.00
H286   H     0.31545   0.15885   0.09752   0.00000  Uiso   1.00
H287   H     0.29834   0.18553   0.05372   0.00000  Uiso   1.00
H288   H     0.26171   0.17635   0.09282   0.00000  Uiso   1.00
H289   H     0.25091   0.12613   0.03741   0.00000  Uiso   1.00
H290   H     0.19628   0.42974   0.37799   0.00000  Uiso   1.00
H291   H     0.26395   0.10043   0.08259   0.00000  Uiso   1.00
H292   H     0.33961   0.09495   0.06027   0.00000  Uiso   1.00
H293   H     0.32586   0.12223   0.01695   0.00000  Uiso   1.00
H294   H     0.12929   0.12066   0.92447   0.00000  Uiso   1.00
H295   H     0.15790   0.12490   0.96991   0.00000  Uiso   1.00
H296   H     0.11603   0.08687   0.96492   0.00000  Uiso   1.00
H297   H     0.09178   0.14803   0.00324   0.00000  Uiso   1.00
H298   H     0.06341   0.14405   0.95838   0.00000  Uiso   1.00
H299   H     0.10596   0.19747   0.92754   0.00000  Uiso   1.00
H300   H     0.14114   0.20213   0.96707   0.00000  Uiso   1.00
H301   H     0.16771   0.42562   0.42276   0.00000  Uiso   1.00
H302   H     0.44204   0.08653   0.07834   0.00000  Uiso   1.00
H303   H     0.40779   0.07311   0.03818   0.00000  Uiso   1.00
H304   H     0.46240   0.05848   0.03683   0.00000  Uiso   1.00
H305   H     0.44937   0.12030   0.99431   0.00000  Uiso   1.00
H306   H     0.48424   0.13290   0.03370   0.00000  Uiso   1.00
H307   H     0.42371   0.16167   0.07149   0.00000  Uiso   1.00
H308   H     0.38886   0.15340   0.03230   0.00000  Uiso   1.00
H309   H     0.41090   0.06206   0.90497   0.00000  Uiso   1.00
H310   H     0.43271   0.05173   0.95273   0.00000  Uiso   1.00
H311   H     0.42835   0.00980   0.91763   0.00000  Uiso   1.00
H312   H     0.36626   0.25671   0.34563   0.00000  Uiso   1.00
H313   H     0.14282   0.49723   0.41806   0.00000  Uiso   1.00
H314   H     0.37209   0.00421   0.96783   0.00000  Uiso   1.00
H315   H     0.35079   0.01335   0.91997   0.00000  Uiso   1.00
H316   H     0.34356   0.09034   0.93571   0.00000  Uiso   1.00
H317   H     0.36772   0.08179   0.98097   0.00000  Uiso   1.00
H318   H     0.20760   0.33902   0.10850   0.00000  Uiso   1.00
H319   H     0.17080   0.38044   0.11964   0.00000  Uiso   1.00
H320   H     0.15768   0.34134   0.08355   0.00000  Uiso   1.00
H321   H     0.21945   0.36744   0.04273   0.00000  Uiso   1.00
H322   H     0.22836   0.40744   0.07864   0.00000  Uiso   1.00
H323   H     0.14775   0.42727   0.06541   0.00000  Uiso   1.00
H324   H     0.16673   0.00609   0.37150   0.00000  Uiso   1.00
H325   H     0.15216   0.39397   0.02510   0.00000  Uiso   1.00
H326   H     0.32026   0.19646   0.91705   0.00000  Uiso   1.00
H327   H     0.31128   0.15728   0.95452   0.00000  Uiso   1.00
H328   H     0.28582   0.20764   0.95752   0.00000  Uiso   1.00
H329   H     0.34623   0.20260   0.00327   0.00000  Uiso   1.00
H330   H     0.35339   0.24328   0.96839   0.00000  Uiso   1.00
H331   H     0.39781   0.18801   0.92766   0.00000  Uiso   1.00
H332   H     0.39278   0.15416   0.96669   0.00000  Uiso   1.00
H333   H     0.21882   0.27844   0.04863   0.00000  Uiso   1.00
H334   H     0.18600   0.25931   0.08773   0.00000  Uiso   1.00
H335   H     0.36408   0.07701   0.65196   0.00000  Uiso   1.00
H336   H     0.20842   0.22277   0.05304   0.00000  Uiso   1.00
H337   H     0.16625   0.25614   0.00009   0.00000  Uiso   1.00
H338   H     0.14382   0.29213   0.03346   0.00000  Uiso   1.00
H339   H     0.11725   0.22460   0.07290   0.00000  Uiso   1.00
H340   H     0.13392   0.19528   0.03354   0.00000  Uiso   1.00
H341   H     0.38997   0.08162   0.60511   0.00000  Uiso   1.00
H342   H     0.35703   0.12365   0.62270   0.00000  Uiso   1.00
H343   H     0.32013   0.08181   0.57195   0.00000  Uiso   1.00
H344   H     0.29405   0.07823   0.61813   0.00000  Uiso   1.00
H345   H     0.33180   0.00739   0.62956   0.00000  Uiso   1.00
H346   H     0.35582   0.01491   0.58351   0.00000  Uiso   1.00
H347   H     0.16135   0.23187   0.39048   0.00000  Uiso   1.00
H348   H     0.34142   0.21487   0.37284   0.00000  Uiso   1.00
H349   H     0.13375   0.24340   0.34559   0.00000  Uiso   1.00
H350   H     0.15853   0.28526   0.37270   0.00000  Uiso   1.00
H351   H     0.08151   0.28640   0.38302   0.00000  Uiso   1.00
H352   H     0.10854   0.27479   0.42732   0.00000  Uiso   1.00
H353   H     0.09545   0.20144   0.42271   0.00000  Uiso   1.00
H354   H     0.07346   0.20237   0.37579   0.00000  Uiso   1.00
H355   H     0.00411   0.41137   0.61710   0.00000  Uiso   1.00
H356   H     0.49747   0.38308   0.66251   0.00000  Uiso   1.00
H357   H     0.04921   0.39874   0.64675   0.00000  Uiso   1.00
H358   H     0.04001   0.32355   0.63463   0.00000  Uiso   1.00
H359   H     0.41843   0.21365   0.38314   0.00000  Uiso   1.00
H360   H     0.04317   0.35080   0.58899   0.00000  Uiso   1.00
H361   H     0.46678   0.35203   0.58328   0.00000  Uiso   1.00
H362   H     0.45899   0.32476   0.62822   0.00000  Uiso   1.00
H363   H     0.39985   0.06107   0.38662   0.00000  Uiso   1.00
H364   H     0.37058   0.05677   0.34153   0.00000  Uiso   1.00
H365   H     0.37195   0.10599   0.36758   0.00000  Uiso   1.00
H366   H     0.30375   0.07015   0.37786   0.00000  Uiso   1.00
H367   H     0.33237   0.07422   0.42257   0.00000  Uiso   1.00
H368   H     0.35717   0.00260   0.41797   0.00000  Uiso   1.00
H369   H     0.33326   0.49377   0.37145   0.00000  Uiso   1.00
H370   H     0.39138   0.22528   0.42743   0.00000  Uiso   1.00
H371   H     0.13595   0.42285   0.65210   0.00000  Uiso   1.00
H372   H     0.11008   0.41835   0.60526   0.00000  Uiso   1.00
H373   H     0.14305   0.37630   0.62283   0.00000  Uiso   1.00
H374   H     0.17991   0.41832   0.57205   0.00000  Uiso   1.00
H375   H     0.20600   0.42177   0.61819   0.00000  Uiso   1.00
H376   H     0.16825   0.49255   0.62971   0.00000  Uiso   1.00
H377   H     0.14416   0.48517   0.58373   0.00000  Uiso   1.00
H378   H     0.24112   0.16138   0.89335   0.00000  Uiso   1.00
H379   H     0.25476   0.14302   0.84507   0.00000  Uiso   1.00
H380   H     0.20035   0.15122   0.85812   0.00000  Uiso   1.00
H381   H     0.40454   0.29862   0.42266   0.00000  Uiso   1.00
H382   H     0.21599   0.07590   0.85847   0.00000  Uiso   1.00
H383   H     0.20464   0.09343   0.90706   0.00000  Uiso   1.00
H384   H     0.28175   0.10240   0.91807   0.00000  Uiso   1.00
H385   H     0.29355   0.07633   0.87296   0.00000  Uiso   1.00
H386   H     0.19205   0.07267   0.05070   0.00000  Uiso   1.00
H387   H     0.13571   0.06557   0.04702   0.00000  Uiso   1.00
H388   H     0.15706   0.10904   0.07437   0.00000  Uiso   1.00
H389   H     0.13161   0.05273   0.11871   0.00000  Uiso   1.00
H390   H     0.18719   0.06047   0.12312   0.00000  Uiso   1.00
H391   H     0.14386   0.49401   0.07219   0.00000  Uiso   1.00
H392   H     0.42656   0.29768   0.37573   0.00000  Uiso   1.00
H393   H     0.16001   0.48164   0.12001   0.00000  Uiso   1.00
H394   H     0.38954   0.31528   0.84508   0.00000  Uiso   1.00
H395   H     0.35740   0.31703   0.88860   0.00000  Uiso   1.00
H396   H     0.38930   0.36181   0.87506   0.00000  Uiso   1.00
H397   H     0.42310   0.32286   0.92915   0.00000  Uiso   1.00
H398   H     0.45430   0.32080   0.88585   0.00000  Uiso   1.00
H399   H     0.41812   0.24731   0.87230   0.00000  Uiso   1.00
H400   H     0.39448   0.25455   0.91849   0.00000  Uiso   1.00
H401   H     0.08511   0.34949   0.04177   0.00000  Uiso   1.00
H402   H     0.03065   0.33359   0.03634   0.00000  Uiso   1.00
H403   H     0.49581   0.08863   0.61728   0.00000  Uiso   1.00
H404   H     0.04339   0.38479   0.05549   0.00000  Uiso   1.00
H405   H     0.02113   0.33559   0.10845   0.00000  Uiso   1.00
H406   H     0.07418   0.35378   0.11443   0.00000  Uiso   1.00
H407   H     0.07677   0.27927   0.12844   0.00000  Uiso   1.00
H408   H     0.10062   0.28881   0.08339   0.00000  Uiso   1.00
H409   H     0.30447   0.43036   0.94171   0.00000  Uiso   1.00
H410   H     0.27902   0.38018   0.95069   0.00000  Uiso   1.00
H411   H     0.32613   0.38296   0.92150   0.00000  Uiso   1.00
H412   H     0.26516   0.37358   0.87847   0.00000  Uiso   1.00
H413   H     0.28760   0.42454   0.87091   0.00000  Uiso   1.00
H414   H     0.00241   0.11681   0.66269   0.00000  Uiso   1.00
H415   H     0.21050   0.40137   0.92030   0.00000  Uiso   1.00
H416   H     0.20761   0.42562   0.87365   0.00000  Uiso   1.00
H417   H     0.41082   0.48835   0.10523   0.00000  Uiso   1.00
H418   H     0.38346   0.48517   0.15143   0.00000  Uiso   1.00
H419   H     0.39725   0.43774   0.12566   0.00000  Uiso   1.00
H420   H     0.32141   0.45272   0.11781   0.00000  Uiso   1.00
H421   H     0.34819   0.45596   0.07221   0.00000  Uiso   1.00
H422   H     0.35183   0.03030   0.07323   0.00000  Uiso   1.00
H423   H     0.33207   0.03671   0.12105   0.00000  Uiso   1.00
H424   H     0.13971   0.33324   0.89568   0.00000  Uiso   1.00
O425   O     0.25000  -0.00000   0.25000   0.00000  Uiso   1.00
O426   O     0.25000   0.46539   0.66251   0.00000  Uiso   1.00
O427   O     0.46539   0.25000   0.33749   0.00000  Uiso   1.00
O428   O     0.03462   0.25000   0.66251   0.00000  Uiso   1.00
O429   O     0.00000   0.21539   0.83749   0.00000  Uiso   1.00
O430   O     0.00000   0.28462   0.16251   0.00000  Uiso   1.00
O431   O     0.28462  -0.00000   0.83749   0.00000  Uiso   1.00
O432   O     0.21539  -0.00000   0.16251   0.00000  Uiso   1.00
O433   O     0.00000   0.28462   0.83749   0.00000  Uiso   1.00
O434   O     0.00000   0.21539   0.16251   0.00000  Uiso   1.00
O435   O     0.21539  -0.00000   0.83749   0.00000  Uiso   1.00
O436   O     0.25000  -0.00000   0.75000   0.00000  Uiso   1.00
O437   O     0.28462  -0.00000   0.16251   0.00000  Uiso   1.00
O438   O     0.20127   0.08332   0.27298   0.00000  Uiso   1.00
O439   O     0.29874   0.41668   0.72702   0.00000  Uiso   1.00
O440   O     0.41668   0.20126   0.27298   0.00000  Uiso   1.00
O441   O     0.08332   0.29874   0.72702   0.00000  Uiso   1.00
O442   O     0.29874   0.41668   0.27298   0.00000  Uiso   1.00
O443   O     0.20127   0.08332   0.72702   0.00000  Uiso   1.00
O444   O     0.08332   0.29874   0.27298   0.00000  Uiso   1.00
O445   O     0.41668   0.20126   0.72702   0.00000  Uiso   1.00
O446   O     0.20127   0.41668   0.72702   0.00000  Uiso   1.00
O447   O     0.00000   0.25000   0.25000   0.00000  Uiso   1.00
O448   O     0.29874   0.08332   0.27298   0.00000  Uiso   1.00
O449   O     0.41668   0.29873   0.72702   0.00000  Uiso   1.00
O450   O     0.08332   0.20127   0.27298   0.00000  Uiso   1.00
O451   O     0.29874   0.08332   0.72702   0.00000  Uiso   1.00
O452   O     0.20127   0.41668   0.27298   0.00000  Uiso   1.00
O453   O     0.08332   0.20127   0.72702   0.00000  Uiso   1.00
O454   O     0.41668   0.29873   0.27298   0.00000  Uiso   1.00
O455   O     0.45127   0.33332   0.77298   0.00000  Uiso   1.00
O456   O     0.04874   0.16668   0.22702   0.00000  Uiso   1.00
O457   O     0.16668   0.45127   0.77298   0.00000  Uiso   1.00
O458   O     0.00000   0.25000   0.75000   0.00000  Uiso   1.00
O459   O     0.33332   0.04873   0.22702   0.00000  Uiso   1.00
O460   O     0.04874   0.16668   0.77298   0.00000  Uiso   1.00
O461   O     0.45127   0.33332   0.22702   0.00000  Uiso   1.00
O462   O     0.33332   0.04873   0.77298   0.00000  Uiso   1.00
O463   O     0.16668   0.45127   0.22702   0.00000  Uiso   1.00
O464   O     0.45127   0.16668   0.22702   0.00000  Uiso   1.00
O465   O     0.04874   0.33332   0.77298   0.00000  Uiso   1.00
O466   O     0.16668   0.04873   0.22702   0.00000  Uiso   1.00
O467   O     0.33332   0.45126   0.77298   0.00000  Uiso   1.00
O468   O     0.04874   0.33332   0.22702   0.00000  Uiso   1.00
O469   O     0.25000   0.46539   0.33749   0.00000  Uiso   1.00
O470   O     0.45127   0.16668   0.77298   0.00000  Uiso   1.00
O471   O     0.33332   0.45126   0.22702   0.00000  Uiso   1.00
O472   O     0.16668   0.04873   0.77298   0.00000  Uiso   1.00
O473   O     0.25000   0.03461   0.66251   0.00000  Uiso   1.00
O474   O     0.03462   0.25000   0.33749   0.00000  Uiso   1.00
O475   O     0.46539   0.25000   0.66251   0.00000  Uiso   1.00
O476   O     0.25000   0.03461   0.33749   0.00000  Uiso   1.00
Zn477  Zn    0.20053  -0.00000   0.21730   0.00000  Uiso   1.00
Zn478  Zn    0.04948   0.25000   0.28270   0.00000  Uiso   1.00
Zn479  Zn    0.25000   0.45053   0.71730   0.00000  Uiso   1.00
Zn480  Zn    0.25000   0.04947   0.28270   0.00000  Uiso   1.00
Zn481  Zn    0.04948   0.25000   0.71730   0.00000  Uiso   1.00
Zn482  Zn    0.45053   0.25000   0.28270   0.00000  Uiso   1.00
Zn483  Zn    0.25000   0.04947   0.71730   0.00000  Uiso   1.00
Zn484  Zn    0.25000   0.45053   0.28270   0.00000  Uiso   1.00
Zn485  Zn    0.29948  -0.00000   0.78270   0.00000  Uiso   1.00
Zn486  Zn    0.00000   0.20053   0.21730   0.00000  Uiso   1.00
Zn487  Zn    0.00000   0.29948   0.78270   0.00000  Uiso   1.00
Zn488  Zn    0.29948  -0.00000   0.21730   0.00000  Uiso   1.00
Zn489  Zn    0.20053  -0.00000   0.78270   0.00000  Uiso   1.00
Zn490  Zn    0.00000   0.29947   0.21730   0.00000  Uiso   1.00
Zn491  Zn    0.00000   0.20053   0.78270   0.00000  Uiso   1.00
Zn492  Zn    0.45053   0.25000   0.71730   0.00000  Uiso   1.00
C493   C     0.75000   0.49998   0.35597   0.00000  Uiso   1.00
C494   C     0.83003   0.41996   0.75002   0.00000  Uiso   1.00
C495   C     0.93602   0.20223   0.02099   0.00000  Uiso   1.00
C496   C     0.80438   0.05541   0.97826   0.00000  Uiso   1.00
C497   C     0.69121   0.45116   0.02089   0.00000  Uiso   1.00
C498   C     0.93106   0.20910   0.98023   0.00000  Uiso   1.00
C499   C     0.58070   0.23586   0.01980   0.00000  Uiso   1.00
C500   C     0.92420   0.27931   0.40312   0.00000  Uiso   1.00
C501   C     0.89948   0.23797   0.39819   0.00000  Uiso   1.00
C502   C     0.85892   0.24503   0.37536   0.00000  Uiso   1.00
C503   C     0.51973   0.17218   0.60285   0.00000  Uiso   1.00
C504   C     0.97674   0.15440   0.61532   0.00000  Uiso   1.00
C505   C     0.91997   0.16998   0.25002   0.00000  Uiso   1.00
C506   C     0.98185   0.11265   0.63683   0.00000  Uiso   1.00
C507   C     0.67036   0.48926   0.39966   0.00000  Uiso   1.00
C508   C     0.66828   0.44136   0.39385   0.00000  Uiso   1.00
C509   C     0.62898   0.42860   0.37119   0.00000  Uiso   1.00
C510   C     0.82697   0.02089   0.60007   0.00000  Uiso   1.00
C511   C     0.82277   0.06900   0.60198   0.00000  Uiso   1.00
C512   C     0.86090   0.08895   0.62172   0.00000  Uiso   1.00
C513   C     0.57578   0.22073   0.40313   0.00000  Uiso   1.00
C514   C     0.60048   0.26209   0.39811   0.00000  Uiso   1.00
C515   C     0.64105   0.25508   0.37529   0.00000  Uiso   1.00
C516   C     0.58002   0.33003   0.74998   0.00000  Uiso   1.00
C517   C     0.98028   0.32782   0.60271   0.00000  Uiso   1.00
C518   C     0.52324   0.34562   0.61517   0.00000  Uiso   1.00
C519   C     0.51806   0.38731   0.63666   0.00000  Uiso   1.00
C520   C     0.82963   0.01059   0.39958   0.00000  Uiso   1.00
C521   C     0.83175   0.05849   0.39369   0.00000  Uiso   1.00
C522   C     0.87105   0.07123   0.37093   0.00000  Uiso   1.00
C523   C     0.67304   0.47914   0.60020   0.00000  Uiso   1.00
C524   C     0.67727   0.43104   0.60208   0.00000  Uiso   1.00
C525   C     0.63915   0.41100   0.62185   0.00000  Uiso   1.00
C526   C     0.77069   0.07834   0.89735   0.00000  Uiso   1.00
C527   C     0.83004   0.41995   0.24999   0.00000  Uiso   1.00
C528   C     0.72798   0.09499   0.88299   0.00000  Uiso   1.00
C529   C     0.73142   0.14051   0.86904   0.00000  Uiso   1.00
C530   C     0.66802   0.00141   0.09445   0.00000  Uiso   1.00
C531   C     0.66218   0.04857   0.10347   0.00000  Uiso   1.00
C532   C     0.66176   0.07549   0.06653   0.00000  Uiso   1.00
C533   C     0.92287   0.26131   0.90159   0.00000  Uiso   1.00
C534   C     0.92457   0.30964   0.89923   0.00000  Uiso   1.00
C535   C     0.88784   0.32690   0.87551   0.00000  Uiso   1.00
C536   C     0.56999   0.28815   0.09783   0.00000  Uiso   1.00
C537   C     0.55341   0.33360   0.09626   0.00000  Uiso   1.00
C538   C     0.66997   0.08006   0.75002   0.00000  Uiso   1.00
C539   C     0.55319   0.35128   0.05484   0.00000  Uiso   1.00
C540   C     0.72646   0.42412   0.90081   0.00000  Uiso   1.00
C541   C     0.76991   0.40496   0.89207   0.00000  Uiso   1.00
C542   C     0.79638   0.39932   0.92886   0.00000  Uiso   1.00
C543   C     0.82930   0.01703   0.09453   0.00000  Uiso   1.00
C544   C     0.84449   0.47159   0.10094   0.00000  Uiso   1.00
C545   C     0.88666   0.47080   0.12214   0.00000  Uiso   1.00
C546   C     0.57789   0.27082   0.89955   0.00000  Uiso   1.00
C547   C     0.57276   0.31889   0.89998   0.00000  Uiso   1.00
C548   C     0.60992   0.34087   0.88033   0.00000  Uiso   1.00
C549   C     0.58002   0.33003   0.25000   0.00000  Uiso   1.00
C550   C     0.92161   0.23811   0.10114   0.00000  Uiso   1.00
C551   C     0.90881   0.28423   0.10722   0.00000  Uiso   1.00
C552   C     0.86683   0.28740   0.12861   0.00000  Uiso   1.00
C553   C     0.55330   0.14621   0.46155   0.00000  Uiso   1.00
C554   C     0.52345   0.11251   0.47803   0.00000  Uiso   1.00
C555   C     0.52356   0.07281   0.45301   0.00000  Uiso   1.00
C556   C     0.90845   0.32336   0.53943   0.00000  Uiso   1.00
C557   C     0.86989   0.30158   0.52138   0.00000  Uiso   1.00
C558   C     0.82998   0.31037   0.54474   0.00000  Uiso   1.00
C559   C     0.83793   0.42930   0.45798   0.00000  Uiso   1.00
C560   C     0.92001   0.16994   0.74996   0.00000  Uiso   1.00
C561   C     0.80692   0.39203   0.45834   0.00000  Uiso   1.00
C562   C     0.81815   0.35916   0.42774   0.00000  Uiso   1.00
C563   C     0.64455   0.05308   0.54258   0.00000  Uiso   1.00
C564   C     0.60055   0.03374   0.53597   0.00000  Uiso   1.00
C565   C     0.57006   0.04557   0.56848   0.00000  Uiso   1.00
C566   C     0.94665   0.35379   0.46139   0.00000  Uiso   1.00
C567   C     0.97643   0.38752   0.47781   0.00000  Uiso   1.00
C568   C     0.97620   0.42727   0.45277   0.00000  Uiso   1.00
C569   C     0.59154   0.17660   0.53947   0.00000  Uiso   1.00
C570   C     0.63013   0.19830   0.52130   0.00000  Uiso   1.00
C571   C     0.66996   0.42000   0.74999   0.00000  Uiso   1.00
C572   C     0.67004   0.18945   0.54461   0.00000  Uiso   1.00
C573   C     0.66198   0.07056   0.45783   0.00000  Uiso   1.00
C574   C     0.69289   0.10792   0.45819   0.00000  Uiso   1.00
C575   C     0.68162   0.14081   0.42755   0.00000  Uiso   1.00
C576   C     0.85535   0.44688   0.54267   0.00000  Uiso   1.00
C577   C     0.89939   0.46612   0.53594   0.00000  Uiso   1.00
C578   C     0.92988   0.45426   0.56843   0.00000  Uiso   1.00
C579   C     0.65038   0.43501   0.95878   0.00000  Uiso   1.00
C580   C     0.60984   0.45608   0.97347   0.00000  Uiso   1.00
C581   C     0.57116   0.43849   0.95272   0.00000  Uiso   1.00
C582   C     0.83005   0.07999   0.25002   0.00000  Uiso   1.00
C583   C     0.81405   0.09955   0.03893   0.00000  Uiso   1.00
C584   C     0.77643   0.12081   0.05898   0.00000  Uiso   1.00
C585   C     0.78894   0.16299   0.07682   0.00000  Uiso   1.00
C586   C     0.60774   0.19631   0.95971   0.00000  Uiso   1.00
C587   C     0.59473   0.15129   0.97120   0.00000  Uiso   1.00
C588   C     0.62655   0.11901   0.95665   0.00000  Uiso   1.00
C589   C     0.92196   0.16065   0.03932   0.00000  Uiso   1.00
C590   C     0.95113   0.12474   0.02629   0.00000  Uiso   1.00
C591   C     0.94000   0.08323   0.04623   0.00000  Uiso   1.00
C592   C     0.84646   0.06704   0.95935   0.00000  Uiso   1.00
C593   C     0.91995   0.33002   0.75001   0.00000  Uiso   1.00
C594   C     0.86911   0.02777   0.94404   0.00000  Uiso   1.00
C595   C     0.91300   0.03866   0.92892   0.00000  Uiso   1.00
C596   C     0.67064   0.41528   0.04397   0.00000  Uiso   1.00
C597   C     0.70373   0.38788   0.06455   0.00000  Uiso   1.00
C598   C     0.68360   0.36043   0.09596   0.00000  Uiso   1.00
C599   C     0.89402   0.18813   0.95967   0.00000  Uiso   1.00
C600   C     0.85216   0.20859   0.97198   0.00000  Uiso   1.00
C601   C     0.81517   0.19134   0.94868   0.00000  Uiso   1.00
C602   C     0.62194   0.22694   0.04103   0.00000  Uiso   1.00
C603   C     0.65612   0.25965   0.03076   0.00000  Uiso   1.00
C604   C     0.75000   0.00002   0.64400   0.00000  Uiso   1.00
C605   C     0.58004   0.16997   0.25001   0.00000  Uiso   1.00
C606   C     0.69470   0.25464   0.05674   0.00000  Uiso   1.00
C607   C     0.83004   0.08001   0.74997   0.00000  Uiso   1.00
C608   C     0.66996   0.41999   0.25003   0.00000  Uiso   1.00
C609   C     0.58004   0.16995   0.74999   0.00000  Uiso   1.00
C610   C     0.91994   0.33003   0.24997   0.00000  Uiso   1.00
C611   C     0.63832   0.38835   0.25005   0.00000  Uiso   1.00
C612   C     0.86170   0.11163   0.74992   0.00000  Uiso   1.00
C613   C     0.61168   0.13833   0.25001   0.00000  Uiso   1.00
C614   C     0.88831   0.36165   0.75003   0.00000  Uiso   1.00
C615   C     0.86170   0.11163   0.25004   0.00000  Uiso   1.00
C616   C     0.99999   0.25000   0.35628   0.00000  Uiso   1.00
C617   C     0.63830   0.38837   0.74998   0.00000  Uiso   1.00
C618   C     0.88830   0.36165   0.24996   0.00000  Uiso   1.00
C619   C     0.61168   0.13832   0.75001   0.00000  Uiso   1.00
C620   C     0.63834   0.11169   0.75001   0.00000  Uiso   1.00
C621   C     0.86166   0.38830   0.24997   0.00000  Uiso   1.00
C622   C     0.61165   0.36168   0.74996   0.00000  Uiso   1.00
C623   C     0.88835   0.13832   0.25006   0.00000  Uiso   1.00
C624   C     0.86166   0.38831   0.75005   0.00000  Uiso   1.00
C625   C     0.63832   0.11167   0.25000   0.00000  Uiso   1.00
C626   C     0.88839   0.13828   0.74993   0.00000  Uiso   1.00
C627   C     0.50001   0.25000   0.64433   0.00000  Uiso   1.00
C628   C     0.61164   0.36169   0.25003   0.00000  Uiso   1.00
C629   C     0.96776   0.27108   0.42035   0.00000  Uiso   1.00
C630   C     0.51574   0.21476   0.58226   0.00000  Uiso   1.00
C631   C     0.71160   0.00206   0.41904   0.00000  Uiso   1.00
C632   C     0.78845   0.00133   0.58087   0.00000  Uiso   1.00
C633   C     0.53221   0.22892   0.42037   0.00000  Uiso   1.00
C634   C     0.98430   0.28525   0.58220   0.00000  Uiso   1.00
C635   C     0.78838   0.49781   0.41902   0.00000  Uiso   1.00
C636   C     0.71153   0.49878   0.58091   0.00000  Uiso   1.00
C637   C     0.76648   0.03578   0.91763   0.00000  Uiso   1.00
C638   C     0.50019   0.24997   0.85620   0.00000  Uiso   1.00
C639   C     0.71224   0.49149   0.07963   0.00000  Uiso   1.00
C640   C     0.96278   0.24350   0.92000   0.00000  Uiso   1.00
C641   C     0.53887   0.25700   0.07998   0.00000  Uiso   1.00
C642   C     0.72983   0.46793   0.91892   0.00000  Uiso   1.00
C643   C     0.78446   0.01778   0.07884   0.00000  Uiso   1.00
C644   C     0.54006   0.24959   0.91887   0.00000  Uiso   1.00
C645   C     0.96445   0.23504   0.08099   0.00000  Uiso   1.00
C646   C     0.99998   0.25000   0.39928   0.00000  Uiso   1.00
C647   C     0.50003   0.25001   0.60233   0.00000  Uiso   1.00
C648   C     0.75000   0.49993   0.39849   0.00000  Uiso   1.00
C649   C     0.50057   0.24999   0.14377   0.00000  Uiso   1.00
C650   C     0.74999   0.00007   0.60137   0.00000  Uiso   1.00
C651   C     0.74925   0.00092   0.89799   0.00000  Uiso   1.00
C652   C     0.74920   0.00293   0.10055   0.00000  Uiso   1.00
C653   C     0.50096   0.24909   0.89922   0.00000  Uiso   1.00
C654   C     0.50092   0.24901   0.10070   0.00000  Uiso   1.00
C655   C     0.52540   0.22138   0.46032   0.00000  Uiso   1.00
C656   C     0.97681   0.28089   0.54197   0.00000  Uiso   1.00
C657   C     0.78675   0.48921   0.45932   0.00000  Uiso   1.00
C658   C     0.71222   0.00874   0.54069   0.00000  Uiso   1.00
C659   C     0.97457   0.27862   0.46028   0.00000  Uiso   1.00
C660   C     0.74990   0.49975   0.85580   0.00000  Uiso   1.00
C661   C     0.52321   0.21912   0.54201   0.00000  Uiso   1.00
C662   C     0.71322   0.01070   0.45931   0.00000  Uiso   1.00
C663   C     0.78775   0.49129   0.54069   0.00000  Uiso   1.00
C664   C     0.72090   0.47463   0.95874   0.00000  Uiso   1.00
C665   C     0.77780   0.02760   0.03928   0.00000  Uiso   1.00
C666   C     0.54117   0.23903   0.95886   0.00000  Uiso   1.00
C667   C     0.96725   0.22525   0.04096   0.00000  Uiso   1.00
C668   C     0.77345   0.03168   0.95791   0.00000  Uiso   1.00
C669   C     0.71708   0.48102   0.04011   0.00000  Uiso   1.00
C670   C     0.96438   0.23017   0.95966   0.00000  Uiso   1.00
C671   C     0.74991   0.00072   0.14365   0.00000  Uiso   1.00
C672   C     0.54211   0.24392   0.04030   0.00000  Uiso   1.00
C673   C     0.99999   0.25000   0.48079   0.00000  Uiso   1.00
C674   C     0.50001   0.25000   0.52158   0.00000  Uiso   1.00
C675   C     0.74998   0.49997   0.47973   0.00000  Uiso   1.00
C676   C     0.74998   0.00001   0.52037   0.00000  Uiso   1.00
C677   C     0.74703   0.00357   0.97865   0.00000  Uiso   1.00
C678   C     0.74740   0.00388   0.01917   0.00000  Uiso   1.00
C679   C     0.50332   0.23426   0.97945   0.00000  Uiso   1.00
C680   C     0.50429   0.23434   0.02041   0.00000  Uiso   1.00
C681   C     0.54555   0.18860   0.48079   0.00000  Uiso   1.00
C682   C     0.66996   0.08003   0.25000   0.00000  Uiso   1.00
C683   C     0.94910   0.30743   0.52113   0.00000  Uiso   1.00
C684   C     0.81869   0.46696   0.47915   0.00000  Uiso   1.00
C685   C     0.67869   0.02934   0.52043   0.00000  Uiso   1.00
C686   C     0.95443   0.31140   0.48071   0.00000  Uiso   1.00
C687   C     0.55090   0.19257   0.52119   0.00000  Uiso   1.00
C688   C     0.68126   0.03295   0.47910   0.00000  Uiso   1.00
C689   C     0.82125   0.47062   0.52047   0.00000  Uiso   1.00
C690   C     0.68944   0.45186   0.97964   0.00000  Uiso   1.00
C691   C     0.80124   0.05848   0.01904   0.00000  Uiso   1.00
C692   C     0.57866   0.22862   0.97880   0.00000  Uiso   1.00
H693   H     0.83864   0.26825   0.39051   0.00000  Uiso   1.00
H694   H     0.95067   0.10123   0.64691   0.00000  Uiso   1.00
H695   H     0.61236   0.33095   0.84943   0.00000  Uiso   1.00
H696   H     0.60528   0.37548   0.88129   0.00000  Uiso   1.00
H697   H     0.54339   0.32830   0.88490   0.00000  Uiso   1.00
H698   H     0.57067   0.32988   0.93062   0.00000  Uiso   1.00
H699   H     0.60771   0.26423   0.91500   0.00000  Uiso   1.00
H700   H     0.58188   0.25917   0.86932   0.00000  Uiso   1.00
H701   H     0.84156   0.27153   0.11172   0.00000  Uiso   1.00
H702   H     0.86923   0.27261   0.15782   0.00000  Uiso   1.00
H703   H     0.85830   0.32102   0.13234   0.00000  Uiso   1.00
H704   H     0.93292   0.30143   0.12428   0.00000  Uiso   1.00
H705   H     0.95998   0.17645   0.63478   0.00000  Uiso   1.00
H706   H     0.90589   0.30000   0.07845   0.00000  Uiso   1.00
H707   H     0.89607   0.22374   0.08364   0.00000  Uiso   1.00
H708   H     0.92236   0.22101   0.12934   0.00000  Uiso   1.00
H709   H     0.50514   0.04765   0.46771   0.00000  Uiso   1.00
H710   H     0.50893   0.07941   0.42431   0.00000  Uiso   1.00
H711   H     0.55616   0.06148   0.44822   0.00000  Uiso   1.00
H712   H     0.53298   0.10427   0.50814   0.00000  Uiso   1.00
H713   H     0.99076   0.12492   0.47906   0.00000  Uiso   1.00
H714   H     0.54751   0.14783   0.42976   0.00000  Uiso   1.00
H715   H     0.58633   0.13643   0.46587   0.00000  Uiso   1.00
H716   H     0.95682   0.14929   0.58915   0.00000  Uiso   1.00
H717   H     0.80233   0.29692   0.52936   0.00000  Uiso   1.00
H718   H     0.83218   0.29560   0.57397   0.00000  Uiso   1.00
H719   H     0.82523   0.34472   0.54831   0.00000  Uiso   1.00
H720   H     0.86526   0.31264   0.49110   0.00000  Uiso   1.00
H721   H     0.87495   0.26697   0.52061   0.00000  Uiso   1.00
H722   H     0.90734   0.31621   0.57098   0.00000  Uiso   1.00
H723   H     0.90601   0.35792   0.53586   0.00000  Uiso   1.00
H724   H     0.79745   0.33119   0.43116   0.00000  Uiso   1.00
H725   H     0.81362   0.37233   0.39809   0.00000  Uiso   1.00
H726   H     0.85130   0.34920   0.43090   0.00000  Uiso   1.00
H727   H     0.53325   0.14797   0.58347   0.00000  Uiso   1.00
H728   H     0.80689   0.37718   0.48754   0.00000  Uiso   1.00
H729   H     0.77439   0.40305   0.45221   0.00000  Uiso   1.00
H730   H     0.84544   0.43659   0.42735   0.00000  Uiso   1.00
H731   H     0.86816   0.41945   0.47067   0.00000  Uiso   1.00
H732   H     0.53817   0.03328   0.56162   0.00000  Uiso   1.00
H733   H     0.58050   0.03174   0.59654   0.00000  Uiso   1.00
H734   H     0.56828   0.08025   0.57154   0.00000  Uiso   1.00
H735   H     0.58741   0.04490   0.50809   0.00000  Uiso   1.00
H736   H     0.60217   0.49890   0.53395   0.00000  Uiso   1.00
H737   H     0.65180   0.05472   0.57409   0.00000  Uiso   1.00
H738   H     0.54097   0.17522   0.62836   0.00000  Uiso   1.00
H739   H     0.64439   0.08657   0.53375   0.00000  Uiso   1.00
H740   H     0.99459   0.45244   0.46742   0.00000  Uiso   1.00
H741   H     0.99081   0.42075   0.42404   0.00000  Uiso   1.00
H742   H     0.94357   0.43855   0.44804   0.00000  Uiso   1.00
H743   H     0.96688   0.39569   0.50793   0.00000  Uiso   1.00
H744   H     0.50914   0.37519   0.47881   0.00000  Uiso   1.00
H745   H     0.95249   0.35218   0.42961   0.00000  Uiso   1.00
H746   H     0.91359   0.36350   0.46568   0.00000  Uiso   1.00
H747   H     0.69770   0.20285   0.52915   0.00000  Uiso   1.00
H748   H     0.66789   0.20422   0.57381   0.00000  Uiso   1.00
H749   H     0.60018   0.43873   0.38691   0.00000  Uiso   1.00
H750   H     0.67474   0.15509   0.54825   0.00000  Uiso   1.00
H751   H     0.63471   0.18721   0.49104   0.00000  Uiso   1.00
H752   H     0.62512   0.23292   0.52044   0.00000  Uiso   1.00
H753   H     0.59268   0.18378   0.57099   0.00000  Uiso   1.00
H754   H     0.59392   0.14203   0.53600   0.00000  Uiso   1.00
H755   H     0.70223   0.16883   0.43097   0.00000  Uiso   1.00
H756   H     0.68626   0.12771   0.39792   0.00000  Uiso   1.00
H757   H     0.64844   0.15066   0.43068   0.00000  Uiso   1.00
H758   H     0.69282   0.12272   0.48738   0.00000  Uiso   1.00
H759   H     0.72546   0.09699   0.45209   0.00000  Uiso   1.00
H760   H     0.62941   0.44308   0.34176   0.00000  Uiso   1.00
H761   H     0.65461   0.06328   0.42719   0.00000  Uiso   1.00
H762   H     0.63167   0.08031   0.47044   0.00000  Uiso   1.00
H763   H     0.96179   0.46648   0.56148   0.00000  Uiso   1.00
H764   H     0.91949   0.46814   0.59647   0.00000  Uiso   1.00
H765   H     0.93158   0.41957   0.57159   0.00000  Uiso   1.00
H766   H     0.91249   0.45491   0.50807   0.00000  Uiso   1.00
H767   H     0.89784   0.00097   0.53381   0.00000  Uiso   1.00
H768   H     0.84812   0.44532   0.57420   0.00000  Uiso   1.00
H769   H     0.85545   0.41336   0.53399   0.00000  Uiso   1.00
H770   H     0.54249   0.45461   0.96353   0.00000  Uiso   1.00
H771   H     0.62811   0.39384   0.36790   0.00000  Uiso   1.00
H772   H     0.57366   0.44371   0.92085   0.00000  Uiso   1.00
H773   H     0.56798   0.40425   0.95862   0.00000  Uiso   1.00
H774   H     0.60561   0.45108   0.00517   0.00000  Uiso   1.00
H775   H     0.61175   0.49055   0.96813   0.00000  Uiso   1.00
H776   H     0.65170   0.44197   0.92718   0.00000  Uiso   1.00
H777   H     0.64833   0.40027   0.96175   0.00000  Uiso   1.00
H778   H     0.81545   0.15885   0.09752   0.00000  Uiso   1.00
H779   H     0.79834   0.18553   0.05372   0.00000  Uiso   1.00
H780   H     0.76171   0.17635   0.09282   0.00000  Uiso   1.00
H781   H     0.75091   0.12613   0.03741   0.00000  Uiso   1.00
H782   H     0.69628   0.42974   0.37799   0.00000  Uiso   1.00
H783   H     0.76395   0.10043   0.08259   0.00000  Uiso   1.00
H784   H     0.83961   0.09495   0.06027   0.00000  Uiso   1.00
H785   H     0.82586   0.12223   0.01695   0.00000  Uiso   1.00
H786   H     0.62929   0.12066   0.92447   0.00000  Uiso   1.00
H787   H     0.65790   0.12490   0.96991   0.00000  Uiso   1.00
H788   H     0.61603   0.08687   0.96492   0.00000  Uiso   1.00
H789   H     0.59178   0.14803   0.00324   0.00000  Uiso   1.00
H790   H     0.56341   0.14405   0.95838   0.00000  Uiso   1.00
H791   H     0.60596   0.19747   0.92754   0.00000  Uiso   1.00
H792   H     0.64114   0.20213   0.96707   0.00000  Uiso   1.00
H793   H     0.66771   0.42562   0.42276   0.00000  Uiso   1.00
H794   H     0.94204   0.08653   0.07834   0.00000  Uiso   1.00
H795   H     0.90779   0.07311   0.03818   0.00000  Uiso   1.00
H796   H     0.96240   0.05848   0.03683   0.00000  Uiso   1.00
H797   H     0.94937   0.12030   0.99431   0.00000  Uiso   1.00
H798   H     0.98424   0.13290   0.03370   0.00000  Uiso   1.00
H799   H     0.92371   0.16167   0.07149   0.00000  Uiso   1.00
H800   H     0.88886   0.15340   0.03230   0.00000  Uiso   1.00
H801   H     0.91090   0.06206   0.90497   0.00000  Uiso   1.00
H802   H     0.93271   0.05173   0.95273   0.00000  Uiso   1.00
H803   H     0.92835   0.00980   0.91763   0.00000  Uiso   1.00
H804   H     0.86626   0.25671   0.34563   0.00000  Uiso   1.00
H805   H     0.64282   0.49723   0.41806   0.00000  Uiso   1.00
H806   H     0.87209   0.00421   0.96783   0.00000  Uiso   1.00
H807   H     0.85079   0.01335   0.91997   0.00000  Uiso   1.00
H808   H     0.84356   0.09034   0.93571   0.00000  Uiso   1.00
H809   H     0.86772   0.08179   0.98097   0.00000  Uiso   1.00
H810   H     0.70760   0.33902   0.10850   0.00000  Uiso   1.00
H811   H     0.67080   0.38044   0.11964   0.00000  Uiso   1.00
H812   H     0.65768   0.34134   0.08355   0.00000  Uiso   1.00
H813   H     0.71945   0.36744   0.04273   0.00000  Uiso   1.00
H814   H     0.72836   0.40744   0.07864   0.00000  Uiso   1.00
H815   H     0.64775   0.42727   0.06541   0.00000  Uiso   1.00
H816   H     0.66673   0.00609   0.37150   0.00000  Uiso   1.00
H817   H     0.65216   0.39397   0.02510   0.00000  Uiso   1.00
H818   H     0.82026   0.19646   0.91705   0.00000  Uiso   1.00
H819   H     0.81128   0.15728   0.95452   0.00000  Uiso   1.00
H820   H     0.78582   0.20764   0.95752   0.00000  Uiso   1.00
H821   H     0.84623   0.20260   0.00327   0.00000  Uiso   1.00
H822   H     0.85339   0.24328   0.96839   0.00000  Uiso   1.00
H823   H     0.89781   0.18801   0.92766   0.00000  Uiso   1.00
H824   H     0.89278   0.15416   0.96669   0.00000  Uiso   1.00
H825   H     0.71882   0.27844   0.04863   0.00000  Uiso   1.00
H826   H     0.68600   0.25931   0.08773   0.00000  Uiso   1.00
H827   H     0.86408   0.07701   0.65196   0.00000  Uiso   1.00
H828   H     0.70842   0.22277   0.05304   0.00000  Uiso   1.00
H829   H     0.66625   0.25614   0.00009   0.00000  Uiso   1.00
H830   H     0.64382   0.29213   0.03346   0.00000  Uiso   1.00
H831   H     0.61725   0.22460   0.07290   0.00000  Uiso   1.00
H832   H     0.63392   0.19528   0.03354   0.00000  Uiso   1.00
H833   H     0.88997   0.08162   0.60511   0.00000  Uiso   1.00
H834   H     0.85703   0.12365   0.62270   0.00000  Uiso   1.00
H835   H     0.82013   0.08181   0.57195   0.00000  Uiso   1.00
H836   H     0.79405   0.07823   0.61813   0.00000  Uiso   1.00
H837   H     0.83180   0.00739   0.62956   0.00000  Uiso   1.00
H838   H     0.85582   0.01491   0.58351   0.00000  Uiso   1.00
H839   H     0.66135   0.23187   0.39048   0.00000  Uiso   1.00
H840   H     0.84142   0.21487   0.37284   0.00000  Uiso   1.00
H841   H     0.63375   0.24340   0.34559   0.00000  Uiso   1.00
H842   H     0.65853   0.28526   0.37270   0.00000  Uiso   1.00
H843   H     0.58151   0.28640   0.38302   0.00000  Uiso   1.00
H844   H     0.60854   0.27479   0.42732   0.00000  Uiso   1.00
H845   H     0.59545   0.20144   0.42271   0.00000  Uiso   1.00
H846   H     0.57346   0.20237   0.37579   0.00000  Uiso   1.00
H847   H     0.50411   0.41137   0.61710   0.00000  Uiso   1.00
H848   H     0.99747   0.38308   0.66251   0.00000  Uiso   1.00
H849   H     0.54921   0.39874   0.64675   0.00000  Uiso   1.00
H850   H     0.54001   0.32355   0.63463   0.00000  Uiso   1.00
H851   H     0.91843   0.21365   0.38314   0.00000  Uiso   1.00
H852   H     0.54317   0.35080   0.58899   0.00000  Uiso   1.00
H853   H     0.96678   0.35203   0.58328   0.00000  Uiso   1.00
H854   H     0.95899   0.32476   0.62822   0.00000  Uiso   1.00
H855   H     0.89985   0.06107   0.38662   0.00000  Uiso   1.00
H856   H     0.87058   0.05677   0.34153   0.00000  Uiso   1.00
H857   H     0.87195   0.10599   0.36758   0.00000  Uiso   1.00
H858   H     0.80375   0.07015   0.37786   0.00000  Uiso   1.00
H859   H     0.83237   0.07422   0.42257   0.00000  Uiso   1.00
H860   H     0.85717   0.00260   0.41797   0.00000  Uiso   1.00
H861   H     0.83326   0.49377   0.37145   0.00000  Uiso   1.00
H862   H     0.89138   0.22528   0.42743   0.00000  Uiso   1.00
H863   H     0.63595   0.42285   0.65210   0.00000  Uiso   1.00
H864   H     0.61008   0.41835   0.60526   0.00000  Uiso   1.00
H865   H     0.64305   0.37630   0.62283   0.00000  Uiso   1.00
H866   H     0.67991   0.41832   0.57205   0.00000  Uiso   1.00
H867   H     0.70600   0.42177   0.61819   0.00000  Uiso   1.00
H868   H     0.66825   0.49255   0.62971   0.00000  Uiso   1.00
H869   H     0.64416   0.48517   0.58373   0.00000  Uiso   1.00
H870   H     0.74112   0.16138   0.89335   0.00000  Uiso   1.00
H871   H     0.75476   0.14302   0.84507   0.00000  Uiso   1.00
H872   H     0.70035   0.15122   0.85812   0.00000  Uiso   1.00
H873   H     0.90454   0.29862   0.42266   0.00000  Uiso   1.00
H874   H     0.71599   0.07590   0.85847   0.00000  Uiso   1.00
H875   H     0.70464   0.09343   0.90706   0.00000  Uiso   1.00
H876   H     0.78175   0.10240   0.91807   0.00000  Uiso   1.00
H877   H     0.79355   0.07633   0.87296   0.00000  Uiso   1.00
H878   H     0.69205   0.07267   0.05070   0.00000  Uiso   1.00
H879   H     0.63571   0.06557   0.04702   0.00000  Uiso   1.00
H880   H     0.65706   0.10904   0.07437   0.00000  Uiso   1.00
H881   H     0.63161   0.05273   0.11871   0.00000  Uiso   1.00
H882   H     0.68719   0.06047   0.12312   0.00000  Uiso   1.00
H883   H     0.64386   0.49401   0.07219   0.00000  Uiso   1.00
H884   H     0.92656   0.29768   0.37573   0.00000  Uiso   1.00
H885   H     0.66001   0.48164   0.12001   0.00000  Uiso   1.00
H886   H     0.88954   0.31528   0.84508   0.00000  Uiso   1.00
H887   H     0.85740   0.31703   0.88860   0.00000  Uiso   1.00
H888   H     0.88930   0.36181   0.87506   0.00000  Uiso   1.00
H889   H     0.92310   0.32286   0.92915   0.00000  Uiso   1.00
H890   H     0.95430   0.32080   0.88585   0.00000  Uiso   1.00
H891   H     0.91812   0.24731   0.87230   0.00000  Uiso   1.00
H892   H     0.89448   0.25455   0.91849   0.00000  Uiso   1.00
H893   H     0.58511   0.34949   0.04177   0.00000  Uiso   1.00
H894   H     0.53065   0.33359   0.03634   0.00000  Uiso   1.00
H895   H     0.99581   0.08863   0.61728   0.00000  Uiso   1.00
H896   H     0.54339   0.38479   0.05549   0.00000  Uiso   1.00
H897   H     0.52113   0.33559   0.10845   0.00000  Uiso   1.00
H898   H     0.57418   0.35378   0.11443   0.00000  Uiso   1.00
H899   H     0.57677   0.27927   0.12844   0.00000  Uiso   1.00
H900   H     0.60062   0.28881   0.08339   0.00000  Uiso   1.00
H901   H     0.80447   0.43036   0.94171   0.00000  Uiso   1.00
H902   H     0.77902   0.38018   0.95069   0.00000  Uiso   1.00
H903   H     0.82613   0.38296   0.92150   0.00000  Uiso   1.00
H904   H     0.76516   0.37358   0.87847   0.00000  Uiso   1.00
H905   H     0.78760   0.42454   0.87091   0.00000  Uiso   1.00
H906   H     0.50241   0.11681   0.66269   0.00000  Uiso   1.00
H907   H     0.71050   0.40137   0.92030   0.00000  Uiso   1.00
H908   H     0.70761   0.42562   0.87365   0.00000  Uiso   1.00
H909   H     0.91082   0.48835   0.10523   0.00000  Uiso   1.00
H910   H     0.88346   0.48517   0.15143   0.00000  Uiso   1.00
H911   H     0.89725   0.43774   0.12566   0.00000  Uiso   1.00
H912   H     0.82141   0.45272   0.11781   0.00000  Uiso   1.00
H913   H     0.84819   0.45596   0.07221   0.00000  Uiso   1.00
H914   H     0.85183   0.03030   0.07323   0.00000  Uiso   1.00
H915   H     0.83207   0.03671   0.12105   0.00000  Uiso   1.00
H916   H     0.63971   0.33324   0.89568   0.00000  Uiso   1.00
O917   O     0.75000  -0.00000   0.25000   0.00000  Uiso   1.00
O918   O     0.75000   0.46539   0.66251   0.00000  Uiso   1.00
O919   O     0.96539   0.25000   0.33749   0.00000  Uiso   1.00
O920   O     0.53462   0.25000   0.66251   0.00000  Uiso   1.00
O921   O     0.50000   0.21539   0.83749   0.00000  Uiso   1.00
O922   O     0.50000   0.28462   0.16251   0.00000  Uiso   1.00
O923   O     0.78462  -0.00000   0.83749   0.00000  Uiso   1.00
O924   O     0.71539  -0.00000   0.16251   0.00000  Uiso   1.00
O925   O     0.50000   0.28462   0.83749   0.00000  Uiso   1.00
O926   O     0.50000   0.21539   0.16251   0.00000  Uiso   1.00
O927   O     0.71539  -0.00000   0.83749   0.00000  Uiso   1.00
O928   O     0.75000  -0.00000   0.75000   0.00000  Uiso   1.00
O929   O     0.78462  -0.00000   0.16251   0.00000  Uiso   1.00
O930   O     0.70127   0.08332   0.27298   0.00000  Uiso   1.00
O931   O     0.79874   0.41668   0.72702   0.00000  Uiso   1.00
O932   O     0.91668   0.20126   0.27298   0.00000  Uiso   1.00
O933   O     0.58332   0.29874   0.72702   0.00000  Uiso   1.00
O934   O     0.79874   0.41668   0.27298   0.00000  Uiso   1.00
O935   O     0.70127   0.08332   0.72702   0.00000  Uiso   1.00
O936   O     0.58332   0.29874   0.27298   0.00000  Uiso   1.00
O937   O     0.91668   0.20126   0.72702   0.00000  Uiso   1.00
O938   O     0.70127   0.41668   0.72702   0.00000  Uiso   1.00
O939   O     0.50000   0.25000   0.25000   0.00000  Uiso   1.00
O940   O     0.79874   0.08332   0.27298   0.00000  Uiso   1.00
O941   O     0.91668   0.29873   0.72702   0.00000  Uiso   1.00
O942   O     0.58332   0.20127   0.27298   0.00000  Uiso   1.00
O943   O     0.79874   0.08332   0.72702   0.00000  Uiso   1.00
O944   O     0.70127   0.41668   0.27298   0.00000  Uiso   1.00
O945   O     0.58332   0.20127   0.72702   0.00000  Uiso   1.00
O946   O     0.91668   0.29873   0.27298   0.00000  Uiso   1.00
O947   O     0.95127   0.33332   0.77298   0.00000  Uiso   1.00
O948   O     0.54874   0.16668   0.22702   0.00000  Uiso   1.00
O949   O     0.66668   0.45127   0.77298   0.00000  Uiso   1.00
O950   O     0.50000   0.25000   0.75000   0.00000  Uiso   1.00
O951   O     0.83332   0.04873   0.22702   0.00000  Uiso   1.00
O952   O     0.54874   0.16668   0.77298   0.00000  Uiso   1.00
O953   O     0.95127   0.33332   0.22702   0.00000  Uiso   1.00
O954   O     0.83332   0.04873   0.77298   0.00000  Uiso   1.00
O955   O     0.66668   0.45127   0.22702   0.00000  Uiso   1.00
O956   O     0.95127   0.16668   0.22702   0.00000  Uiso   1.00
O957   O     0.54874   0.33332   0.77298   0.00000  Uiso   1.00
O958   O     0.66668   0.04873   0.22702   0.00000  Uiso   1.00
O959   O     0.83332   0.45126   0.77298   0.00000  Uiso   1.00
O960   O     0.54874   0.33332   0.22702   0.00000  Uiso   1.00
O961   O     0.75000   0.46539   0.33749   0.00000  Uiso   1.00
O962   O     0.95127   0.16668   0.77298   0.00000  Uiso   1.00
O963   O     0.83332   0.45126   0.22702   0.00000  Uiso   1.00
O964   O     0.66668   0.04873   0.77298   0.00000  Uiso   1.00
O965   O     0.75000   0.03461   0.66251   0.00000  Uiso   1.00
O966   O     0.53462   0.25000   0.33749   0.00000  Uiso   1.00
O967   O     0.96539   0.25000   0.66251   0.00000  Uiso   1.00
O968   O     0.75000   0.03461   0.33749   0.00000  Uiso   1.00
Zn969  Zn    0.70053  -0.00000   0.21730   0.00000  Uiso   1.00
Zn970  Zn    0.54948   0.25000   0.28270   0.00000  Uiso   1.00
Zn971  Zn    0.75000   0.45053   0.71730   0.00000  Uiso   1.00
Zn972  Zn    0.75000   0.04947   0.28270   0.00000  Uiso   1.00
Zn973  Zn    0.54948   0.25000   0.71730   0.00000  Uiso   1.00
Zn974  Zn    0.95053   0.25000   0.28270   0.00000  Uiso   1.00
Zn975  Zn    0.75000   0.04947   0.71730   0.00000  Uiso   1.00
Zn976  Zn    0.75000   0.45053   0.28270   0.00000  Uiso   1.00
Zn977  Zn    0.79948  -0.00000   0.78270   0.00000  Uiso   1.00
Zn978  Zn    0.50000   0.20053   0.21730   0.00000  Uiso   1.00
Zn979  Zn    0.50000   0.29948   0.78270   0.00000  Uiso   1.00
Zn980  Zn    0.79948  -0.00000   0.21730   0.00000  Uiso   1.00
Zn981  Zn    0.70053  -0.00000   0.78270   0.00000  Uiso   1.00
Zn982  Zn    0.50000   0.29947   0.21730   0.00000  Uiso   1.00
Zn983  Zn    0.50000   0.20053   0.78270   0.00000  Uiso   1.00
Zn984  Zn    0.95053   0.25000   0.71730   0.00000  Uiso   1.00
C985   C     0.25000   0.99998   0.35597   0.00000  Uiso   1.00
C986   C     0.33003   0.91996   0.75002   0.00000  Uiso   1.00
C987   C     0.43602   0.70223   0.02099   0.00000  Uiso   1.00
C988   C     0.30438   0.55541   0.97826   0.00000  Uiso   1.00
C989   C     0.19121   0.95116   0.02089   0.00000  Uiso   1.00
C990   C     0.43106   0.70910   0.98023   0.00000  Uiso   1.00
C991   C     0.08070   0.73586   0.01980   0.00000  Uiso   1.00
C992   C     0.42420   0.77931   0.40312   0.00000  Uiso   1.00
C993   C     0.39948   0.73797   0.39819   0.00000  Uiso   1.00
C994   C     0.35892   0.74503   0.37536   0.00000  Uiso   1.00
C995   C     0.01973   0.67218   0.60285   0.00000  Uiso   1.00
C996   C     0.47674   0.65440   0.61532   0.00000  Uiso   1.00
C997   C     0.41997   0.66998   0.25002   0.00000  Uiso   1.00
C998   C     0.48185   0.61265   0.63683   0.00000  Uiso   1.00
C999   C     0.17036   0.98926   0.39966   0.00000  Uiso   1.00
C1000  C     0.16828   0.94136   0.39385   0.00000  Uiso   1.00
C1001  C     0.12898   0.92860   0.37119   0.00000  Uiso   1.00
C1002  C     0.32697   0.52089   0.60007   0.00000  Uiso   1.00
C1003  C     0.32277   0.56900   0.60198   0.00000  Uiso   1.00
C1004  C     0.36090   0.58895   0.62172   0.00000  Uiso   1.00
C1005  C     0.07578   0.72073   0.40313   0.00000  Uiso   1.00
C1006  C     0.10048   0.76209   0.39811   0.00000  Uiso   1.00
C1007  C     0.14105   0.75508   0.37529   0.00000  Uiso   1.00
C1008  C     0.08002   0.83003   0.74998   0.00000  Uiso   1.00
C1009  C     0.48028   0.82782   0.60271   0.00000  Uiso   1.00
C1010  C     0.02324   0.84562   0.61517   0.00000  Uiso   1.00
C1011  C     0.01806   0.88731   0.63666   0.00000  Uiso   1.00
C1012  C     0.32963   0.51059   0.39958   0.00000  Uiso   1.00
C1013  C     0.33175   0.55849   0.39369   0.00000  Uiso   1.00
C1014  C     0.37105   0.57123   0.37093   0.00000  Uiso   1.00
C1015  C     0.17304   0.97914   0.60020   0.00000  Uiso   1.00
C1016  C     0.17727   0.93104   0.60208   0.00000  Uiso   1.00
C1017  C     0.13915   0.91100   0.62185   0.00000  Uiso   1.00
C1018  C     0.27069   0.57834   0.89735   0.00000  Uiso   1.00
C1019  C     0.33004   0.91995   0.24999   0.00000  Uiso   1.00
C1020  C     0.22798   0.59499   0.88299   0.00000  Uiso   1.00
C1021  C     0.23142   0.64051   0.86904   0.00000  Uiso   1.00
C1022  C     0.16802   0.50141   0.09445   0.00000  Uiso   1.00
C1023  C     0.16218   0.54857   0.10347   0.00000  Uiso   1.00
C1024  C     0.16176   0.57549   0.06653   0.00000  Uiso   1.00
C1025  C     0.42287   0.76131   0.90159   0.00000  Uiso   1.00
C1026  C     0.42457   0.80964   0.89923   0.00000  Uiso   1.00
C1027  C     0.38784   0.82690   0.87551   0.00000  Uiso   1.00
C1028  C     0.06999   0.78815   0.09783   0.00000  Uiso   1.00
C1029  C     0.05341   0.83360   0.09626   0.00000  Uiso   1.00
C1030  C     0.16997   0.58006   0.75002   0.00000  Uiso   1.00
C1031  C     0.05319   0.85128   0.05484   0.00000  Uiso   1.00
C1032  C     0.22646   0.92412   0.90081   0.00000  Uiso   1.00
C1033  C     0.26991   0.90496   0.89207   0.00000  Uiso   1.00
C1034  C     0.29638   0.89932   0.92886   0.00000  Uiso   1.00
C1035  C     0.32930   0.51703   0.09453   0.00000  Uiso   1.00
C1036  C     0.34449   0.97159   0.10094   0.00000  Uiso   1.00
C1037  C     0.38666   0.97080   0.12214   0.00000  Uiso   1.00
C1038  C     0.07789   0.77082   0.89955   0.00000  Uiso   1.00
C1039  C     0.07276   0.81889   0.89998   0.00000  Uiso   1.00
C1040  C     0.10992   0.84087   0.88033   0.00000  Uiso   1.00
C1041  C     0.08002   0.83003   0.25000   0.00000  Uiso   1.00
C1042  C     0.42161   0.73811   0.10114   0.00000  Uiso   1.00
C1043  C     0.40881   0.78423   0.10722   0.00000  Uiso   1.00
C1044  C     0.36683   0.78740   0.12861   0.00000  Uiso   1.00
C1045  C     0.05330   0.64621   0.46155   0.00000  Uiso   1.00
C1046  C     0.02345   0.61251   0.47803   0.00000  Uiso   1.00
C1047  C     0.02356   0.57281   0.45301   0.00000  Uiso   1.00
C1048  C     0.40845   0.82336   0.53943   0.00000  Uiso   1.00
C1049  C     0.36989   0.80158   0.52138   0.00000  Uiso   1.00
C1050  C     0.32998   0.81037   0.54474   0.00000  Uiso   1.00
C1051  C     0.33793   0.92930   0.45798   0.00000  Uiso   1.00
C1052  C     0.42001   0.66994   0.74996   0.00000  Uiso   1.00
C1053  C     0.30692   0.89203   0.45834   0.00000  Uiso   1.00
C1054  C     0.31815   0.85916   0.42774   0.00000  Uiso   1.00
C1055  C     0.14455   0.55308   0.54258   0.00000  Uiso   1.00
C1056  C     0.10055   0.53374   0.53597   0.00000  Uiso   1.00
C1057  C     0.07006   0.54557   0.56848   0.00000  Uiso   1.00
C1058  C     0.44665   0.85379   0.46139   0.00000  Uiso   1.00
C1059  C     0.47643   0.88752   0.47781   0.00000  Uiso   1.00
C1060  C     0.47620   0.92727   0.45277   0.00000  Uiso   1.00
C1061  C     0.09154   0.67660   0.53947   0.00000  Uiso   1.00
C1062  C     0.13013   0.69830   0.52130   0.00000  Uiso   1.00
C1063  C     0.16996   0.92000   0.74999   0.00000  Uiso   1.00
C1064  C     0.17004   0.68945   0.54461   0.00000  Uiso   1.00
C1065  C     0.16198   0.57056   0.45783   0.00000  Uiso   1.00
C1066  C     0.19289   0.60792   0.45819   0.00000  Uiso   1.00
C1067  C     0.18162   0.64081   0.42755   0.00000  Uiso   1.00
C1068  C     0.35535   0.94688   0.54267   0.00000  Uiso   1.00
C1069  C     0.39939   0.96612   0.53594   0.00000  Uiso   1.00
C1070  C     0.42988   0.95426   0.56843   0.00000  Uiso   1.00
C1071  C     0.15038   0.93501   0.95878   0.00000  Uiso   1.00
C1072  C     0.10984   0.95608   0.97347   0.00000  Uiso   1.00
C1073  C     0.07116   0.93849   0.95272   0.00000  Uiso   1.00
C1074  C     0.33005   0.57999   0.25002   0.00000  Uiso   1.00
C1075  C     0.31405   0.59955   0.03893   0.00000  Uiso   1.00
C1076  C     0.27643   0.62081   0.05898   0.00000  Uiso   1.00
C1077  C     0.28894   0.66299   0.07682   0.00000  Uiso   1.00
C1078  C     0.10774   0.69631   0.95971   0.00000  Uiso   1.00
C1079  C     0.09473   0.65129   0.97120   0.00000  Uiso   1.00
C1080  C     0.12655   0.61901   0.95665   0.00000  Uiso   1.00
C1081  C     0.42196   0.66065   0.03932   0.00000  Uiso   1.00
C1082  C     0.45113   0.62474   0.02629   0.00000  Uiso   1.00
C1083  C     0.44000   0.58323   0.04623   0.00000  Uiso   1.00
C1084  C     0.34646   0.56704   0.95935   0.00000  Uiso   1.00
C1085  C     0.41995   0.83002   0.75001   0.00000  Uiso   1.00
C1086  C     0.36911   0.52777   0.94404   0.00000  Uiso   1.00
C1087  C     0.41300   0.53866   0.92892   0.00000  Uiso   1.00
C1088  C     0.17064   0.91528   0.04397   0.00000  Uiso   1.00
C1089  C     0.20373   0.88788   0.06455   0.00000  Uiso   1.00
C1090  C     0.18360   0.86043   0.09596   0.00000  Uiso   1.00
C1091  C     0.39402   0.68813   0.95967   0.00000  Uiso   1.00
C1092  C     0.35216   0.70859   0.97198   0.00000  Uiso   1.00
C1093  C     0.31517   0.69134   0.94868   0.00000  Uiso   1.00
C1094  C     0.12194   0.72694   0.04103   0.00000  Uiso   1.00
C1095  C     0.15612   0.75965   0.03076   0.00000  Uiso   1.00
C1096  C     0.25000   0.50002   0.64400   0.00000  Uiso   1.00
C1097  C     0.08004   0.66997   0.25001   0.00000  Uiso   1.00
C1098  C     0.19470   0.75464   0.05674   0.00000  Uiso   1.00
C1099  C     0.33004   0.58001   0.74997   0.00000  Uiso   1.00
C1100  C     0.16996   0.91999   0.25003   0.00000  Uiso   1.00
C1101  C     0.08004   0.66995   0.74999   0.00000  Uiso   1.00
C1102  C     0.41994   0.83003   0.24997   0.00000  Uiso   1.00
C1103  C     0.13832   0.88835   0.25005   0.00000  Uiso   1.00
C1104  C     0.36170   0.61163   0.74992   0.00000  Uiso   1.00
C1105  C     0.11168   0.63833   0.25001   0.00000  Uiso   1.00
C1106  C     0.38831   0.86165   0.75003   0.00000  Uiso   1.00
C1107  C     0.36170   0.61163   0.25004   0.00000  Uiso   1.00
C1108  C     0.49999   0.75000   0.35628   0.00000  Uiso   1.00
C1109  C     0.13830   0.88837   0.74998   0.00000  Uiso   1.00
C1110  C     0.38830   0.86165   0.24996   0.00000  Uiso   1.00
C1111  C     0.11168   0.63832   0.75001   0.00000  Uiso   1.00
C1112  C     0.13834   0.61169   0.75001   0.00000  Uiso   1.00
C1113  C     0.36166   0.88830   0.24997   0.00000  Uiso   1.00
C1114  C     0.11165   0.86168   0.74996   0.00000  Uiso   1.00
C1115  C     0.38835   0.63832   0.25006   0.00000  Uiso   1.00
C1116  C     0.36166   0.88831   0.75005   0.00000  Uiso   1.00
C1117  C     0.13832   0.61167   0.25000   0.00000  Uiso   1.00
C1118  C     0.38839   0.63828   0.74993   0.00000  Uiso   1.00
C1119  C     0.00001   0.75000   0.64433   0.00000  Uiso   1.00
C1120  C     0.11164   0.86169   0.25003   0.00000  Uiso   1.00
C1121  C     0.46776   0.77108   0.42035   0.00000  Uiso   1.00
C1122  C     0.01574   0.71476   0.58226   0.00000  Uiso   1.00
C1123  C     0.21160   0.50206   0.41904   0.00000  Uiso   1.00
C1124  C     0.28845   0.50133   0.58087   0.00000  Uiso   1.00
C1125  C     0.03221   0.72892   0.42037   0.00000  Uiso   1.00
C1126  C     0.48430   0.78525   0.58220   0.00000  Uiso   1.00
C1127  C     0.28838   0.99781   0.41902   0.00000  Uiso   1.00
C1128  C     0.21153   0.99878   0.58091   0.00000  Uiso   1.00
C1129  C     0.26648   0.53578   0.91763   0.00000  Uiso   1.00
C1130  C     0.00019   0.74997   0.85620   0.00000  Uiso   1.00
C1131  C     0.21224   0.99149   0.07963   0.00000  Uiso   1.00
C1132  C     0.46278   0.74350   0.92000   0.00000  Uiso   1.00
C1133  C     0.03887   0.75700   0.07998   0.00000  Uiso   1.00
C1134  C     0.22983   0.96793   0.91892   0.00000  Uiso   1.00
C1135  C     0.28446   0.51778   0.07884   0.00000  Uiso   1.00
C1136  C     0.04006   0.74959   0.91887   0.00000  Uiso   1.00
C1137  C     0.46445   0.73504   0.08099   0.00000  Uiso   1.00
C1138  C     0.49998   0.75000   0.39928   0.00000  Uiso   1.00
C1139  C     0.00003   0.75001   0.60233   0.00000  Uiso   1.00
C1140  C     0.25000   0.99993   0.39849   0.00000  Uiso   1.00
C1141  C     0.00057   0.74999   0.14377   0.00000  Uiso   1.00
C1142  C     0.24999   0.50007   0.60137   0.00000  Uiso   1.00
C1143  C     0.24925   0.50092   0.89799   0.00000  Uiso   1.00
C1144  C     0.24920   0.50293   0.10055   0.00000  Uiso   1.00
C1145  C     0.00096   0.74909   0.89922   0.00000  Uiso   1.00
C1146  C     0.00092   0.74901   0.10070   0.00000  Uiso   1.00
C1147  C     0.02540   0.72138   0.46032   0.00000  Uiso   1.00
C1148  C     0.47681   0.78089   0.54197   0.00000  Uiso   1.00
C1149  C     0.28675   0.98921   0.45932   0.00000  Uiso   1.00
C1150  C     0.21222   0.50874   0.54069   0.00000  Uiso   1.00
C1151  C     0.47457   0.77862   0.46028   0.00000  Uiso   1.00
C1152  C     0.24990   0.99975   0.85580   0.00000  Uiso   1.00
C1153  C     0.02321   0.71912   0.54201   0.00000  Uiso   1.00
C1154  C     0.21322   0.51070   0.45931   0.00000  Uiso   1.00
C1155  C     0.28775   0.99129   0.54069   0.00000  Uiso   1.00
C1156  C     0.22090   0.97463   0.95874   0.00000  Uiso   1.00
C1157  C     0.27780   0.52760   0.03928   0.00000  Uiso   1.00
C1158  C     0.04117   0.73903   0.95886   0.00000  Uiso   1.00
C1159  C     0.46725   0.72525   0.04096   0.00000  Uiso   1.00
C1160  C     0.27345   0.53168   0.95791   0.00000  Uiso   1.00
C1161  C     0.21708   0.98102   0.04011   0.00000  Uiso   1.00
C1162  C     0.46438   0.73017   0.95966   0.00000  Uiso   1.00
C1163  C     0.24991   0.50072   0.14365   0.00000  Uiso   1.00
C1164  C     0.04211   0.74392   0.04030   0.00000  Uiso   1.00
C1165  C     0.49999   0.75000   0.48079   0.00000  Uiso   1.00
C1166  C     0.00001   0.75000   0.52158   0.00000  Uiso   1.00
C1167  C     0.24998   0.99997   0.47973   0.00000  Uiso   1.00
C1168  C     0.24998   0.50001   0.52037   0.00000  Uiso   1.00
C1169  C     0.24703   0.50357   0.97865   0.00000  Uiso   1.00
C1170  C     0.24740   0.50388   0.01917   0.00000  Uiso   1.00
C1171  C     0.00332   0.73426   0.97945   0.00000  Uiso   1.00
C1172  C     0.00429   0.73434   0.02041   0.00000  Uiso   1.00
C1173  C     0.04555   0.68860   0.48079   0.00000  Uiso   1.00
C1174  C     0.16996   0.58003   0.25000   0.00000  Uiso   1.00
C1175  C     0.44910   0.80743   0.52113   0.00000  Uiso   1.00
C1176  C     0.31869   0.96696   0.47915   0.00000  Uiso   1.00
C1177  C     0.17869   0.52934   0.52043   0.00000  Uiso   1.00
C1178  C     0.45443   0.81140   0.48071   0.00000  Uiso   1.00
C1179  C     0.05090   0.69257   0.52119   0.00000  Uiso   1.00
C1180  C     0.18126   0.53295   0.47910   0.00000  Uiso   1.00
C1181  C     0.32125   0.97062   0.52047   0.00000  Uiso   1.00
C1182  C     0.18944   0.95186   0.97964   0.00000  Uiso   1.00
C1183  C     0.30124   0.55848   0.01904   0.00000  Uiso   1.00
C1184  C     0.07866   0.72862   0.97880   0.00000  Uiso   1.00
H1185  H     0.33864   0.76825   0.39051   0.00000  Uiso   1.00
H1186  H     0.45067   0.60123   0.64691   0.00000  Uiso   1.00
H1187  H     0.11236   0.83095   0.84943   0.00000  Uiso   1.00
H1188  H     0.10528   0.87548   0.88129   0.00000  Uiso   1.00
H1189  H     0.04339   0.82830   0.88490   0.00000  Uiso   1.00
H1190  H     0.07067   0.82988   0.93062   0.00000  Uiso   1.00
H1191  H     0.10771   0.76423   0.91500   0.00000  Uiso   1.00
H1192  H     0.08188   0.75917   0.86932   0.00000  Uiso   1.00
H1193  H     0.34156   0.77153   0.11172   0.00000  Uiso   1.00
H1194  H     0.36923   0.77261   0.15782   0.00000  Uiso   1.00
H1195  H     0.35830   0.82102   0.13234   0.00000  Uiso   1.00
H1196  H     0.43292   0.80143   0.12428   0.00000  Uiso   1.00
H1197  H     0.45998   0.67645   0.63478   0.00000  Uiso   1.00
H1198  H     0.40589   0.80000   0.07845   0.00000  Uiso   1.00
H1199  H     0.39607   0.72374   0.08364   0.00000  Uiso   1.00
H1200  H     0.42236   0.72101   0.12934   0.00000  Uiso   1.00
H1201  H     0.00514   0.54765   0.46771   0.00000  Uiso   1.00
H1202  H     0.00893   0.57941   0.42431   0.00000  Uiso   1.00
H1203  H     0.05616   0.56148   0.44822   0.00000  Uiso   1.00
H1204  H     0.03298   0.60427   0.50814   0.00000  Uiso   1.00
H1205  H     0.49076   0.62492   0.47906   0.00000  Uiso   1.00
H1206  H     0.04751   0.64783   0.42976   0.00000  Uiso   1.00
H1207  H     0.08633   0.63643   0.46587   0.00000  Uiso   1.00
H1208  H     0.45682   0.64929   0.58915   0.00000  Uiso   1.00
H1209  H     0.30233   0.79692   0.52936   0.00000  Uiso   1.00
H1210  H     0.33218   0.79560   0.57397   0.00000  Uiso   1.00
H1211  H     0.32523   0.84472   0.54831   0.00000  Uiso   1.00
H1212  H     0.36526   0.81264   0.49110   0.00000  Uiso   1.00
H1213  H     0.37495   0.76697   0.52061   0.00000  Uiso   1.00
H1214  H     0.40734   0.81621   0.57098   0.00000  Uiso   1.00
H1215  H     0.40601   0.85792   0.53586   0.00000  Uiso   1.00
H1216  H     0.29745   0.83119   0.43116   0.00000  Uiso   1.00
H1217  H     0.31362   0.87233   0.39809   0.00000  Uiso   1.00
H1218  H     0.35130   0.84920   0.43090   0.00000  Uiso   1.00
H1219  H     0.03325   0.64797   0.58347   0.00000  Uiso   1.00
H1220  H     0.30689   0.87718   0.48754   0.00000  Uiso   1.00
H1221  H     0.27439   0.90305   0.45221   0.00000  Uiso   1.00
H1222  H     0.34544   0.93659   0.42735   0.00000  Uiso   1.00
H1223  H     0.36816   0.91945   0.47067   0.00000  Uiso   1.00
H1224  H     0.03817   0.53328   0.56162   0.00000  Uiso   1.00
H1225  H     0.08050   0.53174   0.59654   0.00000  Uiso   1.00
H1226  H     0.06828   0.58025   0.57154   0.00000  Uiso   1.00
H1227  H     0.08741   0.54490   0.50809   0.00000  Uiso   1.00
H1228  H     0.10217   0.99890   0.53395   0.00000  Uiso   1.00
H1229  H     0.15180   0.55472   0.57409   0.00000  Uiso   1.00
H1230  H     0.04097   0.67522   0.62836   0.00000  Uiso   1.00
H1231  H     0.14439   0.58657   0.53375   0.00000  Uiso   1.00
H1232  H     0.49459   0.95244   0.46742   0.00000  Uiso   1.00
H1233  H     0.49081   0.92075   0.42404   0.00000  Uiso   1.00
H1234  H     0.44357   0.93855   0.44804   0.00000  Uiso   1.00
H1235  H     0.46688   0.89569   0.50793   0.00000  Uiso   1.00
H1236  H     0.00914   0.87519   0.47881   0.00000  Uiso   1.00
H1237  H     0.45249   0.85218   0.42961   0.00000  Uiso   1.00
H1238  H     0.41359   0.86350   0.46568   0.00000  Uiso   1.00
H1239  H     0.19770   0.70285   0.52915   0.00000  Uiso   1.00
H1240  H     0.16789   0.70422   0.57381   0.00000  Uiso   1.00
H1241  H     0.10018   0.93873   0.38691   0.00000  Uiso   1.00
H1242  H     0.17474   0.65509   0.54825   0.00000  Uiso   1.00
H1243  H     0.13471   0.68721   0.49104   0.00000  Uiso   1.00
H1244  H     0.12512   0.73292   0.52044   0.00000  Uiso   1.00
H1245  H     0.09268   0.68378   0.57099   0.00000  Uiso   1.00
H1246  H     0.09392   0.64203   0.53600   0.00000  Uiso   1.00
H1247  H     0.20223   0.66883   0.43097   0.00000  Uiso   1.00
H1248  H     0.18626   0.62771   0.39792   0.00000  Uiso   1.00
H1249  H     0.14844   0.65066   0.43068   0.00000  Uiso   1.00
H1250  H     0.19282   0.62272   0.48738   0.00000  Uiso   1.00
H1251  H     0.22546   0.59699   0.45209   0.00000  Uiso   1.00
H1252  H     0.12941   0.94308   0.34176   0.00000  Uiso   1.00
H1253  H     0.15461   0.56328   0.42719   0.00000  Uiso   1.00
H1254  H     0.13167   0.58031   0.47044   0.00000  Uiso   1.00
H1255  H     0.46179   0.96648   0.56148   0.00000  Uiso   1.00
H1256  H     0.41949   0.96814   0.59647   0.00000  Uiso   1.00
H1257  H     0.43158   0.91957   0.57159   0.00000  Uiso   1.00
H1258  H     0.41249   0.95491   0.50807   0.00000  Uiso   1.00
H1259  H     0.39784   0.50097   0.53381   0.00000  Uiso   1.00
H1260  H     0.34812   0.94532   0.57420   0.00000  Uiso   1.00
H1261  H     0.35545   0.91336   0.53399   0.00000  Uiso   1.00
H1262  H     0.04249   0.95461   0.96353   0.00000  Uiso   1.00
H1263  H     0.12811   0.89384   0.36790   0.00000  Uiso   1.00
H1264  H     0.07366   0.94371   0.92085   0.00000  Uiso   1.00
H1265  H     0.06798   0.90425   0.95862   0.00000  Uiso   1.00
H1266  H     0.10561   0.95108   0.00517   0.00000  Uiso   1.00
H1267  H     0.11175   0.99055   0.96813   0.00000  Uiso   1.00
H1268  H     0.15170   0.94197   0.92718   0.00000  Uiso   1.00
H1269  H     0.14833   0.90027   0.96175   0.00000  Uiso   1.00
H1270  H     0.31545   0.65885   0.09752   0.00000  Uiso   1.00
H1271  H     0.29834   0.68553   0.05372   0.00000  Uiso   1.00
H1272  H     0.26171   0.67635   0.09282   0.00000  Uiso   1.00
H1273  H     0.25091   0.62613   0.03741   0.00000  Uiso   1.00
H1274  H     0.19628   0.92974   0.37799   0.00000  Uiso   1.00
H1275  H     0.26395   0.60043   0.08259   0.00000  Uiso   1.00
H1276  H     0.33961   0.59495   0.06027   0.00000  Uiso   1.00
H1277  H     0.32586   0.62223   0.01695   0.00000  Uiso   1.00
H1278  H     0.12929   0.62066   0.92447   0.00000  Uiso   1.00
H1279  H     0.15790   0.62490   0.96991   0.00000  Uiso   1.00
H1280  H     0.11603   0.58687   0.96492   0.00000  Uiso   1.00
H1281  H     0.09178   0.64803   0.00324   0.00000  Uiso   1.00
H1282  H     0.06341   0.64405   0.95838   0.00000  Uiso   1.00
H1283  H     0.10596   0.69747   0.92754   0.00000  Uiso   1.00
H1284  H     0.14114   0.70213   0.96707   0.00000  Uiso   1.00
H1285  H     0.16771   0.92562   0.42276   0.00000  Uiso   1.00
H1286  H     0.44204   0.58653   0.07834   0.00000  Uiso   1.00
H1287  H     0.40779   0.57311   0.03818   0.00000  Uiso   1.00
H1288  H     0.46240   0.55848   0.03683   0.00000  Uiso   1.00
H1289  H     0.44937   0.62030   0.99431   0.00000  Uiso   1.00
H1290  H     0.48424   0.63290   0.03370   0.00000  Uiso   1.00
H1291  H     0.42371   0.66167   0.07149   0.00000  Uiso   1.00
H1292  H     0.38886   0.65340   0.03230   0.00000  Uiso   1.00
H1293  H     0.41090   0.56206   0.90497   0.00000  Uiso   1.00
H1294  H     0.43271   0.55173   0.95273   0.00000  Uiso   1.00
H1295  H     0.42835   0.50980   0.91763   0.00000  Uiso   1.00
H1296  H     0.36626   0.75671   0.34563   0.00000  Uiso   1.00
H1297  H     0.14282   0.99723   0.41806   0.00000  Uiso   1.00
H1298  H     0.37209   0.50421   0.96783   0.00000  Uiso   1.00
H1299  H     0.35079   0.51335   0.91997   0.00000  Uiso   1.00
H1300  H     0.34356   0.59034   0.93571   0.00000  Uiso   1.00
H1301  H     0.36772   0.58179   0.98097   0.00000  Uiso   1.00
H1302  H     0.20760   0.83902   0.10850   0.00000  Uiso   1.00
H1303  H     0.17080   0.88044   0.11964   0.00000  Uiso   1.00
H1304  H     0.15768   0.84134   0.08355   0.00000  Uiso   1.00
H1305  H     0.21945   0.86744   0.04273   0.00000  Uiso   1.00
H1306  H     0.22836   0.90744   0.07864   0.00000  Uiso   1.00
H1307  H     0.14775   0.92727   0.06541   0.00000  Uiso   1.00
H1308  H     0.16673   0.50609   0.37150   0.00000  Uiso   1.00
H1309  H     0.15216   0.89397   0.02510   0.00000  Uiso   1.00
H1310  H     0.32026   0.69646   0.91705   0.00000  Uiso   1.00
H1311  H     0.31128   0.65728   0.95452   0.00000  Uiso   1.00
H1312  H     0.28582   0.70764   0.95752   0.00000  Uiso   1.00
H1313  H     0.34623   0.70260   0.00327   0.00000  Uiso   1.00
H1314  H     0.35339   0.74328   0.96839   0.00000  Uiso   1.00
H1315  H     0.39781   0.68801   0.92766   0.00000  Uiso   1.00
H1316  H     0.39278   0.65416   0.96669   0.00000  Uiso   1.00
H1317  H     0.21882   0.77844   0.04863   0.00000  Uiso   1.00
H1318  H     0.18600   0.75931   0.08773   0.00000  Uiso   1.00
H1319  H     0.36408   0.57701   0.65196   0.00000  Uiso   1.00
H1320  H     0.20842   0.72277   0.05304   0.00000  Uiso   1.00
H1321  H     0.16625   0.75614   0.00009   0.00000  Uiso   1.00
H1322  H     0.14382   0.79213   0.03346   0.00000  Uiso   1.00
H1323  H     0.11725   0.72460   0.07290   0.00000  Uiso   1.00
H1324  H     0.13392   0.69528   0.03354   0.00000  Uiso   1.00
H1325  H     0.38997   0.58162   0.60511   0.00000  Uiso   1.00
H1326  H     0.35703   0.62365   0.62270   0.00000  Uiso   1.00
H1327  H     0.32013   0.58181   0.57195   0.00000  Uiso   1.00
H1328  H     0.29405   0.57823   0.61813   0.00000  Uiso   1.00
H1329  H     0.33180   0.50739   0.62956   0.00000  Uiso   1.00
H1330  H     0.35582   0.51491   0.58351   0.00000  Uiso   1.00
H1331  H     0.16135   0.73187   0.39048   0.00000  Uiso   1.00
H1332  H     0.34142   0.71487   0.37284   0.00000  Uiso   1.00
H1333  H     0.13375   0.74340   0.34559   0.00000  Uiso   1.00
H1334  H     0.15853   0.78526   0.37270   0.00000  Uiso   1.00
H1335  H     0.08151   0.78640   0.38302   0.00000  Uiso   1.00
H1336  H     0.10854   0.77479   0.42732   0.00000  Uiso   1.00
H1337  H     0.09545   0.70144   0.42271   0.00000  Uiso   1.00
H1338  H     0.07346   0.70237   0.37579   0.00000  Uiso   1.00
H1339  H     0.00411   0.91137   0.61710   0.00000  Uiso   1.00
H1340  H     0.49747   0.88308   0.66251   0.00000  Uiso   1.00
H1341  H     0.04921   0.89874   0.64675   0.00000  Uiso   1.00
H1342  H     0.04001   0.82355   0.63463   0.00000  Uiso   1.00
H1343  H     0.41843   0.71365   0.38314   0.00000  Uiso   1.00
H1344  H     0.04317   0.85080   0.58899   0.00000  Uiso   1.00
H1345  H     0.46678   0.85203   0.58328   0.00000  Uiso   1.00
H1346  H     0.45899   0.82476   0.62822   0.00000  Uiso   1.00
H1347  H     0.39985   0.56107   0.38662   0.00000  Uiso   1.00
H1348  H     0.37058   0.55677   0.34153   0.00000  Uiso   1.00
H1349  H     0.37195   0.60599   0.36758   0.00000  Uiso   1.00
H1350  H     0.30375   0.57015   0.37786   0.00000  Uiso   1.00
H1351  H     0.33237   0.57422   0.42257   0.00000  Uiso   1.00
H1352  H     0.35717   0.50260   0.41797   0.00000  Uiso   1.00
H1353  H     0.33326   0.99377   0.37145   0.00000  Uiso   1.00
H1354  H     0.39138   0.72528   0.42743   0.00000  Uiso   1.00
H1355  H     0.13595   0.92285   0.65210   0.00000  Uiso   1.00
H1356  H     0.11008   0.91835   0.60526   0.00000  Uiso   1.00
H1357  H     0.14305   0.87630   0.62283   0.00000  Uiso   1.00
H1358  H     0.17991   0.91832   0.57205   0.00000  Uiso   1.00
H1359  H     0.20600   0.92177   0.61819   0.00000  Uiso   1.00
H1360  H     0.16825   0.99255   0.62971   0.00000  Uiso   1.00
H1361  H     0.14416   0.98517   0.58373   0.00000  Uiso   1.00
H1362  H     0.24112   0.66138   0.89335   0.00000  Uiso   1.00
H1363  H     0.25476   0.64302   0.84507   0.00000  Uiso   1.00
H1364  H     0.20035   0.65122   0.85812   0.00000  Uiso   1.00
H1365  H     0.40454   0.79862   0.42266   0.00000  Uiso   1.00
H1366  H     0.21599   0.57590   0.85847   0.00000  Uiso   1.00
H1367  H     0.20464   0.59343   0.90706   0.00000  Uiso   1.00
H1368  H     0.28175   0.60240   0.91807   0.00000  Uiso   1.00
H1369  H     0.29355   0.57633   0.87296   0.00000  Uiso   1.00
H1370  H     0.19205   0.57267   0.05070   0.00000  Uiso   1.00
H1371  H     0.13571   0.56557   0.04702   0.00000  Uiso   1.00
H1372  H     0.15706   0.60904   0.07437   0.00000  Uiso   1.00
H1373  H     0.13161   0.55273   0.11871   0.00000  Uiso   1.00
H1374  H     0.18719   0.56047   0.12312   0.00000  Uiso   1.00
H1375  H     0.14386   0.99401   0.07219   0.00000  Uiso   1.00
H1376  H     0.42656   0.79768   0.37573   0.00000  Uiso   1.00
H1377  H     0.16001   0.98164   0.12001   0.00000  Uiso   1.00
H1378  H     0.38954   0.81528   0.84508   0.00000  Uiso   1.00
H1379  H     0.35740   0.81703   0.88860   0.00000  Uiso   1.00
H1380  H     0.38930   0.86181   0.87506   0.00000  Uiso   1.00
H1381  H     0.42310   0.82286   0.92915   0.00000  Uiso   1.00
H1382  H     0.45430   0.82080   0.88585   0.00000  Uiso   1.00
H1383  H     0.41812   0.74731   0.87230   0.00000  Uiso   1.00
H1384  H     0.39448   0.75455   0.91849   0.00000  Uiso   1.00
H1385  H     0.08511   0.84949   0.04177   0.00000  Uiso   1.00
H1386  H     0.03065   0.83359   0.03634   0.00000  Uiso   1.00
H1387  H     0.49581   0.58863   0.61728   0.00000  Uiso   1.00
H1388  H     0.04339   0.88479   0.05549   0.00000  Uiso   1.00
H1389  H     0.02113   0.83559   0.10845   0.00000  Uiso   1.00
H1390  H     0.07418   0.85378   0.11443   0.00000  Uiso   1.00
H1391  H     0.07677   0.77927   0.12844   0.00000  Uiso   1.00
H1392  H     0.10062   0.78881   0.08339   0.00000  Uiso   1.00
H1393  H     0.30447   0.93036   0.94171   0.00000  Uiso   1.00
H1394  H     0.27902   0.88018   0.95069   0.00000  Uiso   1.00
H1395  H     0.32613   0.88296   0.92150   0.00000  Uiso   1.00
H1396  H     0.26516   0.87358   0.87847   0.00000  Uiso   1.00
H1397  H     0.28760   0.92454   0.87091   0.00000  Uiso   1.00
H1398  H     0.00241   0.61681   0.66269   0.00000  Uiso   1.00
H1399  H     0.21050   0.90137   0.92030   0.00000  Uiso   1.00
H1400  H     0.20761   0.92562   0.87365   0.00000  Uiso   1.00
H1401  H     0.41082   0.98835   0.10523   0.00000  Uiso   1.00
H1402  H     0.38346   0.98517   0.15143   0.00000  Uiso   1.00
H1403  H     0.39725   0.93774   0.12566   0.00000  Uiso   1.00
H1404  H     0.32141   0.95272   0.11781   0.00000  Uiso   1.00
H1405  H     0.34819   0.95596   0.07221   0.00000  Uiso   1.00
H1406  H     0.35183   0.53030   0.07323   0.00000  Uiso   1.00
H1407  H     0.33207   0.53671   0.12105   0.00000  Uiso   1.00
H1408  H     0.13971   0.83324   0.89568   0.00000  Uiso   1.00
O1409  O     0.25000   0.50000   0.25000   0.00000  Uiso   1.00
O1410  O     0.25000   0.96539   0.66251   0.00000  Uiso   1.00
O1411  O     0.46539   0.75000   0.33749   0.00000  Uiso   1.00
O1412  O     0.03462   0.75000   0.66251   0.00000  Uiso   1.00
O1413  O     0.00000   0.71539   0.83749   0.00000  Uiso   1.00
O1414  O     0.00000   0.78462   0.16251   0.00000  Uiso   1.00
O1415  O     0.28462   0.50000   0.83749   0.00000  Uiso   1.00
O1416  O     0.21539   0.50000   0.16251   0.00000  Uiso   1.00
O1417  O     0.00000   0.78462   0.83749   0.00000  Uiso   1.00
O1418  O     0.00000   0.71539   0.16251   0.00000  Uiso   1.00
O1419  O     0.21539   0.50000   0.83749   0.00000  Uiso   1.00
O1420  O     0.25000   0.50000   0.75000   0.00000  Uiso   1.00
O1421  O     0.28462   0.50000   0.16251   0.00000  Uiso   1.00
O1422  O     0.20127   0.58332   0.27298   0.00000  Uiso   1.00
O1423  O     0.29874   0.91668   0.72702   0.00000  Uiso   1.00
O1424  O     0.41668   0.70126   0.27298   0.00000  Uiso   1.00
O1425  O     0.08332   0.79874   0.72702   0.00000  Uiso   1.00
O1426  O     0.29874   0.91668   0.27298   0.00000  Uiso   1.00
O1427  O     0.20127   0.58332   0.72702   0.00000  Uiso   1.00
O1428  O     0.08332   0.79874   0.27298   0.00000  Uiso   1.00
O1429  O     0.41668   0.70126   0.72702   0.00000  Uiso   1.00
O1430  O     0.20127   0.91668   0.72702   0.00000  Uiso   1.00
O1431  O     0.00000   0.75000   0.25000   0.00000  Uiso   1.00
O1432  O     0.29874   0.58332   0.27298   0.00000  Uiso   1.00
O1433  O     0.41668   0.79873   0.72702   0.00000  Uiso   1.00
O1434  O     0.08332   0.70127   0.27298   0.00000  Uiso   1.00
O1435  O     0.29874   0.58332   0.72702   0.00000  Uiso   1.00
O1436  O     0.20127   0.91668   0.27298   0.00000  Uiso   1.00
O1437  O     0.08332   0.70127   0.72702   0.00000  Uiso   1.00
O1438  O     0.41668   0.79873   0.27298   0.00000  Uiso   1.00
O1439  O     0.45127   0.83332   0.77298   0.00000  Uiso   1.00
O1440  O     0.04874   0.66668   0.22702   0.00000  Uiso   1.00
O1441  O     0.16668   0.95127   0.77298   0.00000  Uiso   1.00
O1442  O     0.00000   0.75000   0.75000   0.00000  Uiso   1.00
O1443  O     0.33332   0.54873   0.22702   0.00000  Uiso   1.00
O1444  O     0.04874   0.66668   0.77298   0.00000  Uiso   1.00
O1445  O     0.45127   0.83332   0.22702   0.00000  Uiso   1.00
O1446  O     0.33332   0.54873   0.77298   0.00000  Uiso   1.00
O1447  O     0.16668   0.95127   0.22702   0.00000  Uiso   1.00
O1448  O     0.45127   0.66668   0.22702   0.00000  Uiso   1.00
O1449  O     0.04874   0.83332   0.77298   0.00000  Uiso   1.00
O1450  O     0.16668   0.54873   0.22702   0.00000  Uiso   1.00
O1451  O     0.33332   0.95126   0.77298   0.00000  Uiso   1.00
O1452  O     0.04874   0.83332   0.22702   0.00000  Uiso   1.00
O1453  O     0.25000   0.96539   0.33749   0.00000  Uiso   1.00
O1454  O     0.45127   0.66668   0.77298   0.00000  Uiso   1.00
O1455  O     0.33332   0.95126   0.22702   0.00000  Uiso   1.00
O1456  O     0.16668   0.54873   0.77298   0.00000  Uiso   1.00
O1457  O     0.25000   0.53461   0.66251   0.00000  Uiso   1.00
O1458  O     0.03462   0.75000   0.33749   0.00000  Uiso   1.00
O1459  O     0.46539   0.75000   0.66251   0.00000  Uiso   1.00
O1460  O     0.25000   0.53461   0.33749   0.00000  Uiso   1.00
Zn1461 Zn    0.20053   0.50000   0.21730   0.00000  Uiso   1.00
Zn1462 Zn    0.04948   0.75000   0.28270   0.00000  Uiso   1.00
Zn1463 Zn    0.25000   0.95053   0.71730   0.00000  Uiso   1.00
Zn1464 Zn    0.25000   0.54947   0.28270   0.00000  Uiso   1.00
Zn1465 Zn    0.04948   0.75000   0.71730   0.00000  Uiso   1.00
Zn1466 Zn    0.45053   0.75000   0.28270   0.00000  Uiso   1.00
Zn1467 Zn    0.25000   0.54947   0.71730   0.00000  Uiso   1.00
Zn1468 Zn    0.25000   0.95053   0.28270   0.00000  Uiso   1.00
Zn1469 Zn    0.29948   0.50000   0.78270   0.00000  Uiso   1.00
Zn1470 Zn    0.00000   0.70053   0.21730   0.00000  Uiso   1.00
Zn1471 Zn    0.00000   0.79948   0.78270   0.00000  Uiso   1.00
Zn1472 Zn    0.29948   0.50000   0.21730   0.00000  Uiso   1.00
Zn1473 Zn    0.20053   0.50000   0.78270   0.00000  Uiso   1.00
Zn1474 Zn    0.00000   0.79947   0.21730   0.00000  Uiso   1.00
Zn1475 Zn    0.00000   0.70053   0.78270   0.00000  Uiso   1.00
Zn1476 Zn    0.45053   0.75000   0.71730   0.00000  Uiso   1.00
C1477  C     0.75000   0.99998   0.35597   0.00000  Uiso   1.00
C1478  C     0.83003   0.91996   0.75002   0.00000  Uiso   1.00
C1479  C     0.93602   0.70223   0.02099   0.00000  Uiso   1.00
C1480  C     0.80438   0.55541   0.97826   0.00000  Uiso   1.00
C1481  C     0.69121   0.95116   0.02089   0.00000  Uiso   1.00
C1482  C     0.93106   0.70910   0.98023   0.00000  Uiso   1.00
C1483  C     0.58070   0.73586   0.01980   0.00000  Uiso   1.00
C1484  C     0.92420   0.77931   0.40312   0.00000  Uiso   1.00
C1485  C     0.89948   0.73797   0.39819   0.00000  Uiso   1.00
C1486  C     0.85892   0.74503   0.37536   0.00000  Uiso   1.00
C1487  C     0.51973   0.67218   0.60285   0.00000  Uiso   1.00
C1488  C     0.97674   0.65440   0.61532   0.00000  Uiso   1.00
C1489  C     0.91997   0.66998   0.25002   0.00000  Uiso   1.00
C1490  C     0.98185   0.61265   0.63683   0.00000  Uiso   1.00
C1491  C     0.67036   0.98926   0.39966   0.00000  Uiso   1.00
C1492  C     0.66828   0.94136   0.39385   0.00000  Uiso   1.00
C1493  C     0.62898   0.92860   0.37119   0.00000  Uiso   1.00
C1494  C     0.82697   0.52089   0.60007   0.00000  Uiso   1.00
C1495  C     0.82277   0.56900   0.60198   0.00000  Uiso   1.00
C1496  C     0.86090   0.58895   0.62172   0.00000  Uiso   1.00
C1497  C     0.57578   0.72073   0.40313   0.00000  Uiso   1.00
C1498  C     0.60048   0.76209   0.39811   0.00000  Uiso   1.00
C1499  C     0.64105   0.75508   0.37529   0.00000  Uiso   1.00
C1500  C     0.58002   0.83003   0.74998   0.00000  Uiso   1.00
C1501  C     0.98028   0.82782   0.60271   0.00000  Uiso   1.00
C1502  C     0.52324   0.84562   0.61517   0.00000  Uiso   1.00
C1503  C     0.51806   0.88731   0.63666   0.00000  Uiso   1.00
C1504  C     0.82963   0.51059   0.39958   0.00000  Uiso   1.00
C1505  C     0.83175   0.55849   0.39369   0.00000  Uiso   1.00
C1506  C     0.87105   0.57123   0.37093   0.00000  Uiso   1.00
C1507  C     0.67304   0.97914   0.60020   0.00000  Uiso   1.00
C1508  C     0.67727   0.93104   0.60208   0.00000  Uiso   1.00
C1509  C     0.63915   0.91100   0.62185   0.00000  Uiso   1.00
C1510  C     0.77069   0.57834   0.89735   0.00000  Uiso   1.00
C1511  C     0.83004   0.91995   0.24999   0.00000  Uiso   1.00
C1512  C     0.72798   0.59499   0.88299   0.00000  Uiso   1.00
C1513  C     0.73142   0.64051   0.86904   0.00000  Uiso   1.00
C1514  C     0.66802   0.50141   0.09445   0.00000  Uiso   1.00
C1515  C     0.66218   0.54857   0.10347   0.00000  Uiso   1.00
C1516  C     0.66176   0.57549   0.06653   0.00000  Uiso   1.00
C1517  C     0.92287   0.76131   0.90159   0.00000  Uiso   1.00
C1518  C     0.92457   0.80964   0.89923   0.00000  Uiso   1.00
C1519  C     0.88784   0.82690   0.87551   0.00000  Uiso   1.00
C1520  C     0.56999   0.78815   0.09783   0.00000  Uiso   1.00
C1521  C     0.55341   0.83360   0.09626   0.00000  Uiso   1.00
C1522  C     0.66997   0.58006   0.75002   0.00000  Uiso   1.00
C1523  C     0.55319   0.85128   0.05484   0.00000  Uiso   1.00
C1524  C     0.72646   0.92412   0.90081   0.00000  Uiso   1.00
C1525  C     0.76991   0.90496   0.89207   0.00000  Uiso   1.00
C1526  C     0.79638   0.89932   0.92886   0.00000  Uiso   1.00
C1527  C     0.82930   0.51703   0.09453   0.00000  Uiso   1.00
C1528  C     0.84449   0.97159   0.10094   0.00000  Uiso   1.00
C1529  C     0.88666   0.97080   0.12214   0.00000  Uiso   1.00
C1530  C     0.57789   0.77082   0.89955   0.00000  Uiso   1.00
C1531  C     0.57276   0.81889   0.89998   0.00000  Uiso   1.00
C1532  C     0.60992   0.84087   0.88033   0.00000  Uiso   1.00
C1533  C     0.58002   0.83003   0.25000   0.00000  Uiso   1.00
C1534  C     0.92161   0.73811   0.10114   0.00000  Uiso   1.00
C1535  C     0.90881   0.78423   0.10722   0.00000  Uiso   1.00
C1536  C     0.86683   0.78740   0.12861   0.00000  Uiso   1.00
C1537  C     0.55330   0.64621   0.46155   0.00000  Uiso   1.00
C1538  C     0.52345   0.61251   0.47803   0.00000  Uiso   1.00
C1539  C     0.52356   0.57281   0.45301   0.00000  Uiso   1.00
C1540  C     0.90845   0.82336   0.53943   0.00000  Uiso   1.00
C1541  C     0.86989   0.80158   0.52138   0.00000  Uiso   1.00
C1542  C     0.82998   0.81037   0.54474   0.00000  Uiso   1.00
C1543  C     0.83793   0.92930   0.45798   0.00000  Uiso   1.00
C1544  C     0.92001   0.66994   0.74996   0.00000  Uiso   1.00
C1545  C     0.80692   0.89203   0.45834   0.00000  Uiso   1.00
C1546  C     0.81815   0.85916   0.42774   0.00000  Uiso   1.00
C1547  C     0.64455   0.55308   0.54258   0.00000  Uiso   1.00
C1548  C     0.60055   0.53374   0.53597   0.00000  Uiso   1.00
C1549  C     0.57006   0.54557   0.56848   0.00000  Uiso   1.00
C1550  C     0.94665   0.85379   0.46139   0.00000  Uiso   1.00
C1551  C     0.97643   0.88752   0.47781   0.00000  Uiso   1.00
C1552  C     0.97620   0.92727   0.45277   0.00000  Uiso   1.00
C1553  C     0.59154   0.67660   0.53947   0.00000  Uiso   1.00
C1554  C     0.63013   0.69830   0.52130   0.00000  Uiso   1.00
C1555  C     0.66996   0.92000   0.74999   0.00000  Uiso   1.00
C1556  C     0.67004   0.68945   0.54461   0.00000  Uiso   1.00
C1557  C     0.66198   0.57056   0.45783   0.00000  Uiso   1.00
C1558  C     0.69289   0.60792   0.45819   0.00000  Uiso   1.00
C1559  C     0.68162   0.64081   0.42755   0.00000  Uiso   1.00
C1560  C     0.85535   0.94688   0.54267   0.00000  Uiso   1.00
C1561  C     0.89939   0.96612   0.53594   0.00000  Uiso   1.00
C1562  C     0.92988   0.95426   0.56843   0.00000  Uiso   1.00
C1563  C     0.65038   0.93501   0.95878   0.00000  Uiso   1.00
C1564  C     0.60984   0.95608   0.97347   0.00000  Uiso   1.00
C1565  C     0.57116   0.93849   0.95272   0.00000  Uiso   1.00
C1566  C     0.83005   0.57999   0.25002   0.00000  Uiso   1.00
C1567  C     0.81405   0.59955   0.03893   0.00000  Uiso   1.00
C1568  C     0.77643   0.62081   0.05898   0.00000  Uiso   1.00
C1569  C     0.78894   0.66299   0.07682   0.00000  Uiso   1.00
C1570  C     0.60774   0.69631   0.95971   0.00000  Uiso   1.00
C1571  C     0.59473   0.65129   0.97120   0.00000  Uiso   1.00
C1572  C     0.62655   0.61901   0.95665   0.00000  Uiso   1.00
C1573  C     0.92196   0.66065   0.03932   0.00000  Uiso   1.00
C1574  C     0.95113   0.62474   0.02629   0.00000  Uiso   1.00
C1575  C     0.94000   0.58323   0.04623   0.00000  Uiso   1.00
C1576  C     0.84646   0.56704   0.95935   0.00000  Uiso   1.00
C1577  C     0.91995   0.83002   0.75001   0.00000  Uiso   1.00
C1578  C     0.86911   0.52777   0.94404   0.00000  Uiso   1.00
C1579  C     0.91300   0.53866   0.92892   0.00000  Uiso   1.00
C1580  C     0.67064   0.91528   0.04397   0.00000  Uiso   1.00
C1581  C     0.70373   0.88788   0.06455   0.00000  Uiso   1.00
C1582  C     0.68360   0.86043   0.09596   0.00000  Uiso   1.00
C1583  C     0.89402   0.68813   0.95967   0.00000  Uiso   1.00
C1584  C     0.85216   0.70859   0.97198   0.00000  Uiso   1.00
C1585  C     0.81517   0.69134   0.94868   0.00000  Uiso   1.00
C1586  C     0.62194   0.72694   0.04103   0.00000  Uiso   1.00
C1587  C     0.65612   0.75965   0.03076   0.00000  Uiso   1.00
C1588  C     0.75000   0.50002   0.64400   0.00000  Uiso   1.00
C1589  C     0.58004   0.66997   0.25001   0.00000  Uiso   1.00
C1590  C     0.69470   0.75464   0.05674   0.00000  Uiso   1.00
C1591  C     0.83004   0.58001   0.74997   0.00000  Uiso   1.00
C1592  C     0.66996   0.91999   0.25003   0.00000  Uiso   1.00
C1593  C     0.58004   0.66995   0.74999   0.00000  Uiso   1.00
C1594  C     0.91994   0.83003   0.24997   0.00000  Uiso   1.00
C1595  C     0.63832   0.88835   0.25005   0.00000  Uiso   1.00
C1596  C     0.86170   0.61163   0.74992   0.00000  Uiso   1.00
C1597  C     0.61168   0.63833   0.25001   0.00000  Uiso   1.00
C1598  C     0.88831   0.86165   0.75003   0.00000  Uiso   1.00
C1599  C     0.86170   0.61163   0.25004   0.00000  Uiso   1.00
C1600  C     0.99999   0.75000   0.35628   0.00000  Uiso   1.00
C1601  C     0.63830   0.88837   0.74998   0.00000  Uiso   1.00
C1602  C     0.88830   0.86165   0.24996   0.00000  Uiso   1.00
C1603  C     0.61168   0.63832   0.75001   0.00000  Uiso   1.00
C1604  C     0.63834   0.61169   0.75001   0.00000  Uiso   1.00
C1605  C     0.86166   0.88830   0.24997   0.00000  Uiso   1.00
C1606  C     0.61165   0.86168   0.74996   0.00000  Uiso   1.00
C1607  C     0.88835   0.63832   0.25006   0.00000  Uiso   1.00
C1608  C     0.86166   0.88831   0.75005   0.00000  Uiso   1.00
C1609  C     0.63832   0.61167   0.25000   0.00000  Uiso   1.00
C1610  C     0.88839   0.63828   0.74993   0.00000  Uiso   1.00
C1611  C     0.50001   0.75000   0.64433   0.00000  Uiso   1.00
C1612  C     0.61164   0.86169   0.25003   0.00000  Uiso   1.00
C1613  C     0.96776   0.77108   0.42035   0.00000  Uiso   1.00
C1614  C     0.51574   0.71476   0.58226   0.00000  Uiso   1.00
C1615  C     0.71160   0.50206   0.41904   0.00000  Uiso   1.00
C1616  C     0.78845   0.50133   0.58087   0.00000  Uiso   1.00
C1617  C     0.53221   0.72892   0.42037   0.00000  Uiso   1.00
C1618  C     0.98430   0.78525   0.58220   0.00000  Uiso   1.00
C1619  C     0.78838   0.99781   0.41902   0.00000  Uiso   1.00
C1620  C     0.71153   0.99878   0.58091   0.00000  Uiso   1.00
C1621  C     0.76648   0.53578   0.91763   0.00000  Uiso   1.00
C1622  C     0.50019   0.74997   0.85620   0.00000  Uiso   1.00
C1623  C     0.71224   0.99149   0.07963   0.00000  Uiso   1.00
C1624  C     0.96278   0.74350   0.92000   0.00000  Uiso   1.00
C1625  C     0.53887   0.75700   0.07998   0.00000  Uiso   1.00
C1626  C     0.72983   0.96793   0.91892   0.00000  Uiso   1.00
C1627  C     0.78446   0.51778   0.07884   0.00000  Uiso   1.00
C1628  C     0.54006   0.74959   0.91887   0.00000  Uiso   1.00
C1629  C     0.96445   0.73504   0.08099   0.00000  Uiso   1.00
C1630  C     0.99998   0.75000   0.39928   0.00000  Uiso   1.00
C1631  C     0.50003   0.75001   0.60233   0.00000  Uiso   1.00
C1632  C     0.75000   0.99993   0.39849   0.00000  Uiso   1.00
C1633  C     0.50057   0.74999   0.14377   0.00000  Uiso   1.00
C1634  C     0.74999   0.50007   0.60137   0.00000  Uiso   1.00
C1635  C     0.74925   0.50092   0.89799   0.00000  Uiso   1.00
C1636  C     0.74920   0.50293   0.10055   0.00000  Uiso   1.00
C1637  C     0.50096   0.74909   0.89922   0.00000  Uiso   1.00
C1638  C     0.50092   0.74901   0.10070   0.00000  Uiso   1.00
C1639  C     0.52540   0.72138   0.46032   0.00000  Uiso   1.00
C1640  C     0.97681   0.78089   0.54197   0.00000  Uiso   1.00
C1641  C     0.78675   0.98921   0.45932   0.00000  Uiso   1.00
C1642  C     0.71222   0.50874   0.54069   0.00000  Uiso   1.00
C1643  C     0.97457   0.77862   0.46028   0.00000  Uiso   1.00
C1644  C     0.74990   0.99975   0.85580   0.00000  Uiso   1.00
C1645  C     0.52321   0.71912   0.54201   0.00000  Uiso   1.00
C1646  C     0.71322   0.51070   0.45931   0.00000  Uiso   1.00
C1647  C     0.78775   0.99129   0.54069   0.00000  Uiso   1.00
C1648  C     0.72090   0.97463   0.95874   0.00000  Uiso   1.00
C1649  C     0.77780   0.52760   0.03928   0.00000  Uiso   1.00
C1650  C     0.54117   0.73903   0.95886   0.00000  Uiso   1.00
C1651  C     0.96725   0.72525   0.04096   0.00000  Uiso   1.00
C1652  C     0.77345   0.53168   0.95791   0.00000  Uiso   1.00
C1653  C     0.71708   0.98102   0.04011   0.00000  Uiso   1.00
C1654  C     0.96438   0.73017   0.95966   0.00000  Uiso   1.00
C1655  C     0.74991   0.50072   0.14365   0.00000  Uiso   1.00
C1656  C     0.54211   0.74392   0.04030   0.00000  Uiso   1.00
C1657  C     0.99999   0.75000   0.48079   0.00000  Uiso   1.00
C1658  C     0.50001   0.75000   0.52158   0.00000  Uiso   1.00
C1659  C     0.74998   0.99997   0.47973   0.00000  Uiso   1.00
C1660  C     0.74998   0.50001   0.52037   0.00000  Uiso   1.00
C1661  C     0.74703   0.50357   0.97865   0.00000  Uiso   1.00
C1662  C     0.74740   0.50388   0.01917   0.00000  Uiso   1.00
C1663  C     0.50332   0.73426   0.97945   0.00000  Uiso   1.00
C1664  C     0.50429   0.73434   0.02041   0.00000  Uiso   1.00
C1665  C     0.54555   0.68860   0.48079   0.00000  Uiso   1.00
C1666  C     0.66996   0.58003   0.25000   0.00000  Uiso   1.00
C1667  C     0.94910   0.80743   0.52113   0.00000  Uiso   1.00
C1668  C     0.81869   0.96696   0.47915   0.00000  Uiso   1.00
C1669  C     0.67869   0.52934   0.52043   0.00000  Uiso   1.00
C1670  C     0.95443   0.81140   0.48071   0.00000  Uiso   1.00
C1671  C     0.55090   0.69257   0.52119   0.00000  Uiso   1.00
C1672  C     0.68126   0.53295   0.47910   0.00000  Uiso   1.00
C1673  C     0.82125   0.97062   0.52047   0.00000  Uiso   1.00
C1674  C     0.68944   0.95186   0.97964   0.00000  Uiso   1.00
C1675  C     0.80124   0.55848   0.01904   0.00000  Uiso   1.00
C1676  C     0.57866   0.72862   0.97880   0.00000  Uiso   1.00
H1677  H     0.83864   0.76825   0.39051   0.00000  Uiso   1.00
H1678  H     0.95067   0.60123   0.64691   0.00000  Uiso   1.00
H1679  H     0.61236   0.83095   0.84943   0.00000  Uiso   1.00
H1680  H     0.60528   0.87548   0.88129   0.00000  Uiso   1.00
H1681  H     0.54339   0.82830   0.88490   0.00000  Uiso   1.00
H1682  H     0.57067   0.82988   0.93062   0.00000  Uiso   1.00
H1683  H     0.60771   0.76423   0.91500   0.00000  Uiso   1.00
H1684  H     0.58188   0.75917   0.86932   0.00000  Uiso   1.00
H1685  H     0.84156   0.77153   0.11172   0.00000  Uiso   1.00
H1686  H     0.86923   0.77261   0.15782   0.00000  Uiso   1.00
H1687  H     0.85830   0.82102   0.13234   0.00000  Uiso   1.00
H1688  H     0.93292   0.80143   0.12428   0.00000  Uiso   1.00
H1689  H     0.95998   0.67645   0.63478   0.00000  Uiso   1.00
H1690  H     0.90589   0.80000   0.07845   0.00000  Uiso   1.00
H1691  H     0.89607   0.72374   0.08364   0.00000  Uiso   1.00
H1692  H     0.92236   0.72101   0.12934   0.00000  Uiso   1.00
H1693  H     0.50514   0.54765   0.46771   0.00000  Uiso   1.00
H1694  H     0.50893   0.57941   0.42431   0.00000  Uiso   1.00
H1695  H     0.55616   0.56148   0.44822   0.00000  Uiso   1.00
H1696  H     0.53298   0.60427   0.50814   0.00000  Uiso   1.00
H1697  H     0.99076   0.62492   0.47906   0.00000  Uiso   1.00
H1698  H     0.54751   0.64783   0.42976   0.00000  Uiso   1.00
H1699  H     0.58633   0.63643   0.46587   0.00000  Uiso   1.00
H1700  H     0.95682   0.64929   0.58915   0.00000  Uiso   1.00
H1701  H     0.80233   0.79692   0.52936   0.00000  Uiso   1.00
H1702  H     0.83218   0.79560   0.57397   0.00000  Uiso   1.00
H1703  H     0.82523   0.84472   0.54831   0.00000  Uiso   1.00
H1704  H     0.86526   0.81264   0.49110   0.00000  Uiso   1.00
H1705  H     0.87495   0.76697   0.52061   0.00000  Uiso   1.00
H1706  H     0.90734   0.81621   0.57098   0.00000  Uiso   1.00
H1707  H     0.90601   0.85792   0.53586   0.00000  Uiso   1.00
H1708  H     0.79745   0.83119   0.43116   0.00000  Uiso   1.00
H1709  H     0.81362   0.87233   0.39809   0.00000  Uiso   1.00
H1710  H     0.85130   0.84920   0.43090   0.00000  Uiso   1.00
H1711  H     0.53325   0.64797   0.58347   0.00000  Uiso   1.00
H1712  H     0.80689   0.87718   0.48754   0.00000  Uiso   1.00
H1713  H     0.77439   0.90305   0.45221   0.00000  Uiso   1.00
H1714  H     0.84544   0.93659   0.42735   0.00000  Uiso   1.00
H1715  H     0.86816   0.91945   0.47067   0.00000  Uiso   1.00
H1716  H     0.53817   0.53328   0.56162   0.00000  Uiso   1.00
H1717  H     0.58050   0.53174   0.59654   0.00000  Uiso   1.00
H1718  H     0.56828   0.58025   0.57154   0.00000  Uiso   1.00
H1719  H     0.58741   0.54490   0.50809   0.00000  Uiso   1.00
H1720  H     0.60217   0.99890   0.53395   0.00000  Uiso   1.00
H1721  H     0.65180   0.55472   0.57409   0.00000  Uiso   1.00
H1722  H     0.54097   0.67522   0.62836   0.00000  Uiso   1.00
H1723  H     0.64439   0.58657   0.53375   0.00000  Uiso   1.00
H1724  H     0.99459   0.95244   0.46742   0.00000  Uiso   1.00
H1725  H     0.99081   0.92075   0.42404   0.00000  Uiso   1.00
H1726  H     0.94357   0.93855   0.44804   0.00000  Uiso   1.00
H1727  H     0.96688   0.89569   0.50793   0.00000  Uiso   1.00
H1728  H     0.50914   0.87519   0.47881   0.00000  Uiso   1.00
H1729  H     0.95249   0.85218   0.42961   0.00000  Uiso   1.00
H1730  H     0.91359   0.86350   0.46568   0.00000  Uiso   1.00
H1731  H     0.69770   0.70285   0.52915   0.00000  Uiso   1.00
H1732  H     0.66789   0.70422   0.57381   0.00000  Uiso   1.00
H1733  H     0.60018   0.93873   0.38691   0.00000  Uiso   1.00
H1734  H     0.67474   0.65509   0.54825   0.00000  Uiso   1.00
H1735  H     0.63471   0.68721   0.49104   0.00000  Uiso   1.00
H1736  H     0.62512   0.73292   0.52044   0.00000  Uiso   1.00
H1737  H     0.59268   0.68378   0.57099   0.00000  Uiso   1.00
H1738  H     0.59392   0.64203   0.53600   0.00000  Uiso   1.00
H1739  H     0.70223   0.66883   0.43097   0.00000  Uiso   1.00
H1740  H     0.68626   0.62771   0.39792   0.00000  Uiso   1.00
H1741  H     0.64844   0.65066   0.43068   0.00000  Uiso   1.00
H1742  H     0.69282   0.62272   0.48738   0.00000  Uiso   1.00
H1743  H     0.72546   0.59699   0.45209   0.00000  Uiso   1.00
H1744  H     0.62941   0.94308   0.34176   0.00000  Uiso   1.00
H1745  H     0.65461   0.56328   0.42719   0.00000  Uiso   1.00
H1746  H     0.63167   0.58031   0.47044   0.00000  Uiso   1.00
H1747  H     0.96179   0.96648   0.56148   0.00000  Uiso   1.00
H1748  H     0.91949   0.96814   0.59647   0.00000  Uiso   1.00
H1749  H     0.93158   0.91957   0.57159   0.00000  Uiso   1.00
H1750  H     0.91249   0.95491   0.50807   0.00000  Uiso   1.00
H1751  H     0.89784   0.50097   0.53381   0.00000  Uiso   1.00
H1752  H     0.84812   0.94532   0.57420   0.00000  Uiso   1.00
H1753  H     0.85545   0.91336   0.53399   0.00000  Uiso   1.00
H1754  H     0.54249   0.95461   0.96353   0.00000  Uiso   1.00
H1755  H     0.62811   0.89384   0.36790   0.00000  Uiso   1.00
H1756  H     0.57366   0.94371   0.92085   0.00000  Uiso   1.00
H1757  H     0.56798   0.90425   0.95862   0.00000  Uiso   1.00
H1758  H     0.60561   0.95108   0.00517   0.00000  Uiso   1.00
H1759  H     0.61175   0.99055   0.96813   0.00000  Uiso   1.00
H1760  H     0.65170   0.94197   0.92718   0.00000  Uiso   1.00
H1761  H     0.64833   0.90027   0.96175   0.00000  Uiso   1.00
H1762  H     0.81545   0.65885   0.09752   0.00000  Uiso   1.00
H1763  H     0.79834   0.68553   0.05372   0.00000  Uiso   1.00
H1764  H     0.76171   0.67635   0.09282   0.00000  Uiso   1.00
H1765  H     0.75091   0.62613   0.03741   0.00000  Uiso   1.00
H1766  H     0.69628   0.92974   0.37799   0.00000  Uiso   1.00
H1767  H     0.76395   0.60043   0.08259   0.00000  Uiso   1.00
H1768  H     0.83961   0.59495   0.06027   0.00000  Uiso   1.00
H1769  H     0.82586   0.62223   0.01695   0.00000  Uiso   1.00
H1770  H     0.62929   0.62066   0.92447   0.00000  Uiso   1.00
H1771  H     0.65790   0.62490   0.96991   0.00000  Uiso   1.00
H1772  H     0.61603   0.58687   0.96492   0.00000  Uiso   1.00
H1773  H     0.59178   0.64803   0.00324   0.00000  Uiso   1.00
H1774  H     0.56341   0.64405   0.95838   0.00000  Uiso   1.00
H1775  H     0.60596   0.69747   0.92754   0.00000  Uiso   1.00
H1776  H     0.64114   0.70213   0.96707   0.00000  Uiso   1.00
H1777  H     0.66771   0.92562   0.42276   0.00000  Uiso   1.00
H1778  H     0.94204   0.58653   0.07834   0.00000  Uiso   1.00
H1779  H     0.90779   0.57311   0.03818   0.00000  Uiso   1.00
H1780  H     0.96240   0.55848   0.03683   0.00000  Uiso   1.00
H1781  H     0.94937   0.62030   0.99431   0.00000  Uiso   1.00
H1782  H     0.98424   0.63290   0.03370   0.00000  Uiso   1.00
H1783  H     0.92371   0.66167   0.07149   0.00000  Uiso   1.00
H1784  H     0.88886   0.65340   0.03230   0.00000  Uiso   1.00
H1785  H     0.91090   0.56206   0.90497   0.00000  Uiso   1.00
H1786  H     0.93271   0.55173   0.95273   0.00000  Uiso   1.00
H1787  H     0.92835   0.50980   0.91763   0.00000  Uiso   1.00
H1788  H     0.86626   0.75671   0.34563   0.00000  Uiso   1.00
H1789  H     0.64282   0.99723   0.41806   0.00000  Uiso   1.00
H1790  H     0.87209   0.50421   0.96783   0.00000  Uiso   1.00
H1791  H     0.85079   0.51335   0.91997   0.00000  Uiso   1.00
H1792  H     0.84356   0.59034   0.93571   0.00000  Uiso   1.00
H1793  H     0.86772   0.58179   0.98097   0.00000  Uiso   1.00
H1794  H     0.70760   0.83902   0.10850   0.00000  Uiso   1.00
H1795  H     0.67080   0.88044   0.11964   0.00000  Uiso   1.00
H1796  H     0.65768   0.84134   0.08355   0.00000  Uiso   1.00
H1797  H     0.71945   0.86744   0.04273   0.00000  Uiso   1.00
H1798  H     0.72836   0.90744   0.07864   0.00000  Uiso   1.00
H1799  H     0.64775   0.92727   0.06541   0.00000  Uiso   1.00
H1800  H     0.66673   0.50609   0.37150   0.00000  Uiso   1.00
H1801  H     0.65216   0.89397   0.02510   0.00000  Uiso   1.00
H1802  H     0.82026   0.69646   0.91705   0.00000  Uiso   1.00
H1803  H     0.81128   0.65728   0.95452   0.00000  Uiso   1.00
H1804  H     0.78582   0.70764   0.95752   0.00000  Uiso   1.00
H1805  H     0.84623   0.70260   0.00327   0.00000  Uiso   1.00
H1806  H     0.85339   0.74328   0.96839   0.00000  Uiso   1.00
H1807  H     0.89781   0.68801   0.92766   0.00000  Uiso   1.00
H1808  H     0.89278   0.65416   0.96669   0.00000  Uiso   1.00
H1809  H     0.71882   0.77844   0.04863   0.00000  Uiso   1.00
H1810  H     0.68600   0.75931   0.08773   0.00000  Uiso   1.00
H1811  H     0.86408   0.57701   0.65196   0.00000  Uiso   1.00
H1812  H     0.70842   0.72277   0.05304   0.00000  Uiso   1.00
H1813  H     0.66625   0.75614   0.00009   0.00000  Uiso   1.00
H1814  H     0.64382   0.79213   0.03346   0.00000  Uiso   1.00
H1815  H     0.61725   0.72460   0.07290   0.00000  Uiso   1.00
H1816  H     0.63392   0.69528   0.03354   0.00000  Uiso   1.00
H1817  H     0.88997   0.58162   0.60511   0.00000  Uiso   1.00
H1818  H     0.85703   0.62365   0.62270   0.00000  Uiso   1.00
H1819  H     0.82013   0.58181   0.57195   0.00000  Uiso   1.00
H1820  H     0.79405   0.57823   0.61813   0.00000  Uiso   1.00
H1821  H     0.83180   0.50739   0.62956   0.00000  Uiso   1.00
H1822  H     0.85582   0.51491   0.58351   0.00000  Uiso   1.00
H1823  H     0.66135   0.73187   0.39048   0.00000  Uiso   1.00
H1824  H     0.84142   0.71487   0.37284   0.00000  Uiso   1.00
H1825  H     0.63375   0.74340   0.34559   0.00000  Uiso   1.00
H1826  H     0.65853   0.78526   0.37270   0.00000  Uiso   1.00
H1827  H     0.58151   0.78640   0.38302   0.00000  Uiso   1.00
H1828  H     0.60854   0.77479   0.42732   0.00000  Uiso   1.00
H1829  H     0.59545   0.70144   0.42271   0.00000  Uiso   1.00
H1830  H     0.57346   0.70237   0.37579   0.00000  Uiso   1.00
H1831  H     0.50411   0.91137   0.61710   0.00000  Uiso   1.00
H1832  H     0.99747   0.88308   0.66251   0.00000  Uiso   1.00
H1833  H     0.54921   0.89874   0.64675   0.00000  Uiso   1.00
H1834  H     0.54001   0.82355   0.63463   0.00000  Uiso   1.00
H1835  H     0.91843   0.71365   0.38314   0.00000  Uiso   1.00
H1836  H     0.54317   0.85080   0.58899   0.00000  Uiso   1.00
H1837  H     0.96678   0.85203   0.58328   0.00000  Uiso   1.00
H1838  H     0.95899   0.82476   0.62822   0.00000  Uiso   1.00
H1839  H     0.89985   0.56107   0.38662   0.00000  Uiso   1.00
H1840  H     0.87058   0.55677   0.34153   0.00000  Uiso   1.00
H1841  H     0.87195   0.60599   0.36758   0.00000  Uiso   1.00
H1842  H     0.80375   0.57015   0.37786   0.00000  Uiso   1.00
H1843  H     0.83237   0.57422   0.42257   0.00000  Uiso   1.00
H1844  H     0.85717   0.50260   0.41797   0.00000  Uiso   1.00
H1845  H     0.83326   0.99377   0.37145   0.00000  Uiso   1.00
H1846  H     0.89138   0.72528   0.42743   0.00000  Uiso   1.00
H1847  H     0.63595   0.92285   0.65210   0.00000  Uiso   1.00
H1848  H     0.61008   0.91835   0.60526   0.00000  Uiso   1.00
H1849  H     0.64305   0.87630   0.62283   0.00000  Uiso   1.00
H1850  H     0.67991   0.91832   0.57205   0.00000  Uiso   1.00
H1851  H     0.70600   0.92177   0.61819   0.00000  Uiso   1.00
H1852  H     0.66825   0.99255   0.62971   0.00000  Uiso   1.00
H1853  H     0.64416   0.98517   0.58373   0.00000  Uiso   1.00
H1854  H     0.74112   0.66138   0.89335   0.00000  Uiso   1.00
H1855  H     0.75476   0.64302   0.84507   0.00000  Uiso   1.00
H1856  H     0.70035   0.65122   0.85812   0.00000  Uiso   1.00
H1857  H     0.90454   0.79862   0.42266   0.00000  Uiso   1.00
H1858  H     0.71599   0.57590   0.85847   0.00000  Uiso   1.00
H1859  H     0.70464   0.59343   0.90706   0.00000  Uiso   1.00
H1860  H     0.78175   0.60240   0.91807   0.00000  Uiso   1.00
H1861  H     0.79355   0.57633   0.87296   0.00000  Uiso   1.00
H1862  H     0.69205   0.57267   0.05070   0.00000  Uiso   1.00
H1863  H     0.63571   0.56557   0.04702   0.00000  Uiso   1.00
H1864  H     0.65706   0.60904   0.07437   0.00000  Uiso   1.00
H1865  H     0.63161   0.55273   0.11871   0.00000  Uiso   1.00
H1866  H     0.68719   0.56047   0.12312   0.00000  Uiso   1.00
H1867  H     0.64386   0.99401   0.07219   0.00000  Uiso   1.00
H1868  H     0.92656   0.79768   0.37573   0.00000  Uiso   1.00
H1869  H     0.66001   0.98164   0.12001   0.00000  Uiso   1.00
H1870  H     0.88954   0.81528   0.84508   0.00000  Uiso   1.00
H1871  H     0.85740   0.81703   0.88860   0.00000  Uiso   1.00
H1872  H     0.88930   0.86181   0.87506   0.00000  Uiso   1.00
H1873  H     0.92310   0.82286   0.92915   0.00000  Uiso   1.00
H1874  H     0.95430   0.82080   0.88585   0.00000  Uiso   1.00
H1875  H     0.91812   0.74731   0.87230   0.00000  Uiso   1.00
H1876  H     0.89448   0.75455   0.91849   0.00000  Uiso   1.00
H1877  H     0.58511   0.84949   0.04177   0.00000  Uiso   1.00
H1878  H     0.53065   0.83359   0.03634   0.00000  Uiso   1.00
H1879  H     0.99581   0.58863   0.61728   0.00000  Uiso   1.00
H1880  H     0.54339   0.88479   0.05549   0.00000  Uiso   1.00
H1881  H     0.52113   0.83559   0.10845   0.00000  Uiso   1.00
H1882  H     0.57418   0.85378   0.11443   0.00000  Uiso   1.00
H1883  H     0.57677   0.77927   0.12844   0.00000  Uiso   1.00
H1884  H     0.60062   0.78881   0.08339   0.00000  Uiso   1.00
H1885  H     0.80447   0.93036   0.94171   0.00000  Uiso   1.00
H1886  H     0.77902   0.88018   0.95069   0.00000  Uiso   1.00
H1887  H     0.82613   0.88296   0.92150   0.00000  Uiso   1.00
H1888  H     0.76516   0.87358   0.87847   0.00000  Uiso   1.00
H1889  H     0.78760   0.92454   0.87091   0.00000  Uiso   1.00
H1890  H     0.50241   0.61681   0.66269   0.00000  Uiso   1.00
H1891  H     0.71050   0.90137   0.92030   0.00000  Uiso   1.00
H1892  H     0.70761   0.92562   0.87365   0.00000  Uiso   1.00
H1893  H     0.91082   0.98835   0.10523   0.00000  Uiso   1.00
H1894  H     0.88346   0.98517   0.15143   0.00000  Uiso   1.00
H1895  H     0.89725   0.93774   0.12566   0.00000  Uiso   1.00
H1896  H     0.82141   0.95272   0.11781   0.00000  Uiso   1.00
H1897  H     0.84819   0.95596   0.07221   0.00000  Uiso   1.00
H1898  H     0.85183   0.53030   0.07323   0.00000  Uiso   1.00
H1899  H     0.83207   0.53671   0.12105   0.00000  Uiso   1.00
H1900  H     0.63971   0.83324   0.89568   0.00000  Uiso   1.00
O1901  O     0.75000   0.50000   0.25000   0.00000  Uiso   1.00
O1902  O     0.75000   0.96539   0.66251   0.00000  Uiso   1.00
O1903  O     0.96539   0.75000   0.33749   0.00000  Uiso   1.00
O1904  O     0.53462   0.75000   0.66251   0.00000  Uiso   1.00
O1905  O     0.50000   0.71539   0.83749   0.00000  Uiso   1.00
O1906  O     0.50000   0.78462   0.16251   0.00000  Uiso   1.00
O1907  O     0.78462   0.50000   0.83749   0.00000  Uiso   1.00
O1908  O     0.71539   0.50000   0.16251   0.00000  Uiso   1.00
O1909  O     0.50000   0.78462   0.83749   0.00000  Uiso   1.00
O1910  O     0.50000   0.71539   0.16251   0.00000  Uiso   1.00
O1911  O     0.71539   0.50000   0.83749   0.00000  Uiso   1.00
O1912  O     0.75000   0.50000   0.75000   0.00000  Uiso   1.00
O1913  O     0.78462   0.50000   0.16251   0.00000  Uiso   1.00
O1914  O     0.70127   0.58332   0.27298   0.00000  Uiso   1.00
O1915  O     0.79874   0.91668   0.72702   0.00000  Uiso   1.00
O1916  O     0.91668   0.70126   0.27298   0.00000  Uiso   1.00
O1917  O     0.58332   0.79874   0.72702   0.00000  Uiso   1.00
O1918  O     0.79874   0.91668   0.27298   0.00000  Uiso   1.00
O1919  O     0.70127   0.58332   0.72702   0.00000  Uiso   1.00
O1920  O     0.58332   0.79874   0.27298   0.00000  Uiso   1.00
O1921  O     0.91668   0.70126   0.72702   0.00000  Uiso   1.00
O1922  O     0.70127   0.91668   0.72702   0.00000  Uiso   1.00
O1923  O     0.50000   0.75000   0.25000   0.00000  Uiso   1.00
O1924  O     0.79874   0.58332   0.27298   0.00000  Uiso   1.00
O1925  O     0.91668   0.79873   0.72702   0.00000  Uiso   1.00
O1926  O     0.58332   0.70127   0.27298   0.00000  Uiso   1.00
O1927  O     0.79874   0.58332   0.72702   0.00000  Uiso   1.00
O1928  O     0.70127   0.91668   0.27298   0.00000  Uiso   1.00
O1929  O     0.58332   0.70127   0.72702   0.00000  Uiso   1.00
O1930  O     0.91668   0.79873   0.27298   0.00000  Uiso   1.00
O1931  O     0.95127   0.83332   0.77298   0.00000  Uiso   1.00
O1932  O     0.54874   0.66668   0.22702   0.00000  Uiso   1.00
O1933  O     0.66668   0.95127   0.77298   0.00000  Uiso   1.00
O1934  O     0.50000   0.75000   0.75000   0.00000  Uiso   1.00
O1935  O     0.83332   0.54873   0.22702   0.00000  Uiso   1.00
O1936  O     0.54874   0.66668   0.77298   0.00000  Uiso   1.00
O1937  O     0.95127   0.83332   0.22702   0.00000  Uiso   1.00
O1938  O     0.83332   0.54873   0.77298   0.00000  Uiso   1.00
O1939  O     0.66668   0.95127   0.22702   0.00000  Uiso   1.00
O1940  O     0.95127   0.66668   0.22702   0.00000  Uiso   1.00
O1941  O     0.54874   0.83332   0.77298   0.00000  Uiso   1.00
O1942  O     0.66668   0.54873   0.22702   0.00000  Uiso   1.00
O1943  O     0.83332   0.95126   0.77298   0.00000  Uiso   1.00
O1944  O     0.54874   0.83332   0.22702   0.00000  Uiso   1.00
O1945  O     0.75000   0.96539   0.33749   0.00000  Uiso   1.00
O1946  O     0.95127   0.66668   0.77298   0.00000  Uiso   1.00
O1947  O     0.83332   0.95126   0.22702   0.00000  Uiso   1.00
O1948  O     0.66668   0.54873   0.77298   0.00000  Uiso   1.00
O1949  O     0.75000   0.53461   0.66251   0.00000  Uiso   1.00
O1950  O     0.53462   0.75000   0.33749   0.00000  Uiso   1.00
O1951  O     0.96539   0.75000   0.66251   0.00000  Uiso   1.00
O1952  O     0.75000   0.53461   0.33749   0.00000  Uiso   1.00
Zn1953 Zn    0.70053   0.50000   0.21730   0.00000  Uiso   1.00
Zn1954 Zn    0.54948   0.75000   0.28270   0.00000  Uiso   1.00
Zn1955 Zn    0.75000   0.95053   0.71730   0.00000  Uiso   1.00
Zn1956 Zn    0.75000   0.54947   0.28270   0.00000  Uiso   1.00
Zn1957 Zn    0.54948   0.75000   0.71730   0.00000  Uiso   1.00
Zn1958 Zn    0.95053   0.75000   0.28270   0.00000  Uiso   1.00
Zn1959 Zn    0.75000   0.54947   0.71730   0.00000  Uiso   1.00
Zn1960 Zn    0.75000   0.95053   0.28270   0.00000  Uiso   1.00
Zn1961 Zn    0.79948   0.50000   0.78270   0.00000  Uiso   1.00
Zn1962 Zn    0.50000   0.70053   0.21730   0.00000  Uiso   1.00
Zn1963 Zn    0.50000   0.79948   0.78270   0.00000  Uiso   1.00
Zn1964 Zn    0.79948   0.50000   0.21730   0.00000  Uiso   1.00
Zn1965 Zn    0.70053   0.50000   0.78270   0.00000  Uiso   1.00
Zn1966 Zn    0.50000   0.79947   0.21730   0.00000  Uiso   1.00
Zn1967 Zn    0.50000   0.70053   0.78270   0.00000  Uiso   1.00
Zn1968 Zn    0.95053   0.75000   0.71730   0.00000  Uiso   1.00
loop_
_geom_bond_atom_site_label_1
_geom_bond_atom_site_label_2
_geom_bond_distance
_geom_bond_site_symmetry_2
_ccdc_geom_bond_type
C1     O469    1.270   .     A
C1     C156    1.462   .     S
C1     O1460   1.270   .     S
C2     C132    1.424   .     S
C2     O439    1.275   .     A
C2     O467    1.275   .     A
C3     C97     1.529   .     S
C3     C175    1.410   .     A
C3     C6      1.427   1_554 S
C4     C100    1.531   .     S
C4     C176    1.422   .     A
C4     C199    1.409   1_556 S
C5     C104    1.533   .     S
C5     C177    1.418   .     A
C5     C198    1.419   1_554 S
C6     C107    1.525   .     S
C6     C178    1.437   .     A
C6     C3      1.427   1_556 S
C7     C110    1.527   .     S
C7     C180    1.437   .     A
C7     C200    1.430   1_554 S
C8     H381    1.105   .     S
C8     C137    1.529   .     S
C8     C9      1.539   .     S
C8     H392    1.109   .     S
C9     C10     1.526   .     S
C9     H370    1.112   .     S
C9     H359    1.109   .     S
C10    H312    1.111   .     S
C10    H201    1.111   .     S
C10    H348    1.110   .     S
C11    H235    1.106   .     S
C11    C138    1.532   .     S
C11    H246    1.111   .     S
C11    C504    1.537   1_455 S
C12    H213    1.107   .     S
C12    H224    1.112   .     S
C12    C14     1.527   .     S
C12    C503    1.537   .     S
C13    O464    1.274   .     A
C13    C131    1.420   .     S
C13    O440    1.275   .     A
C14    H202    1.109   .     S
C14    H403    1.111   .     S
C14    H906    1.111   .     S
C15    H313    1.109   .     S
C15    C16     1.537   .     S
C15    C1123   1.525   .     S
C15    H1308   1.112   .     S
C16    H290    1.108   .     S
C16    C17     1.526   .     S
C16    H301    1.112   .     S
C17    H257    1.111   .     S
C17    H268    1.111   .     S
C17    H279    1.111   .     S
C18    C140    1.523   .     S
C18    C19     1.536   .     S
C18    H345    1.111   .     S
C18    H346    1.096   .     S
C19    C20     1.526   .     S
C19    H343    1.112   .     S
C19    H344    1.108   .     S
C20    H342    1.110   .     S
C20    H335    1.111   .     S
C20    H341    1.111   .     S
C21    C22     1.539   .     S
C21    H354    1.109   .     S
C21    H353    1.105   .     S
C21    C141    1.529   .     S
C22    C23     1.526   .     S
C22    H351    1.109   .     S
C22    H352    1.112   .     S
C23    H347    1.111   .     S
C23    H350    1.110   .     S
C23    H349    1.111   .     S
C24    O465    1.274   .     A
C24    C130    1.420   .     S
C24    O441    1.275   .     A
C25    C142    1.532   .     S
C25    H361    1.106   .     S
C25    H362    1.111   .     S
C25    C518    1.537   .     S
C26    H360    1.112   .     S
C26    H358    1.107   .     S
C26    C27     1.527   .     S
C26    C517    1.537   1_455 S
C27    H357    1.109   .     S
C27    H355    1.111   .     S
C27    H848    1.111   1_455 S
C28    C29     1.537   .     S
C28    H368    1.109   .     S
C28    C1127   1.525   1_545 S
C28    H1353   1.111   1_545 S
C29    H366    1.107   .     S
C29    C30     1.526   .     S
C29    H367    1.112   .     S
C30    H364    1.111   .     S
C30    H365    1.111   .     S
C30    H363    1.111   .     S
C31    H376    1.111   .     S
C31    C32     1.536   .     S
C31    H377    1.096   .     S
C31    C144    1.523   .     S
C32    H375    1.108   .     S
C32    H374    1.112   .     S
C32    C33     1.526   .     S
C33    H372    1.111   .     S
C33    H373    1.110   .     S
C33    H371    1.111   .     S
C34    C145    1.526   .     S
C34    C36     1.539   .     S
C34    H384    1.103   .     S
C34    H385    1.111   .     S
C35    C129    1.423   .     S
C35    O442    1.274   .     A
C35    O471    1.274   .     A
C36    C37     1.527   .     S
C36    H383    1.112   .     S
C36    H382    1.106   .     S
C37    H378    1.111   .     S
C37    H380    1.111   .     S
C37    H379    1.111   .     S
C38    C39     1.542   .     S
C38    C1131   1.528   1_545 S
C38    H1375   1.109   1_545 S
C38    H1377   1.109   1_545 S
C39    H389    1.111   .     S
C39    C40     1.531   .     S
C39    H390    1.109   .     S
C40    H387    1.111   .     S
C40    H388    1.110   .     S
C40    H386    1.109   .     S
C41    H400    1.093   .     S
C41    C148    1.527   .     S
C41    C42     1.539   .     S
C41    H399    1.112   .     S
C42    H398    1.108   .     S
C42    C43     1.527   .     S
C42    H397    1.112   .     S
C43    H395    1.111   .     S
C43    H396    1.110   .     S
C43    H394    1.111   .     S
C44    H407    1.110   .     S
C44    H408    1.092   .     S
C44    C45     1.539   .     S
C44    C149    1.527   .     S
C45    C47     1.530   .     S
C45    H405    1.110   .     S
C45    H406    1.112   .     S
C46    O443    1.274   .     A
C46    O472    1.274   .     A
C46    C128    1.423   .     S
C47    H401    1.110   .     S
C47    H404    1.110   .     S
C47    H402    1.110   .     S
C48    H415    1.107   .     S
C48    C150    1.529   .     S
C48    C49     1.540   .     S
C48    H416    1.111   .     S
C49    H412    1.112   .     S
C49    C50     1.530   .     S
C49    H413    1.109   .     S
C50    H410    1.111   .     S
C50    H411    1.109   .     S
C50    H409    1.111   .     S
C51    H422    1.106   .     S
C51    C151    1.524   .     S
C51    H423    1.110   .     S
C51    C1036   1.539   1_545 S
C52    H420    1.109   .     S
C52    C53     1.526   .     S
C52    H421    1.112   .     S
C52    C1035   1.539   .     S
C53    H417    1.111   .     S
C53    H419    1.110   .     S
C53    H418    1.111   .     S
C54    C152    1.528   .     S
C54    C55     1.537   .     S
C54    H208    1.111   .     S
C54    H207    1.107   .     S
C55    H206    1.112   .     S
C55    C56     1.527   .     S
C55    H205    1.109   .     S
C56    H424    1.111   .     S
C56    H203    1.111   .     S
C56    H204    1.110   .     S
C57    O444    1.274   .     A
C57    O468    1.274   .     A
C57    C136    1.420   .     S
C58    C153    1.530   .     S
C58    H215    1.108   .     S
C58    C59     1.537   .     S
C58    H216    1.111   .     S
C59    C60     1.526   .     S
C59    H214    1.112   .     S
C59    H212    1.108   .     S
C60    H209    1.111   .     S
C60    H211    1.111   .     S
C60    H210    1.111   .     S
C61    C189    1.522   .     S
C61    H222    1.109   .     S
C61    C62     1.536   .     S
C61    H223    1.105   .     S
C62    C63     1.528   .     S
C62    H220    1.110   .     S
C62    H713    1.112   1_455 S
C63    H219    1.110   .     S
C63    H217    1.111   .     S
C63    H218    1.111   .     S
C64    H231    1.108   .     S
C64    C65     1.537   .     S
C64    H230    1.108   .     S
C64    C191    1.524   .     S
C65    H229    1.112   .     S
C65    C66     1.527   .     S
C65    H228    1.108   .     S
C66    H227    1.109   .     S
C66    H225    1.110   .     S
C66    H226    1.111   .     S
C67    H238    1.104   .     S
C67    C192    1.530   .     S
C67    H239    1.101   .     S
C67    C69     1.539   .     S
C68    O445    1.274   .     A
C68    C134    1.420   .     S
C68    O470    1.274   .     A
C69    H236    1.109   .     S
C69    C70     1.526   .     S
C69    H237    1.112   .     S
C70    H233    1.111   .     S
C70    H232    1.110   .     S
C70    H234    1.106   .     S
C71    H247    1.107   .     S
C71    H245    1.109   .     S
C71    C72     1.543   .     S
C71    C193    1.526   .     S
C72    H243    1.104   .     S
C72    C73     1.527   .     S
C72    H1228   1.111   1_545 S
C73    H242    1.109   .     S
C73    H240    1.111   .     S
C73    H241    1.111   .     S
C74    C194    1.522   .     S
C74    H254    1.105   .     S
C74    H253    1.109   .     S
C74    C75     1.536   .     S
C75    C76     1.528   .     S
C75    H251    1.110   .     S
C75    H744    1.112   .     S
C76    H250    1.110   .     S
C76    H248    1.111   .     S
C76    H249    1.111   .     S
C77    H261    1.108   .     S
C77    C195    1.524   .     S
C77    C78     1.537   .     S
C77    H262    1.108   .     S
C78    H259    1.108   .     S
C78    C80     1.527   .     S
C78    H260    1.112   .     S
C79    C125    1.420   .     S
C79    O446    1.274   .     A
C79    O457    1.275   .     A
C80    H256    1.111   .     S
C80    H258    1.109   .     S
C80    H255    1.110   .     S
C81    H270    1.101   .     S
C81    H269    1.104   .     S
C81    C196    1.530   .     S
C81    C82     1.539   .     S
C82    H267    1.112   .     S
C82    C83     1.526   .     S
C82    H266    1.109   .     S
C83    H265    1.106   .     S
C83    H263    1.110   .     S
C83    H264    1.111   .     S
C84    H276    1.109   .     S
C84    C197    1.526   .     S
C84    C85     1.543   .     S
C84    H277    1.107   .     S
C85    C86     1.527   .     S
C85    H274    1.104   .     S
C85    H1259   1.111   .     S
C86    H271    1.111   .     S
C86    H273    1.109   .     S
C86    H272    1.111   .     S
C87    C88     1.539   .     S
C87    H285    1.110   .     S
C87    C198    1.530   .     S
C87    H284    1.109   .     S
C88    C89     1.526   .     S
C88    H283    1.112   .     S
C88    H282    1.109   1_556 S
C89    H280    1.111   .     S
C89    H281    1.111   .     S
C89    H278    1.110   .     S
C90    C123    1.420   .     S
C90    O459    1.275   .     A
C90    O448    1.274   .     A
C91    C92     1.538   .     S
C91    H292    1.105   .     S
C91    H293    1.108   .     S
C91    C199    1.528   .     S
C92    C93     1.526   .     S
C92    H289    1.112   .     S
C92    H291    1.110   .     S
C93    H286    1.111   .     S
C93    H288    1.110   .     S
C93    H287    1.109   .     S
C94    H300    1.106   .     S
C94    C200    1.531   .     S
C94    C95     1.539   .     S
C94    H299    1.108   .     S
C95    H298    1.112   .     S
C95    C96     1.527   .     S
C95    H297    1.110   1_556 S
C96    H296    1.111   .     S
C96    H294    1.111   .     S
C96    H295    1.111   .     S
C97    H308    1.103   .     S
C97    C98     1.539   .     S
C97    H307    1.108   .     S
C98    C99     1.526   .     S
C98    H306    1.112   .     S
C98    H305    1.110   1_554 S
C99    H304    1.110   .     S
C99    H302    1.111   .     S
C99    H303    1.107   .     S
C100   H317    1.108   .     S
C100   C102    1.536   .     S
C100   H316    1.103   .     S
C101   C122    1.424   .     S
C101   O455    1.275   .     A
C101   O449    1.275   .     A
C102   H314    1.112   .     S
C102   H315    1.111   .     S
C102   C103    1.526   .     S
C103   H311    1.110   .     S
C103   H309    1.111   .     S
C103   H310    1.111   .     S
C104   C105    1.539   .     S
C104   H323    1.104   .     S
C104   H325    1.106   .     S
C105   H322    1.110   .     S
C105   H321    1.112   .     S
C105   C106    1.526   .     S
C106   H320    1.108   .     S
C106   H318    1.110   .     S
C106   H319    1.111   .     S
C107   C108    1.541   .     S
C107   H332    1.106   .     S
C107   H331    1.107   .     S
C108   C109    1.524   .     S
C108   H330    1.110   .     S
C108   H329    1.108   1_556 S
C109   H326    1.111   .     S
C109   H328    1.110   .     S
C109   H327    1.107   .     S
C110   C111    1.542   .     S
C110   H339    1.108   .     S
C110   H340    1.107   .     S
C111   H337    1.108   .     S
C111   H338    1.108   .     S
C111   C114    1.526   .     S
C112   C158    1.465   .     S
C112   O473    1.271   .     A
C112   O1410   1.271   1_545 S
C113   O456    1.275   .     A
C113   C121    1.424   .     S
C113   O450    1.275   .     A
C114   H333    1.110   .     S
C114   H336    1.111   .     S
C114   H334    1.111   .     S
C115   O462    1.274   .     A
C115   O451    1.274   .     A
C115   C120    1.420   .     S
C116   O463    1.274   .     A
C116   O452    1.274   .     A
C116   C119    1.420   .     S
C117   O453    1.274   .     A
C117   C127    1.423   .     S
C117   O460    1.274   .     A
C118   O454    1.274   .     A
C118   O461    1.274   .     A
C118   C126    1.423   .     S
C119   C136    1.197   .     T
C120   C134    1.197   .     T
C121   C133    1.199   .     T
C122   C132    1.199   .     T
C123   C131    1.197   .     T
C124   O427    1.275   .     A
C124   C154    1.478   .     S
C124   O966    1.275   .     S
C125   C130    1.197   .     T
C126   C129    1.199   .     T
C127   C128    1.199   .     T
C133   C190    1.424   .     S
C135   O428    1.265   .     A
C135   C155    1.444   .     S
C135   O967    1.265   1_455 S
C137   C167    1.410   .     A
C137   C154    1.423   .     A
C138   C169    1.410   .     A
C138   C155    1.409   .     A
C139   C170    1.413   .     A
C139   C999    1.525   1_545 S
C139   C1140   1.411   1_545 S
C140   C158    1.411   .     A
C140   C1155   1.418   1_545 S
C141   C163    1.410   .     A
C141   C646    1.423   1_455 S
C142   C164    1.410   .     A
C142   C647    1.409   .     S
C143   C165    1.413   .     A
C143   C156    1.411   .     A
C143   C1012   1.525   .     S
C144   C1142   1.411   .     S
C144   C1150   1.418   .     S
C145   C159    1.407   .     A
C145   C176    1.408   .     A
C146   C161    1.479   .     S
C146   O429    1.274   .     A
C146   O433    1.275   .     A
C147   C177    1.408   .     A
C147   C1022   1.528   .     S
C147   C1144   1.424   .     S
C148   C178    1.428   .     A
C148   C653    1.418   .     S
C149   C162    1.422   .     A
C149   C180    1.430   .     A
C150   C172    1.414   .     A
C150   C1143   1.411   .     S
C151   C173    1.411   .     A
C151   C160    1.425   .     A
C152   C174    1.415   .     A
C152   C161    1.414   .     A
C153   C175    1.414   .     A
C153   C654    1.413   .     S
C154   C633    1.423   .     S
C155   C634    1.409   1_455 S
C156   C1123   1.411   .     S
C157   C162    1.481   .     S
C157   O434    1.274   .     A
C157   O430    1.276   .     A
C158   C1128   1.411   1_545 S
C159   C1134   1.411   1_545 S
C159   C1152   1.451   1_545 S
C160   C179    1.483   .     S
C160   C1131   1.424   1_545 S
C161   C640    1.418   1_455 S
C162   C645    1.413   1_455 S
C163   C189    1.412   .     A
C163   C673    1.407   1_455 S
C164   C191    1.415   .     A
C164   C674    1.415   .     S
C165   C183    1.406   .     A
C165   C192    1.414   .     A
C166   C193    1.432   .     A
C166   C184    1.416   .     A
C166   C1128   1.418   1_545 S
C167   C194    1.412   .     A
C167   C181    1.407   .     A
C168   C1143   1.451   .     S
C168   O1415   1.269   .     S
C168   O1419   1.265   .     S
C169   C182    1.415   .     A
C169   C195    1.415   .     A
C170   C196    1.414   .     A
C170   C1167   1.406   1_545 S
C171   C197    1.432   .     A
C171   C1124   1.418   .     S
C171   C1168   1.416   .     S
C172   C198    1.426   .     A
C172   C1169   1.415   .     S
C173   C186    1.406   .     A
C173   C199    1.413   .     A
C174   C200    1.414   .     A
C174   C187    1.403   .     A
C175   C680    1.402   .     S
C176   C185    1.416   .     A
C177   C1170   1.403   .     S
C178   C679    1.418   .     S
C179   O437    1.280   .     A
C179   O432    1.274   .     A
C180   C188    1.415   .     A
C181   C655    1.407   .     S
C181   C674    1.402   .     S
C182   C656    1.415   1_455 S
C182   C673    1.402   1_455 S
C183   C1154   1.406   .     S
C183   C1168   1.397   .     S
C184   C1155   1.416   1_545 S
C184   C1167   1.397   1_545 S
C185   C1156   1.415   1_545 S
C185   C186    1.393   1_556 S
C186   C1161   1.403   1_545 S
C186   C185    1.393   1_554 S
C187   C670    1.418   1_455 S
C187   C188    1.408   1_556 S
C188   C667    1.402   1_455 S
C188   C187    1.408   1_554 S
C189   C195    1.405   .     A
C190   O466    1.275   .     A
C190   O438    1.275   .     A
C191   C194    1.405   .     A
C192   C197    1.427   .     A
C193   C196    1.427   .     A
C198   C5      1.419   1_556 S
C199   C4      1.409   1_554 S
C200   C7      1.430   1_556 S
H221   C554    1.112   .     S
H244   C1056   1.111   .     S
H252   C567    1.112   1_455 S
H275   C1069   1.111   1_545 S
H282   C88     1.109   1_554 S
H297   C95     1.110   1_554 S
H305   C98     1.110   1_556 S
H324   C999    1.112   1_545 S
H329   C108    1.108   1_554 S
H356   C519    1.111   .     S
H369   C1012   1.111   .     S
H391   C1022   1.109   .     S
H393   C1022   1.109   .     S
H414   C506    1.111   1_455 S
O425   Zn477   1.933   .     S
O425   Zn480   1.934   .     S
O425   Zn488   1.932   .     S
O425   Zn1468  1.932   1_545 S
O426   Zn479   1.941   .     S
O426   C1096   1.271   .     S
O427   Zn482   1.942   .     S
O428   Zn481   1.942   .     S
O429   Zn491   1.942   .     S
O430   Zn490   1.942   .     S
O431   Zn485   1.941   .     S
O431   C1152   1.269   1_545 S
O432   Zn477   1.941   .     S
O433   Zn487   1.941   .     S
O434   Zn486   1.941   .     S
O435   Zn489   1.942   .     S
O435   C1152   1.265   1_545 S
O436   Zn489   1.932   .     S
O436   Zn483   1.932   .     S
O436   Zn485   1.933   .     S
O436   Zn1463  1.934   1_545 S
O437   Zn488   1.942   .     S
O438   Zn480   1.917   .     S
O439   Zn479   1.917   .     S
O440   Zn482   1.913   .     S
O441   Zn481   1.913   .     S
O442   Zn484   1.917   .     S
O443   Zn483   1.917   .     S
O444   Zn478   1.912   .     S
O445   Zn492   1.912   .     S
O446   Zn479   1.912   .     S
O447   Zn478   1.933   .     S
O447   Zn486   1.934   .     S
O447   Zn974   1.932   1_455 S
O447   Zn490   1.932   .     S
O448   Zn480   1.912   .     S
O449   Zn492   1.917   .     S
O450   Zn478   1.917   .     S
O451   Zn483   1.913   .     S
O452   Zn484   1.913   .     S
O453   Zn481   1.917   .     S
O454   Zn482   1.917   .     S
O455   Zn979   1.917   .     S
O456   Zn486   1.917   .     S
O457   Zn1473  1.913   .     S
O458   Zn481   1.932   .     S
O458   Zn487   1.934   .     S
O458   Zn491   1.932   .     S
O458   Zn984   1.933   1_455 S
O459   Zn488   1.913   .     S
O460   Zn491   1.917   .     S
O461   Zn982   1.917   .     S
O462   Zn485   1.912   .     S
O463   Zn1461  1.912   .     S
O464   Zn978   1.912   .     S
O465   Zn487   1.912   .     S
O466   Zn477   1.917   .     S
O467   Zn1469  1.917   .     S
O468   Zn490   1.913   .     S
O469   Zn484   1.942   .     S
O470   Zn983   1.913   .     S
O471   Zn1472  1.917   .     S
O472   Zn489   1.917   .     S
O473   Zn483   1.942   .     S
O474   Zn478   1.941   .     S
O474   C616    1.275   1_455 S
O475   Zn492   1.941   .     S
O475   C627    1.265   .     S
O476   Zn480   1.941   .     S
O476   C985    1.270   1_545 S
Zn477  O1447   1.912   1_545 S
Zn479  O1420   1.934   .     S
Zn482  O939    1.932   .     S
Zn484  O1409   1.932   .     S
Zn485  O1451   1.917   1_545 S
Zn486  O956    1.912   1_455 S
Zn487  O947    1.917   1_455 S
Zn488  O1455   1.917   1_545 S
Zn489  O1441   1.913   1_545 S
Zn490  O953    1.917   1_455 S
Zn491  O962    1.913   1_455 S
Zn492  O950    1.933   .     S
C493   O961    1.270   .     A
C493   C648    1.462   .     S
C493   O1952   1.270   .     S
C494   C624    1.424   .     S
C494   O931    1.275   .     A
C494   O959    1.275   .     A
C495   C589    1.529   .     S
C495   C667    1.410   .     A
C495   C498    1.427   1_554 S
C496   C592    1.531   .     S
C496   C668    1.422   .     A
C496   C691    1.409   1_556 S
C497   C596    1.533   .     S
C497   C669    1.418   .     A
C497   C690    1.419   1_554 S
C498   C599    1.525   .     S
C498   C670    1.437   .     A
C498   C495    1.427   1_556 S
C499   C602    1.527   .     S
C499   C672    1.437   .     A
C499   C692    1.430   1_554 S
C500   H873    1.105   .     S
C500   C629    1.529   .     S
C500   C501    1.539   .     S
C500   H884    1.109   .     S
C501   C502    1.526   .     S
C501   H862    1.112   .     S
C501   H851    1.109   .     S
C502   H804    1.111   .     S
C502   H693    1.111   .     S
C502   H840    1.110   .     S
C503   H727    1.106   .     S
C503   C630    1.532   .     S
C503   H738    1.111   .     S
C504   H705    1.107   .     S
C504   H716    1.112   .     S
C504   C506    1.527   .     S
C504   C11     1.537   1_655 S
C505   O956    1.274   .     A
C505   C623    1.420   .     S
C505   O932    1.275   .     A
C506   H694    1.109   .     S
C506   H895    1.111   .     S
C506   H414    1.111   1_655 S
C507   H805    1.109   .     S
C507   C508    1.537   .     S
C507   C1615   1.525   .     S
C507   H1800   1.112   .     S
C508   H782    1.108   .     S
C508   C509    1.526   .     S
C508   H793    1.112   .     S
C509   H749    1.111   .     S
C509   H760    1.111   .     S
C509   H771    1.111   .     S
C510   C632    1.523   .     S
C510   C511    1.536   .     S
C510   H837    1.111   .     S
C510   H838    1.096   .     S
C511   C512    1.526   .     S
C511   H835    1.112   .     S
C511   H836    1.108   .     S
C512   H834    1.110   .     S
C512   H827    1.111   .     S
C512   H833    1.111   .     S
C513   C514    1.539   .     S
C513   H846    1.109   .     S
C513   H845    1.105   .     S
C513   C633    1.529   .     S
C514   C515    1.526   .     S
C514   H843    1.109   .     S
C514   H844    1.112   .     S
C515   H839    1.111   .     S
C515   H842    1.110   .     S
C515   H841    1.111   .     S
C516   O957    1.274   .     A
C516   C622    1.420   .     S
C516   O933    1.275   .     A
C517   C634    1.532   .     S
C517   H853    1.106   .     S
C517   H854    1.111   .     S
C517   C26     1.537   1_655 S
C518   H852    1.112   .     S
C518   H850    1.107   .     S
C518   C519    1.527   .     S
C519   H849    1.109   .     S
C519   H847    1.111   .     S
C520   C521    1.537   .     S
C520   H860    1.109   .     S
C520   C1619   1.525   1_545 S
C520   H1845   1.111   1_545 S
C521   H858    1.107   .     S
C521   C522    1.526   .     S
C521   H859    1.112   .     S
C522   H856    1.111   .     S
C522   H857    1.111   .     S
C522   H855    1.111   .     S
C523   H868    1.111   .     S
C523   C524    1.536   .     S
C523   H869    1.096   .     S
C523   C636    1.523   .     S
C524   H867    1.108   .     S
C524   H866    1.112   .     S
C524   C525    1.526   .     S
C525   H864    1.111   .     S
C525   H865    1.110   .     S
C525   H863    1.111   .     S
C526   C637    1.526   .     S
C526   C528    1.539   .     S
C526   H876    1.103   .     S
C526   H877    1.111   .     S
C527   C621    1.423   .     S
C527   O934    1.274   .     A
C527   O963    1.274   .     A
C528   C529    1.527   .     S
C528   H875    1.112   .     S
C528   H874    1.106   .     S
C529   H870    1.111   .     S
C529   H872    1.111   .     S
C529   H871    1.111   .     S
C530   C531    1.542   .     S
C530   C1623   1.528   1_545 S
C530   H1867   1.109   1_545 S
C530   H1869   1.109   1_545 S
C531   H881    1.111   .     S
C531   C532    1.531   .     S
C531   H882    1.109   .     S
C532   H879    1.111   .     S
C532   H880    1.110   .     S
C532   H878    1.109   .     S
C533   H892    1.093   .     S
C533   C640    1.527   .     S
C533   C534    1.539   .     S
C533   H891    1.112   .     S
C534   H890    1.108   .     S
C534   C535    1.527   .     S
C534   H889    1.112   .     S
C535   H887    1.111   .     S
C535   H888    1.110   .     S
C535   H886    1.111   .     S
C536   H899    1.110   .     S
C536   H900    1.092   .     S
C536   C537    1.539   .     S
C536   C641    1.527   .     S
C537   C539    1.530   .     S
C537   H897    1.110   .     S
C537   H898    1.112   .     S
C538   O935    1.274   .     A
C538   O964    1.274   .     A
C538   C620    1.423   .     S
C539   H893    1.110   .     S
C539   H896    1.110   .     S
C539   H894    1.110   .     S
C540   H907    1.107   .     S
C540   C642    1.529   .     S
C540   C541    1.540   .     S
C540   H908    1.111   .     S
C541   H904    1.112   .     S
C541   C542    1.530   .     S
C541   H905    1.109   .     S
C542   H902    1.111   .     S
C542   H903    1.109   .     S
C542   H901    1.111   .     S
C543   H914    1.106   .     S
C543   C643    1.524   .     S
C543   H915    1.110   .     S
C543   C1528   1.539   1_545 S
C544   H912    1.109   .     S
C544   C545    1.526   .     S
C544   H913    1.112   .     S
C544   C1527   1.539   .     S
C545   H909    1.111   .     S
C545   H911    1.110   .     S
C545   H910    1.111   .     S
C546   C644    1.528   .     S
C546   C547    1.537   .     S
C546   H700    1.111   .     S
C546   H699    1.107   .     S
C547   H698    1.112   .     S
C547   C548    1.527   .     S
C547   H697    1.109   .     S
C548   H916    1.111   .     S
C548   H695    1.111   .     S
C548   H696    1.110   .     S
C549   O936    1.274   .     A
C549   O960    1.274   .     A
C549   C628    1.420   .     S
C550   C645    1.530   .     S
C550   H707    1.108   .     S
C550   C551    1.537   .     S
C550   H708    1.111   .     S
C551   C552    1.526   .     S
C551   H706    1.112   .     S
C551   H704    1.108   .     S
C552   H701    1.111   .     S
C552   H703    1.111   .     S
C552   H702    1.111   .     S
C553   C681    1.522   .     S
C553   H714    1.109   .     S
C553   C554    1.536   .     S
C553   H715    1.105   .     S
C554   C555    1.528   .     S
C554   H712    1.110   .     S
C555   H711    1.110   .     S
C555   H709    1.111   .     S
C555   H710    1.111   .     S
C556   H723    1.108   .     S
C556   C557    1.537   .     S
C556   H722    1.108   .     S
C556   C683    1.524   .     S
C557   H721    1.112   .     S
C557   C558    1.527   .     S
C557   H720    1.108   .     S
C558   H719    1.109   .     S
C558   H717    1.110   .     S
C558   H718    1.111   .     S
C559   H730    1.104   .     S
C559   C684    1.530   .     S
C559   H731    1.101   .     S
C559   C561    1.539   .     S
C560   O937    1.274   .     A
C560   C626    1.420   .     S
C560   O962    1.274   .     A
C561   H728    1.109   .     S
C561   C562    1.526   .     S
C561   H729    1.112   .     S
C562   H725    1.111   .     S
C562   H724    1.110   .     S
C562   H726    1.106   .     S
C563   H739    1.107   .     S
C563   H737    1.109   .     S
C563   C564    1.543   .     S
C563   C685    1.526   .     S
C564   H735    1.104   .     S
C564   C565    1.527   .     S
C564   H1720   1.111   1_545 S
C565   H734    1.109   .     S
C565   H732    1.111   .     S
C565   H733    1.111   .     S
C566   C686    1.522   .     S
C566   H746    1.105   .     S
C566   H745    1.109   .     S
C566   C567    1.536   .     S
C567   C568    1.528   .     S
C567   H743    1.110   .     S
C567   H252    1.112   1_655 S
C568   H742    1.110   .     S
C568   H740    1.111   .     S
C568   H741    1.111   .     S
C569   H753    1.108   .     S
C569   C687    1.524   .     S
C569   C570    1.537   .     S
C569   H754    1.108   .     S
C570   H751    1.108   .     S
C570   C572    1.527   .     S
C570   H752    1.112   .     S
C571   C617    1.420   .     S
C571   O938    1.274   .     A
C571   O949    1.275   .     A
C572   H748    1.111   .     S
C572   H750    1.109   .     S
C572   H747    1.110   .     S
C573   H762    1.101   .     S
C573   H761    1.104   .     S
C573   C688    1.530   .     S
C573   C574    1.539   .     S
C574   H759    1.112   .     S
C574   C575    1.526   .     S
C574   H758    1.109   .     S
C575   H757    1.106   .     S
C575   H755    1.110   .     S
C575   H756    1.111   .     S
C576   H768    1.109   .     S
C576   C689    1.526   .     S
C576   C577    1.543   .     S
C576   H769    1.107   .     S
C577   C578    1.527   .     S
C577   H766    1.104   .     S
C577   H1751   1.111   .     S
C578   H763    1.111   .     S
C578   H765    1.109   .     S
C578   H764    1.111   .     S
C579   C580    1.539   .     S
C579   H777    1.110   .     S
C579   C690    1.530   .     S
C579   H776    1.109   .     S
C580   C581    1.526   .     S
C580   H775    1.112   .     S
C580   H774    1.109   1_556 S
C581   H772    1.111   .     S
C581   H773    1.111   .     S
C581   H770    1.110   .     S
C582   C615    1.420   .     S
C582   O951    1.275   .     A
C582   O940    1.274   .     A
C583   C584    1.538   .     S
C583   H784    1.105   .     S
C583   H785    1.108   .     S
C583   C691    1.528   .     S
C584   C585    1.526   .     S
C584   H781    1.112   .     S
C584   H783    1.110   .     S
C585   H778    1.111   .     S
C585   H780    1.110   .     S
C585   H779    1.109   .     S
C586   H792    1.106   .     S
C586   C692    1.531   .     S
C586   C587    1.539   .     S
C586   H791    1.108   .     S
C587   H790    1.112   .     S
C587   C588    1.527   .     S
C587   H789    1.110   1_556 S
C588   H788    1.111   .     S
C588   H786    1.111   .     S
C588   H787    1.111   .     S
C589   H800    1.103   .     S
C589   C590    1.539   .     S
C589   H799    1.108   .     S
C590   C591    1.526   .     S
C590   H798    1.112   .     S
C590   H797    1.110   1_554 S
C591   H796    1.110   .     S
C591   H794    1.111   .     S
C591   H795    1.107   .     S
C592   H809    1.108   .     S
C592   C594    1.536   .     S
C592   H808    1.103   .     S
C593   C614    1.424   .     S
C593   O947    1.275   .     A
C593   O941    1.275   .     A
C594   H806    1.112   .     S
C594   H807    1.111   .     S
C594   C595    1.526   .     S
C595   H803    1.110   .     S
C595   H801    1.111   .     S
C595   H802    1.111   .     S
C596   C597    1.539   .     S
C596   H815    1.104   .     S
C596   H817    1.106   .     S
C597   H814    1.110   .     S
C597   H813    1.112   .     S
C597   C598    1.526   .     S
C598   H812    1.108   .     S
C598   H810    1.110   .     S
C598   H811    1.111   .     S
C599   C600    1.541   .     S
C599   H824    1.106   .     S
C599   H823    1.107   .     S
C600   C601    1.524   .     S
C600   H822    1.110   .     S
C600   H821    1.108   1_556 S
C601   H818    1.111   .     S
C601   H820    1.110   .     S
C601   H819    1.107   .     S
C602   C603    1.542   .     S
C602   H831    1.108   .     S
C602   H832    1.107   .     S
C603   H829    1.108   .     S
C603   H830    1.108   .     S
C603   C606    1.526   .     S
C604   C650    1.465   .     S
C604   O965    1.271   .     A
C604   O1902   1.271   1_545 S
C605   O948    1.275   .     A
C605   C613    1.424   .     S
C605   O942    1.275   .     A
C606   H825    1.110   .     S
C606   H828    1.111   .     S
C606   H826    1.111   .     S
C607   O954    1.274   .     A
C607   O943    1.274   .     A
C607   C612    1.420   .     S
C608   O955    1.274   .     A
C608   O944    1.274   .     A
C608   C611    1.420   .     S
C609   O945    1.274   .     A
C609   C619    1.423   .     S
C609   O952    1.274   .     A
C610   O946    1.274   .     A
C610   O953    1.274   .     A
C610   C618    1.423   .     S
C611   C628    1.197   .     T
C612   C626    1.197   .     T
C613   C625    1.199   .     T
C614   C624    1.199   .     T
C615   C623    1.197   .     T
C616   O919    1.275   .     A
C616   C646    1.478   .     S
C616   O474    1.275   1_655 S
C617   C622    1.197   .     T
C618   C621    1.199   .     T
C619   C620    1.199   .     T
C625   C682    1.424   .     S
C627   O920    1.265   .     A
C627   C647    1.444   .     S
C629   C659    1.410   .     A
C629   C646    1.423   .     A
C630   C661    1.410   .     A
C630   C647    1.409   .     A
C631   C662    1.413   .     A
C631   C1491   1.525   1_545 S
C631   C1632   1.411   1_545 S
C632   C650    1.411   .     A
C632   C1647   1.418   1_545 S
C633   C655    1.410   .     A
C634   C656    1.410   .     A
C634   C155    1.409   1_655 S
C635   C657    1.413   .     A
C635   C648    1.411   .     A
C635   C1504   1.525   .     S
C636   C1634   1.411   .     S
C636   C1642   1.418   .     S
C637   C651    1.407   .     A
C637   C668    1.408   .     A
C638   C653    1.479   .     S
C638   O921    1.274   .     A
C638   O925    1.275   .     A
C639   C669    1.408   .     A
C639   C1514   1.528   .     S
C639   C1636   1.424   .     S
C640   C670    1.428   .     A
C640   C161    1.418   1_655 S
C641   C654    1.422   .     A
C641   C672    1.430   .     A
C642   C664    1.414   .     A
C642   C1635   1.411   .     S
C643   C665    1.411   .     A
C643   C652    1.425   .     A
C644   C666    1.415   .     A
C644   C653    1.414   .     A
C645   C667    1.414   .     A
C645   C162    1.413   1_655 S
C646   C141    1.423   1_655 S
C648   C1615   1.411   .     S
C649   C654    1.481   .     S
C649   O926    1.274   .     A
C649   O922    1.276   .     A
C650   C1620   1.411   1_545 S
C651   C1626   1.411   1_545 S
C651   C1644   1.451   1_545 S
C652   C671    1.483   .     S
C652   C1623   1.424   1_545 S
C655   C681    1.412   .     A
C656   C683    1.415   .     A
C656   C182    1.415   1_655 S
C657   C675    1.406   .     A
C657   C684    1.414   .     A
C658   C685    1.432   .     A
C658   C676    1.416   .     A
C658   C1620   1.418   1_545 S
C659   C686    1.412   .     A
C659   C673    1.407   .     A
C660   C1635   1.451   .     S
C660   O1907   1.269   .     S
C660   O1911   1.265   .     S
C661   C674    1.415   .     A
C661   C687    1.415   .     A
C662   C688    1.414   .     A
C662   C1659   1.406   1_545 S
C663   C689    1.432   .     A
C663   C1616   1.418   .     S
C663   C1660   1.416   .     S
C664   C690    1.426   .     A
C664   C1661   1.415   .     S
C665   C678    1.406   .     A
C665   C691    1.413   .     A
C666   C692    1.414   .     A
C666   C679    1.403   .     A
C667   C188    1.402   1_655 S
C668   C677    1.416   .     A
C669   C1662   1.403   .     S
C670   C187    1.418   1_655 S
C671   O929    1.280   .     A
C671   O924    1.274   .     A
C672   C680    1.415   .     A
C673   C163    1.407   1_655 S
C673   C182    1.402   1_655 S
C675   C1646   1.406   .     S
C675   C1660   1.397   .     S
C676   C1647   1.416   1_545 S
C676   C1659   1.397   1_545 S
C677   C1648   1.415   1_545 S
C677   C678    1.393   1_556 S
C678   C1653   1.403   1_545 S
C678   C677    1.393   1_554 S
C679   C680    1.408   1_556 S
C680   C679    1.408   1_554 S
C681   C687    1.405   .     A
C682   O958    1.275   .     A
C682   O930    1.275   .     A
C683   C686    1.405   .     A
C684   C689    1.427   .     A
C685   C688    1.427   .     A
C690   C497    1.419   1_556 S
C691   C496    1.409   1_554 S
C692   C499    1.430   1_556 S
H713   C62     1.112   1_655 S
H736   C1548   1.111   .     S
H767   C1561   1.111   1_545 S
H774   C580    1.109   1_554 S
H789   C587    1.110   1_554 S
H797   C590    1.110   1_556 S
H816   C1491   1.112   1_545 S
H821   C600    1.108   1_554 S
H848   C27     1.111   1_655 S
H861   C1504   1.111   .     S
H883   C1514   1.109   .     S
H885   C1514   1.109   .     S
O917   Zn969   1.933   .     S
O917   Zn972   1.934   .     S
O917   Zn980   1.932   .     S
O917   Zn1960  1.932   1_545 S
O918   Zn971   1.941   .     S
O918   C1588   1.271   .     S
O919   Zn974   1.942   .     S
O920   Zn973   1.942   .     S
O921   Zn983   1.942   .     S
O922   Zn982   1.942   .     S
O923   Zn977   1.941   .     S
O923   C1644   1.269   1_545 S
O924   Zn969   1.941   .     S
O925   Zn979   1.941   .     S
O926   Zn978   1.941   .     S
O927   Zn981   1.942   .     S
O927   C1644   1.265   1_545 S
O928   Zn981   1.932   .     S
O928   Zn975   1.932   .     S
O928   Zn977   1.933   .     S
O928   Zn1955  1.934   1_545 S
O929   Zn980   1.942   .     S
O930   Zn972   1.917   .     S
O931   Zn971   1.917   .     S
O932   Zn974   1.913   .     S
O933   Zn973   1.913   .     S
O934   Zn976   1.917   .     S
O935   Zn975   1.917   .     S
O936   Zn970   1.912   .     S
O937   Zn984   1.912   .     S
O938   Zn971   1.912   .     S
O939   Zn970   1.933   .     S
O939   Zn978   1.934   .     S
O939   Zn982   1.932   .     S
O940   Zn972   1.912   .     S
O941   Zn984   1.917   .     S
O942   Zn970   1.917   .     S
O943   Zn975   1.913   .     S
O944   Zn976   1.913   .     S
O945   Zn973   1.917   .     S
O946   Zn974   1.917   .     S
O947   Zn487   1.917   1_655 S
O948   Zn978   1.917   .     S
O949   Zn1965  1.913   .     S
O950   Zn973   1.932   .     S
O950   Zn979   1.934   .     S
O950   Zn983   1.932   .     S
O951   Zn980   1.913   .     S
O952   Zn983   1.917   .     S
O953   Zn490   1.917   1_655 S
O954   Zn977   1.912   .     S
O955   Zn1953  1.912   .     S
O956   Zn486   1.912   1_655 S
O957   Zn979   1.912   .     S
O958   Zn969   1.917   .     S
O959   Zn1961  1.917   .     S
O960   Zn982   1.913   .     S
O961   Zn976   1.942   .     S
O962   Zn491   1.913   1_655 S
O963   Zn1964  1.917   .     S
O964   Zn981   1.917   .     S
O965   Zn975   1.942   .     S
O966   Zn970   1.941   .     S
O967   Zn984   1.941   .     S
O967   C135    1.265   1_655 S
O968   Zn972   1.941   .     S
O968   C1477   1.270   1_545 S
Zn969  O1939   1.912   1_545 S
Zn971  O1912   1.934   .     S
Zn974  O447    1.932   1_655 S
Zn976  O1901   1.932   .     S
Zn977  O1943   1.917   1_545 S
Zn980  O1947   1.917   1_545 S
Zn981  O1933   1.913   1_545 S
Zn984  O458    1.933   1_655 S
C985   O1453   1.270   .     A
C985   C1140   1.462   .     S
C985   O476    1.270   1_565 S
C986   C1116   1.424   .     S
C986   O1423   1.275   .     A
C986   O1451   1.275   .     A
C987   C1081   1.529   .     S
C987   C1159   1.410   .     A
C987   C990    1.427   1_554 S
C988   C1084   1.531   .     S
C988   C1160   1.422   .     A
C988   C1183   1.409   1_556 S
C989   C1088   1.533   .     S
C989   C1161   1.418   .     A
C989   C1182   1.419   1_554 S
C990   C1091   1.525   .     S
C990   C1162   1.437   .     A
C990   C987    1.427   1_556 S
C991   C1094   1.527   .     S
C991   C1164   1.437   .     A
C991   C1184   1.430   1_554 S
C992   H1365   1.105   .     S
C992   C1121   1.529   .     S
C992   C993    1.539   .     S
C992   H1376   1.109   .     S
C993   C994    1.526   .     S
C993   H1354   1.112   .     S
C993   H1343   1.109   .     S
C994   H1296   1.111   .     S
C994   H1185   1.111   .     S
C994   H1332   1.110   .     S
C995   H1219   1.106   .     S
C995   C1122   1.532   .     S
C995   H1230   1.111   .     S
C995   C1488   1.537   1_455 S
C996   H1197   1.107   .     S
C996   H1208   1.112   .     S
C996   C998    1.527   .     S
C996   C1487   1.537   .     S
C997   O1448   1.274   .     A
C997   C1115   1.420   .     S
C997   O1424   1.275   .     A
C998   H1186   1.109   .     S
C998   H1387   1.111   .     S
C998   H1890   1.111   .     S
C999   H1297   1.109   .     S
C999   C1000   1.537   .     S
C999   C139    1.525   1_565 S
C999   H324    1.112   1_565 S
C1000  H1274   1.108   .     S
C1000  C1001   1.526   .     S
C1000  H1285   1.112   .     S
C1001  H1241   1.111   .     S
C1001  H1252   1.111   .     S
C1001  H1263   1.111   .     S
C1002  C1124   1.523   .     S
C1002  C1003   1.536   .     S
C1002  H1329   1.111   .     S
C1002  H1330   1.096   .     S
C1003  C1004   1.526   .     S
C1003  H1327   1.112   .     S
C1003  H1328   1.108   .     S
C1004  H1326   1.110   .     S
C1004  H1319   1.111   .     S
C1004  H1325   1.111   .     S
C1005  C1006   1.539   .     S
C1005  H1338   1.109   .     S
C1005  H1337   1.105   .     S
C1005  C1125   1.529   .     S
C1006  C1007   1.526   .     S
C1006  H1335   1.109   .     S
C1006  H1336   1.112   .     S
C1007  H1331   1.111   .     S
C1007  H1334   1.110   .     S
C1007  H1333   1.111   .     S
C1008  O1449   1.274   .     A
C1008  C1114   1.420   .     S
C1008  O1425   1.275   .     A
C1009  C1126   1.532   .     S
C1009  H1345   1.106   .     S
C1009  H1346   1.111   .     S
C1009  C1502   1.537   .     S
C1010  H1344   1.112   .     S
C1010  H1342   1.107   .     S
C1010  C1011   1.527   .     S
C1010  C1501   1.537   1_455 S
C1011  H1341   1.109   .     S
C1011  H1339   1.111   .     S
C1011  H1832   1.111   1_455 S
C1012  C1013   1.537   .     S
C1012  H1352   1.109   .     S
C1013  H1350   1.107   .     S
C1013  C1014   1.526   .     S
C1013  H1351   1.112   .     S
C1014  H1348   1.111   .     S
C1014  H1349   1.111   .     S
C1014  H1347   1.111   .     S
C1015  H1360   1.111   .     S
C1015  C1016   1.536   .     S
C1015  H1361   1.096   .     S
C1015  C1128   1.523   .     S
C1016  H1359   1.108   .     S
C1016  H1358   1.112   .     S
C1016  C1017   1.526   .     S
C1017  H1356   1.111   .     S
C1017  H1357   1.110   .     S
C1017  H1355   1.111   .     S
C1018  C1129   1.526   .     S
C1018  C1020   1.539   .     S
C1018  H1368   1.103   .     S
C1018  H1369   1.111   .     S
C1019  C1113   1.423   .     S
C1019  O1426   1.274   .     A
C1019  O1455   1.274   .     A
C1020  C1021   1.527   .     S
C1020  H1367   1.112   .     S
C1020  H1366   1.106   .     S
C1021  H1362   1.111   .     S
C1021  H1364   1.111   .     S
C1021  H1363   1.111   .     S
C1022  C1023   1.542   .     S
C1023  H1373   1.111   .     S
C1023  C1024   1.531   .     S
C1023  H1374   1.109   .     S
C1024  H1371   1.111   .     S
C1024  H1372   1.110   .     S
C1024  H1370   1.109   .     S
C1025  H1384   1.093   .     S
C1025  C1132   1.527   .     S
C1025  C1026   1.539   .     S
C1025  H1383   1.112   .     S
C1026  H1382   1.108   .     S
C1026  C1027   1.527   .     S
C1026  H1381   1.112   .     S
C1027  H1379   1.111   .     S
C1027  H1380   1.110   .     S
C1027  H1378   1.111   .     S
C1028  H1391   1.110   .     S
C1028  H1392   1.092   .     S
C1028  C1029   1.539   .     S
C1028  C1133   1.527   .     S
C1029  C1031   1.530   .     S
C1029  H1389   1.110   .     S
C1029  H1390   1.112   .     S
C1030  O1427   1.274   .     A
C1030  O1456   1.274   .     A
C1030  C1112   1.423   .     S
C1031  H1385   1.110   .     S
C1031  H1388   1.110   .     S
C1031  H1386   1.110   .     S
C1032  H1399   1.107   .     S
C1032  C1134   1.529   .     S
C1032  C1033   1.540   .     S
C1032  H1400   1.111   .     S
C1033  H1396   1.112   .     S
C1033  C1034   1.530   .     S
C1033  H1397   1.109   .     S
C1034  H1394   1.111   .     S
C1034  H1395   1.109   .     S
C1034  H1393   1.111   .     S
C1035  H1406   1.106   .     S
C1035  C1135   1.524   .     S
C1035  H1407   1.110   .     S
C1036  H1404   1.109   .     S
C1036  C1037   1.526   .     S
C1036  H1405   1.112   .     S
C1036  C51     1.539   1_565 S
C1037  H1401   1.111   .     S
C1037  H1403   1.110   .     S
C1037  H1402   1.111   .     S
C1038  C1136   1.528   .     S
C1038  C1039   1.537   .     S
C1038  H1192   1.111   .     S
C1038  H1191   1.107   .     S
C1039  H1190   1.112   .     S
C1039  C1040   1.527   .     S
C1039  H1189   1.109   .     S
C1040  H1408   1.111   .     S
C1040  H1187   1.111   .     S
C1040  H1188   1.110   .     S
C1041  O1428   1.274   .     A
C1041  O1452   1.274   .     A
C1041  C1120   1.420   .     S
C1042  C1137   1.530   .     S
C1042  H1199   1.108   .     S
C1042  C1043   1.537   .     S
C1042  H1200   1.111   .     S
C1043  C1044   1.526   .     S
C1043  H1198   1.112   .     S
C1043  H1196   1.108   .     S
C1044  H1193   1.111   .     S
C1044  H1195   1.111   .     S
C1044  H1194   1.111   .     S
C1045  C1173   1.522   .     S
C1045  H1206   1.109   .     S
C1045  C1046   1.536   .     S
C1045  H1207   1.105   .     S
C1046  C1047   1.528   .     S
C1046  H1204   1.110   .     S
C1046  H1697   1.112   1_455 S
C1047  H1203   1.110   .     S
C1047  H1201   1.111   .     S
C1047  H1202   1.111   .     S
C1048  H1215   1.108   .     S
C1048  C1049   1.537   .     S
C1048  H1214   1.108   .     S
C1048  C1175   1.524   .     S
C1049  H1213   1.112   .     S
C1049  C1050   1.527   .     S
C1049  H1212   1.108   .     S
C1050  H1211   1.109   .     S
C1050  H1209   1.110   .     S
C1050  H1210   1.111   .     S
C1051  H1222   1.104   .     S
C1051  C1176   1.530   .     S
C1051  H1223   1.101   .     S
C1051  C1053   1.539   .     S
C1052  O1429   1.274   .     A
C1052  C1118   1.420   .     S
C1052  O1454   1.274   .     A
C1053  H1220   1.109   .     S
C1053  C1054   1.526   .     S
C1053  H1221   1.112   .     S
C1054  H1217   1.111   .     S
C1054  H1216   1.110   .     S
C1054  H1218   1.106   .     S
C1055  H1231   1.107   .     S
C1055  H1229   1.109   .     S
C1055  C1056   1.543   .     S
C1055  C1177   1.526   .     S
C1056  H1227   1.104   .     S
C1056  C1057   1.527   .     S
C1057  H1226   1.109   .     S
C1057  H1224   1.111   .     S
C1057  H1225   1.111   .     S
C1058  C1178   1.522   .     S
C1058  H1238   1.105   .     S
C1058  H1237   1.109   .     S
C1058  C1059   1.536   .     S
C1059  C1060   1.528   .     S
C1059  H1235   1.110   .     S
C1059  H1728   1.112   .     S
C1060  H1234   1.110   .     S
C1060  H1232   1.111   .     S
C1060  H1233   1.111   .     S
C1061  H1245   1.108   .     S
C1061  C1179   1.524   .     S
C1061  C1062   1.537   .     S
C1061  H1246   1.108   .     S
C1062  H1243   1.108   .     S
C1062  C1064   1.527   .     S
C1062  H1244   1.112   .     S
C1063  C1109   1.420   .     S
C1063  O1430   1.274   .     A
C1063  O1441   1.275   .     A
C1064  H1240   1.111   .     S
C1064  H1242   1.109   .     S
C1064  H1239   1.110   .     S
C1065  H1254   1.101   .     S
C1065  H1253   1.104   .     S
C1065  C1180   1.530   .     S
C1065  C1066   1.539   .     S
C1066  H1251   1.112   .     S
C1066  C1067   1.526   .     S
C1066  H1250   1.109   .     S
C1067  H1249   1.106   .     S
C1067  H1247   1.110   .     S
C1067  H1248   1.111   .     S
C1068  H1260   1.109   .     S
C1068  C1181   1.526   .     S
C1068  C1069   1.543   .     S
C1068  H1261   1.107   .     S
C1069  C1070   1.527   .     S
C1069  H1258   1.104   .     S
C1069  H275    1.111   1_565 S
C1070  H1255   1.111   .     S
C1070  H1257   1.109   .     S
C1070  H1256   1.111   .     S
C1071  C1072   1.539   .     S
C1071  H1269   1.110   .     S
C1071  C1182   1.530   .     S
C1071  H1268   1.109   .     S
C1072  C1073   1.526   .     S
C1072  H1267   1.112   .     S
C1072  H1266   1.109   1_556 S
C1073  H1264   1.111   .     S
C1073  H1265   1.111   .     S
C1073  H1262   1.110   .     S
C1074  C1107   1.420   .     S
C1074  O1443   1.275   .     A
C1074  O1432   1.274   .     A
C1075  C1076   1.538   .     S
C1075  H1276   1.105   .     S
C1075  H1277   1.108   .     S
C1075  C1183   1.528   .     S
C1076  C1077   1.526   .     S
C1076  H1273   1.112   .     S
C1076  H1275   1.110   .     S
C1077  H1270   1.111   .     S
C1077  H1272   1.110   .     S
C1077  H1271   1.109   .     S
C1078  H1284   1.106   .     S
C1078  C1184   1.531   .     S
C1078  C1079   1.539   .     S
C1078  H1283   1.108   .     S
C1079  H1282   1.112   .     S
C1079  C1080   1.527   .     S
C1079  H1281   1.110   1_556 S
C1080  H1280   1.111   .     S
C1080  H1278   1.111   .     S
C1080  H1279   1.111   .     S
C1081  H1292   1.103   .     S
C1081  C1082   1.539   .     S
C1081  H1291   1.108   .     S
C1082  C1083   1.526   .     S
C1082  H1290   1.112   .     S
C1082  H1289   1.110   1_554 S
C1083  H1288   1.110   .     S
C1083  H1286   1.111   .     S
C1083  H1287   1.107   .     S
C1084  H1301   1.108   .     S
C1084  C1086   1.536   .     S
C1084  H1300   1.103   .     S
C1085  C1106   1.424   .     S
C1085  O1439   1.275   .     A
C1085  O1433   1.275   .     A
C1086  H1298   1.112   .     S
C1086  H1299   1.111   .     S
C1086  C1087   1.526   .     S
C1087  H1295   1.110   .     S
C1087  H1293   1.111   .     S
C1087  H1294   1.111   .     S
C1088  C1089   1.539   .     S
C1088  H1307   1.104   .     S
C1088  H1309   1.106   .     S
C1089  H1306   1.110   .     S
C1089  H1305   1.112   .     S
C1089  C1090   1.526   .     S
C1090  H1304   1.108   .     S
C1090  H1302   1.110   .     S
C1090  H1303   1.111   .     S
C1091  C1092   1.541   .     S
C1091  H1316   1.106   .     S
C1091  H1315   1.107   .     S
C1092  C1093   1.524   .     S
C1092  H1314   1.110   .     S
C1092  H1313   1.108   1_556 S
C1093  H1310   1.111   .     S
C1093  H1312   1.110   .     S
C1093  H1311   1.107   .     S
C1094  C1095   1.542   .     S
C1094  H1323   1.108   .     S
C1094  H1324   1.107   .     S
C1095  H1321   1.108   .     S
C1095  H1322   1.108   .     S
C1095  C1098   1.526   .     S
C1096  C1142   1.465   .     S
C1096  O1457   1.271   .     A
C1097  O1440   1.275   .     A
C1097  C1105   1.424   .     S
C1097  O1434   1.275   .     A
C1098  H1317   1.110   .     S
C1098  H1320   1.111   .     S
C1098  H1318   1.111   .     S
C1099  O1446   1.274   .     A
C1099  O1435   1.274   .     A
C1099  C1104   1.420   .     S
C1100  O1447   1.274   .     A
C1100  O1436   1.274   .     A
C1100  C1103   1.420   .     S
C1101  O1437   1.274   .     A
C1101  C1111   1.423   .     S
C1101  O1444   1.274   .     A
C1102  O1438   1.274   .     A
C1102  O1445   1.274   .     A
C1102  C1110   1.423   .     S
C1103  C1120   1.197   .     T
C1104  C1118   1.197   .     T
C1105  C1117   1.199   .     T
C1106  C1116   1.199   .     T
C1107  C1115   1.197   .     T
C1108  O1411   1.275   .     A
C1108  C1138   1.478   .     S
C1108  O1950   1.275   .     S
C1109  C1114   1.197   .     T
C1110  C1113   1.199   .     T
C1111  C1112   1.199   .     T
C1117  C1174   1.424   .     S
C1119  O1412   1.265   .     A
C1119  C1139   1.444   .     S
C1119  O1951   1.265   1_455 S
C1121  C1151   1.410   .     A
C1121  C1138   1.423   .     A
C1122  C1153   1.410   .     A
C1122  C1139   1.409   .     A
C1123  C1154   1.413   .     A
C1124  C1142   1.411   .     A
C1125  C1147   1.410   .     A
C1125  C1630   1.423   1_455 S
C1126  C1148   1.410   .     A
C1126  C1631   1.409   .     S
C1127  C1149   1.413   .     A
C1127  C1140   1.411   .     A
C1127  C28     1.525   1_565 S
C1128  C158    1.411   1_565 S
C1128  C166    1.418   1_565 S
C1129  C1143   1.407   .     A
C1129  C1160   1.408   .     A
C1130  C1145   1.479   .     S
C1130  O1413   1.274   .     A
C1130  O1417   1.275   .     A
C1131  C1161   1.408   .     A
C1131  C38     1.528   1_565 S
C1131  C160    1.424   1_565 S
C1132  C1162   1.428   .     A
C1132  C1637   1.418   .     S
C1133  C1146   1.422   .     A
C1133  C1164   1.430   .     A
C1134  C1156   1.414   .     A
C1134  C159    1.411   1_565 S
C1135  C1157   1.411   .     A
C1135  C1144   1.425   .     A
C1136  C1158   1.415   .     A
C1136  C1145   1.414   .     A
C1137  C1159   1.414   .     A
C1137  C1638   1.413   .     S
C1138  C1617   1.423   .     S
C1139  C1618   1.409   1_455 S
C1140  C139    1.411   1_565 S
C1141  C1146   1.481   .     S
C1141  O1418   1.274   .     A
C1141  O1414   1.276   .     A
C1144  C1163   1.483   .     S
C1145  C1624   1.418   1_455 S
C1146  C1629   1.413   1_455 S
C1147  C1173   1.412   .     A
C1147  C1657   1.407   1_455 S
C1148  C1175   1.415   .     A
C1148  C1658   1.415   .     S
C1149  C1167   1.406   .     A
C1149  C1176   1.414   .     A
C1150  C1177   1.432   .     A
C1150  C1168   1.416   .     A
C1151  C1178   1.412   .     A
C1151  C1165   1.407   .     A
C1152  C159    1.451   1_565 S
C1152  O431    1.269   1_565 S
C1152  O435    1.265   1_565 S
C1153  C1166   1.415   .     A
C1153  C1179   1.415   .     A
C1154  C1180   1.414   .     A
C1155  C1181   1.432   .     A
C1155  C140    1.418   1_565 S
C1155  C184    1.416   1_565 S
C1156  C1182   1.426   .     A
C1156  C185    1.415   1_565 S
C1157  C1170   1.406   .     A
C1157  C1183   1.413   .     A
C1158  C1184   1.414   .     A
C1158  C1171   1.403   .     A
C1159  C1664   1.402   .     S
C1160  C1169   1.416   .     A
C1161  C186    1.403   1_565 S
C1162  C1663   1.418   .     S
C1163  O1421   1.280   .     A
C1163  O1416   1.274   .     A
C1164  C1172   1.415   .     A
C1165  C1639   1.407   .     S
C1165  C1658   1.402   .     S
C1166  C1640   1.415   1_455 S
C1166  C1657   1.402   1_455 S
C1167  C170    1.406   1_565 S
C1167  C184    1.397   1_565 S
C1169  C1170   1.393   1_556 S
C1170  C1169   1.393   1_554 S
C1171  C1654   1.418   1_455 S
C1171  C1172   1.408   1_556 S
C1172  C1651   1.402   1_455 S
C1172  C1171   1.408   1_554 S
C1173  C1179   1.405   .     A
C1174  O1450   1.275   .     A
C1174  O1422   1.275   .     A
C1175  C1178   1.405   .     A
C1176  C1181   1.427   .     A
C1177  C1180   1.427   .     A
C1182  C989    1.419   1_556 S
C1183  C988    1.409   1_554 S
C1184  C991    1.430   1_556 S
H1205  C1538   1.112   .     S
H1228  C72     1.111   1_565 S
H1236  C1551   1.112   1_455 S
H1266  C1072   1.109   1_554 S
H1281  C1079   1.110   1_554 S
H1289  C1082   1.110   1_556 S
H1313  C1092   1.108   1_554 S
H1340  C1503   1.111   .     S
H1353  C28     1.111   1_565 S
H1375  C38     1.109   1_565 S
H1377  C38     1.109   1_565 S
H1398  C1490   1.111   1_455 S
O1409  Zn1461  1.933   .     S
O1409  Zn1464  1.934   .     S
O1409  Zn1472  1.932   .     S
O1410  Zn1463  1.941   .     S
O1410  C112    1.271   1_565 S
O1411  Zn1466  1.942   .     S
O1412  Zn1465  1.942   .     S
O1413  Zn1475  1.942   .     S
O1414  Zn1474  1.942   .     S
O1415  Zn1469  1.941   .     S
O1416  Zn1461  1.941   .     S
O1417  Zn1471  1.941   .     S
O1418  Zn1470  1.941   .     S
O1419  Zn1473  1.942   .     S
O1420  Zn1473  1.932   .     S
O1420  Zn1467  1.932   .     S
O1420  Zn1469  1.933   .     S
O1421  Zn1472  1.942   .     S
O1422  Zn1464  1.917   .     S
O1423  Zn1463  1.917   .     S
O1424  Zn1466  1.913   .     S
O1425  Zn1465  1.913   .     S
O1426  Zn1468  1.917   .     S
O1427  Zn1467  1.917   .     S
O1428  Zn1462  1.912   .     S
O1429  Zn1476  1.912   .     S
O1430  Zn1463  1.912   .     S
O1431  Zn1462  1.933   .     S
O1431  Zn1470  1.934   .     S
O1431  Zn1958  1.932   1_455 S
O1431  Zn1474  1.932   .     S
O1432  Zn1464  1.912   .     S
O1433  Zn1476  1.917   .     S
O1434  Zn1462  1.917   .     S
O1435  Zn1467  1.913   .     S
O1436  Zn1468  1.913   .     S
O1437  Zn1465  1.917   .     S
O1438  Zn1466  1.917   .     S
O1439  Zn1963  1.917   .     S
O1440  Zn1470  1.917   .     S
O1441  Zn489   1.913   1_565 S
O1442  Zn1465  1.932   .     S
O1442  Zn1471  1.934   .     S
O1442  Zn1475  1.932   .     S
O1442  Zn1968  1.933   1_455 S
O1443  Zn1472  1.913   .     S
O1444  Zn1475  1.917   .     S
O1445  Zn1966  1.917   .     S
O1446  Zn1469  1.912   .     S
O1447  Zn477   1.912   1_565 S
O1448  Zn1962  1.912   .     S
O1449  Zn1471  1.912   .     S
O1450  Zn1461  1.917   .     S
O1451  Zn485   1.917   1_565 S
O1452  Zn1474  1.913   .     S
O1453  Zn1468  1.942   .     S
O1454  Zn1967  1.913   .     S
O1455  Zn488   1.917   1_565 S
O1456  Zn1473  1.917   .     S
O1457  Zn1467  1.942   .     S
O1458  Zn1462  1.941   .     S
O1458  C1600   1.275   1_455 S
O1459  Zn1476  1.941   .     S
O1459  C1611   1.265   .     S
O1460  Zn1464  1.941   .     S
Zn1463 O436    1.934   1_565 S
Zn1466 O1923   1.932   .     S
Zn1468 O425    1.932   1_565 S
Zn1470 O1940   1.912   1_455 S
Zn1471 O1931   1.917   1_455 S
Zn1474 O1937   1.917   1_455 S
Zn1475 O1946   1.913   1_455 S
Zn1476 O1934   1.933   .     S
C1477  O1945   1.270   .     A
C1477  C1632   1.462   .     S
C1477  O968    1.270   1_565 S
C1478  C1608   1.424   .     S
C1478  O1915   1.275   .     A
C1478  O1943   1.275   .     A
C1479  C1573   1.529   .     S
C1479  C1651   1.410   .     A
C1479  C1482   1.427   1_554 S
C1480  C1576   1.531   .     S
C1480  C1652   1.422   .     A
C1480  C1675   1.409   1_556 S
C1481  C1580   1.533   .     S
C1481  C1653   1.418   .     A
C1481  C1674   1.419   1_554 S
C1482  C1583   1.525   .     S
C1482  C1654   1.437   .     A
C1482  C1479   1.427   1_556 S
C1483  C1586   1.527   .     S
C1483  C1656   1.437   .     A
C1483  C1676   1.430   1_554 S
C1484  H1857   1.105   .     S
C1484  C1613   1.529   .     S
C1484  C1485   1.539   .     S
C1484  H1868   1.109   .     S
C1485  C1486   1.526   .     S
C1485  H1846   1.112   .     S
C1485  H1835   1.109   .     S
C1486  H1788   1.111   .     S
C1486  H1677   1.111   .     S
C1486  H1824   1.110   .     S
C1487  H1711   1.106   .     S
C1487  C1614   1.532   .     S
C1487  H1722   1.111   .     S
C1488  H1689   1.107   .     S
C1488  H1700   1.112   .     S
C1488  C1490   1.527   .     S
C1488  C995    1.537   1_655 S
C1489  O1940   1.274   .     A
C1489  C1607   1.420   .     S
C1489  O1916   1.275   .     A
C1490  H1678   1.109   .     S
C1490  H1879   1.111   .     S
C1490  H1398   1.111   1_655 S
C1491  H1789   1.109   .     S
C1491  C1492   1.537   .     S
C1491  C631    1.525   1_565 S
C1491  H816    1.112   1_565 S
C1492  H1766   1.108   .     S
C1492  C1493   1.526   .     S
C1492  H1777   1.112   .     S
C1493  H1733   1.111   .     S
C1493  H1744   1.111   .     S
C1493  H1755   1.111   .     S
C1494  C1616   1.523   .     S
C1494  C1495   1.536   .     S
C1494  H1821   1.111   .     S
C1494  H1822   1.096   .     S
C1495  C1496   1.526   .     S
C1495  H1819   1.112   .     S
C1495  H1820   1.108   .     S
C1496  H1818   1.110   .     S
C1496  H1811   1.111   .     S
C1496  H1817   1.111   .     S
C1497  C1498   1.539   .     S
C1497  H1830   1.109   .     S
C1497  H1829   1.105   .     S
C1497  C1617   1.529   .     S
C1498  C1499   1.526   .     S
C1498  H1827   1.109   .     S
C1498  H1828   1.112   .     S
C1499  H1823   1.111   .     S
C1499  H1826   1.110   .     S
C1499  H1825   1.111   .     S
C1500  O1941   1.274   .     A
C1500  C1606   1.420   .     S
C1500  O1917   1.275   .     A
C1501  C1618   1.532   .     S
C1501  H1837   1.106   .     S
C1501  H1838   1.111   .     S
C1501  C1010   1.537   1_655 S
C1502  H1836   1.112   .     S
C1502  H1834   1.107   .     S
C1502  C1503   1.527   .     S
C1503  H1833   1.109   .     S
C1503  H1831   1.111   .     S
C1504  C1505   1.537   .     S
C1504  H1844   1.109   .     S
C1505  H1842   1.107   .     S
C1505  C1506   1.526   .     S
C1505  H1843   1.112   .     S
C1506  H1840   1.111   .     S
C1506  H1841   1.111   .     S
C1506  H1839   1.111   .     S
C1507  H1852   1.111   .     S
C1507  C1508   1.536   .     S
C1507  H1853   1.096   .     S
C1507  C1620   1.523   .     S
C1508  H1851   1.108   .     S
C1508  H1850   1.112   .     S
C1508  C1509   1.526   .     S
C1509  H1848   1.111   .     S
C1509  H1849   1.110   .     S
C1509  H1847   1.111   .     S
C1510  C1621   1.526   .     S
C1510  C1512   1.539   .     S
C1510  H1860   1.103   .     S
C1510  H1861   1.111   .     S
C1511  C1605   1.423   .     S
C1511  O1918   1.274   .     A
C1511  O1947   1.274   .     A
C1512  C1513   1.527   .     S
C1512  H1859   1.112   .     S
C1512  H1858   1.106   .     S
C1513  H1854   1.111   .     S
C1513  H1856   1.111   .     S
C1513  H1855   1.111   .     S
C1514  C1515   1.542   .     S
C1515  H1865   1.111   .     S
C1515  C1516   1.531   .     S
C1515  H1866   1.109   .     S
C1516  H1863   1.111   .     S
C1516  H1864   1.110   .     S
C1516  H1862   1.109   .     S
C1517  H1876   1.093   .     S
C1517  C1624   1.527   .     S
C1517  C1518   1.539   .     S
C1517  H1875   1.112   .     S
C1518  H1874   1.108   .     S
C1518  C1519   1.527   .     S
C1518  H1873   1.112   .     S
C1519  H1871   1.111   .     S
C1519  H1872   1.110   .     S
C1519  H1870   1.111   .     S
C1520  H1883   1.110   .     S
C1520  H1884   1.092   .     S
C1520  C1521   1.539   .     S
C1520  C1625   1.527   .     S
C1521  C1523   1.530   .     S
C1521  H1881   1.110   .     S
C1521  H1882   1.112   .     S
C1522  O1919   1.274   .     A
C1522  O1948   1.274   .     A
C1522  C1604   1.423   .     S
C1523  H1877   1.110   .     S
C1523  H1880   1.110   .     S
C1523  H1878   1.110   .     S
C1524  H1891   1.107   .     S
C1524  C1626   1.529   .     S
C1524  C1525   1.540   .     S
C1524  H1892   1.111   .     S
C1525  H1888   1.112   .     S
C1525  C1526   1.530   .     S
C1525  H1889   1.109   .     S
C1526  H1886   1.111   .     S
C1526  H1887   1.109   .     S
C1526  H1885   1.111   .     S
C1527  H1898   1.106   .     S
C1527  C1627   1.524   .     S
C1527  H1899   1.110   .     S
C1528  H1896   1.109   .     S
C1528  C1529   1.526   .     S
C1528  H1897   1.112   .     S
C1528  C543    1.539   1_565 S
C1529  H1893   1.111   .     S
C1529  H1895   1.110   .     S
C1529  H1894   1.111   .     S
C1530  C1628   1.528   .     S
C1530  C1531   1.537   .     S
C1530  H1684   1.111   .     S
C1530  H1683   1.107   .     S
C1531  H1682   1.112   .     S
C1531  C1532   1.527   .     S
C1531  H1681   1.109   .     S
C1532  H1900   1.111   .     S
C1532  H1679   1.111   .     S
C1532  H1680   1.110   .     S
C1533  O1920   1.274   .     A
C1533  O1944   1.274   .     A
C1533  C1612   1.420   .     S
C1534  C1629   1.530   .     S
C1534  H1691   1.108   .     S
C1534  C1535   1.537   .     S
C1534  H1692   1.111   .     S
C1535  C1536   1.526   .     S
C1535  H1690   1.112   .     S
C1535  H1688   1.108   .     S
C1536  H1685   1.111   .     S
C1536  H1687   1.111   .     S
C1536  H1686   1.111   .     S
C1537  C1665   1.522   .     S
C1537  H1698   1.109   .     S
C1537  C1538   1.536   .     S
C1537  H1699   1.105   .     S
C1538  C1539   1.528   .     S
C1538  H1696   1.110   .     S
C1539  H1695   1.110   .     S
C1539  H1693   1.111   .     S
C1539  H1694   1.111   .     S
C1540  H1707   1.108   .     S
C1540  C1541   1.537   .     S
C1540  H1706   1.108   .     S
C1540  C1667   1.524   .     S
C1541  H1705   1.112   .     S
C1541  C1542   1.527   .     S
C1541  H1704   1.108   .     S
C1542  H1703   1.109   .     S
C1542  H1701   1.110   .     S
C1542  H1702   1.111   .     S
C1543  H1714   1.104   .     S
C1543  C1668   1.530   .     S
C1543  H1715   1.101   .     S
C1543  C1545   1.539   .     S
C1544  O1921   1.274   .     A
C1544  C1610   1.420   .     S
C1544  O1946   1.274   .     A
C1545  H1712   1.109   .     S
C1545  C1546   1.526   .     S
C1545  H1713   1.112   .     S
C1546  H1709   1.111   .     S
C1546  H1708   1.110   .     S
C1546  H1710   1.106   .     S
C1547  H1723   1.107   .     S
C1547  H1721   1.109   .     S
C1547  C1548   1.543   .     S
C1547  C1669   1.526   .     S
C1548  H1719   1.104   .     S
C1548  C1549   1.527   .     S
C1549  H1718   1.109   .     S
C1549  H1716   1.111   .     S
C1549  H1717   1.111   .     S
C1550  C1670   1.522   .     S
C1550  H1730   1.105   .     S
C1550  H1729   1.109   .     S
C1550  C1551   1.536   .     S
C1551  C1552   1.528   .     S
C1551  H1727   1.110   .     S
C1551  H1236   1.112   1_655 S
C1552  H1726   1.110   .     S
C1552  H1724   1.111   .     S
C1552  H1725   1.111   .     S
C1553  H1737   1.108   .     S
C1553  C1671   1.524   .     S
C1553  C1554   1.537   .     S
C1553  H1738   1.108   .     S
C1554  H1735   1.108   .     S
C1554  C1556   1.527   .     S
C1554  H1736   1.112   .     S
C1555  C1601   1.420   .     S
C1555  O1922   1.274   .     A
C1555  O1933   1.275   .     A
C1556  H1732   1.111   .     S
C1556  H1734   1.109   .     S
C1556  H1731   1.110   .     S
C1557  H1746   1.101   .     S
C1557  H1745   1.104   .     S
C1557  C1672   1.530   .     S
C1557  C1558   1.539   .     S
C1558  H1743   1.112   .     S
C1558  C1559   1.526   .     S
C1558  H1742   1.109   .     S
C1559  H1741   1.106   .     S
C1559  H1739   1.110   .     S
C1559  H1740   1.111   .     S
C1560  H1752   1.109   .     S
C1560  C1673   1.526   .     S
C1560  C1561   1.543   .     S
C1560  H1753   1.107   .     S
C1561  C1562   1.527   .     S
C1561  H1750   1.104   .     S
C1561  H767    1.111   1_565 S
C1562  H1747   1.111   .     S
C1562  H1749   1.109   .     S
C1562  H1748   1.111   .     S
C1563  C1564   1.539   .     S
C1563  H1761   1.110   .     S
C1563  C1674   1.530   .     S
C1563  H1760   1.109   .     S
C1564  C1565   1.526   .     S
C1564  H1759   1.112   .     S
C1564  H1758   1.109   1_556 S
C1565  H1756   1.111   .     S
C1565  H1757   1.111   .     S
C1565  H1754   1.110   .     S
C1566  C1599   1.420   .     S
C1566  O1935   1.275   .     A
C1566  O1924   1.274   .     A
C1567  C1568   1.538   .     S
C1567  H1768   1.105   .     S
C1567  H1769   1.108   .     S
C1567  C1675   1.528   .     S
C1568  C1569   1.526   .     S
C1568  H1765   1.112   .     S
C1568  H1767   1.110   .     S
C1569  H1762   1.111   .     S
C1569  H1764   1.110   .     S
C1569  H1763   1.109   .     S
C1570  H1776   1.106   .     S
C1570  C1676   1.531   .     S
C1570  C1571   1.539   .     S
C1570  H1775   1.108   .     S
C1571  H1774   1.112   .     S
C1571  C1572   1.527   .     S
C1571  H1773   1.110   1_556 S
C1572  H1772   1.111   .     S
C1572  H1770   1.111   .     S
C1572  H1771   1.111   .     S
C1573  H1784   1.103   .     S
C1573  C1574   1.539   .     S
C1573  H1783   1.108   .     S
C1574  C1575   1.526   .     S
C1574  H1782   1.112   .     S
C1574  H1781   1.110   1_554 S
C1575  H1780   1.110   .     S
C1575  H1778   1.111   .     S
C1575  H1779   1.107   .     S
C1576  H1793   1.108   .     S
C1576  C1578   1.536   .     S
C1576  H1792   1.103   .     S
C1577  C1598   1.424   .     S
C1577  O1931   1.275   .     A
C1577  O1925   1.275   .     A
C1578  H1790   1.112   .     S
C1578  H1791   1.111   .     S
C1578  C1579   1.526   .     S
C1579  H1787   1.110   .     S
C1579  H1785   1.111   .     S
C1579  H1786   1.111   .     S
C1580  C1581   1.539   .     S
C1580  H1799   1.104   .     S
C1580  H1801   1.106   .     S
C1581  H1798   1.110   .     S
C1581  H1797   1.112   .     S
C1581  C1582   1.526   .     S
C1582  H1796   1.108   .     S
C1582  H1794   1.110   .     S
C1582  H1795   1.111   .     S
C1583  C1584   1.541   .     S
C1583  H1808   1.106   .     S
C1583  H1807   1.107   .     S
C1584  C1585   1.524   .     S
C1584  H1806   1.110   .     S
C1584  H1805   1.108   1_556 S
C1585  H1802   1.111   .     S
C1585  H1804   1.110   .     S
C1585  H1803   1.107   .     S
C1586  C1587   1.542   .     S
C1586  H1815   1.108   .     S
C1586  H1816   1.107   .     S
C1587  H1813   1.108   .     S
C1587  H1814   1.108   .     S
C1587  C1590   1.526   .     S
C1588  C1634   1.465   .     S
C1588  O1949   1.271   .     A
C1589  O1932   1.275   .     A
C1589  C1597   1.424   .     S
C1589  O1926   1.275   .     A
C1590  H1809   1.110   .     S
C1590  H1812   1.111   .     S
C1590  H1810   1.111   .     S
C1591  O1938   1.274   .     A
C1591  O1927   1.274   .     A
C1591  C1596   1.420   .     S
C1592  O1939   1.274   .     A
C1592  O1928   1.274   .     A
C1592  C1595   1.420   .     S
C1593  O1929   1.274   .     A
C1593  C1603   1.423   .     S
C1593  O1936   1.274   .     A
C1594  O1930   1.274   .     A
C1594  O1937   1.274   .     A
C1594  C1602   1.423   .     S
C1595  C1612   1.197   .     T
C1596  C1610   1.197   .     T
C1597  C1609   1.199   .     T
C1598  C1608   1.199   .     T
C1599  C1607   1.197   .     T
C1600  O1903   1.275   .     A
C1600  C1630   1.478   .     S
C1600  O1458   1.275   1_655 S
C1601  C1606   1.197   .     T
C1602  C1605   1.199   .     T
C1603  C1604   1.199   .     T
C1609  C1666   1.424   .     S
C1611  O1904   1.265   .     A
C1611  C1631   1.444   .     S
C1613  C1643   1.410   .     A
C1613  C1630   1.423   .     A
C1614  C1645   1.410   .     A
C1614  C1631   1.409   .     A
C1615  C1646   1.413   .     A
C1616  C1634   1.411   .     A
C1617  C1639   1.410   .     A
C1618  C1640   1.410   .     A
C1618  C1139   1.409   1_655 S
C1619  C1641   1.413   .     A
C1619  C1632   1.411   .     A
C1619  C520    1.525   1_565 S
C1620  C650    1.411   1_565 S
C1620  C658    1.418   1_565 S
C1621  C1635   1.407   .     A
C1621  C1652   1.408   .     A
C1622  C1637   1.479   .     S
C1622  O1905   1.274   .     A
C1622  O1909   1.275   .     A
C1623  C1653   1.408   .     A
C1623  C530    1.528   1_565 S
C1623  C652    1.424   1_565 S
C1624  C1654   1.428   .     A
C1624  C1145   1.418   1_655 S
C1625  C1638   1.422   .     A
C1625  C1656   1.430   .     A
C1626  C1648   1.414   .     A
C1626  C651    1.411   1_565 S
C1627  C1649   1.411   .     A
C1627  C1636   1.425   .     A
C1628  C1650   1.415   .     A
C1628  C1637   1.414   .     A
C1629  C1651   1.414   .     A
C1629  C1146   1.413   1_655 S
C1630  C1125   1.423   1_655 S
C1632  C631    1.411   1_565 S
C1633  C1638   1.481   .     S
C1633  O1910   1.274   .     A
C1633  O1906   1.276   .     A
C1636  C1655   1.483   .     S
C1639  C1665   1.412   .     A
C1640  C1667   1.415   .     A
C1640  C1166   1.415   1_655 S
C1641  C1659   1.406   .     A
C1641  C1668   1.414   .     A
C1642  C1669   1.432   .     A
C1642  C1660   1.416   .     A
C1643  C1670   1.412   .     A
C1643  C1657   1.407   .     A
C1644  C651    1.451   1_565 S
C1644  O923    1.269   1_565 S
C1644  O927    1.265   1_565 S
C1645  C1658   1.415   .     A
C1645  C1671   1.415   .     A
C1646  C1672   1.414   .     A
C1647  C1673   1.432   .     A
C1647  C632    1.418   1_565 S
C1647  C676    1.416   1_565 S
C1648  C1674   1.426   .     A
C1648  C677    1.415   1_565 S
C1649  C1662   1.406   .     A
C1649  C1675   1.413   .     A
C1650  C1676   1.414   .     A
C1650  C1663   1.403   .     A
C1651  C1172   1.402   1_655 S
C1652  C1661   1.416   .     A
C1653  C678    1.403   1_565 S
C1654  C1171   1.418   1_655 S
C1655  O1913   1.280   .     A
C1655  O1908   1.274   .     A
C1656  C1664   1.415   .     A
C1657  C1147   1.407   1_655 S
C1657  C1166   1.402   1_655 S
C1659  C662    1.406   1_565 S
C1659  C676    1.397   1_565 S
C1661  C1662   1.393   1_556 S
C1662  C1661   1.393   1_554 S
C1663  C1664   1.408   1_556 S
C1664  C1663   1.408   1_554 S
C1665  C1671   1.405   .     A
C1666  O1942   1.275   .     A
C1666  O1914   1.275   .     A
C1667  C1670   1.405   .     A
C1668  C1673   1.427   .     A
C1669  C1672   1.427   .     A
C1674  C1481   1.419   1_556 S
C1675  C1480   1.409   1_554 S
C1676  C1483   1.430   1_556 S
H1697  C1046   1.112   1_655 S
H1720  C564    1.111   1_565 S
H1758  C1564   1.109   1_554 S
H1773  C1571   1.110   1_554 S
H1781  C1574   1.110   1_556 S
H1805  C1584   1.108   1_554 S
H1832  C1011   1.111   1_655 S
H1845  C520    1.111   1_565 S
H1867  C530    1.109   1_565 S
H1869  C530    1.109   1_565 S
O1901  Zn1953  1.933   .     S
O1901  Zn1956  1.934   .     S
O1901  Zn1964  1.932   .     S
O1902  Zn1955  1.941   .     S
O1902  C604    1.271   1_565 S
O1903  Zn1958  1.942   .     S
O1904  Zn1957  1.942   .     S
O1905  Zn1967  1.942   .     S
O1906  Zn1966  1.942   .     S
O1907  Zn1961  1.941   .     S
O1908  Zn1953  1.941   .     S
O1909  Zn1963  1.941   .     S
O1910  Zn1962  1.941   .     S
O1911  Zn1965  1.942   .     S
O1912  Zn1965  1.932   .     S
O1912  Zn1959  1.932   .     S
O1912  Zn1961  1.933   .     S
O1913  Zn1964  1.942   .     S
O1914  Zn1956  1.917   .     S
O1915  Zn1955  1.917   .     S
O1916  Zn1958  1.913   .     S
O1917  Zn1957  1.913   .     S
O1918  Zn1960  1.917   .     S
O1919  Zn1959  1.917   .     S
O1920  Zn1954  1.912   .     S
O1921  Zn1968  1.912   .     S
O1922  Zn1955  1.912   .     S
O1923  Zn1954  1.933   .     S
O1923  Zn1962  1.934   .     S
O1923  Zn1966  1.932   .     S
O1924  Zn1956  1.912   .     S
O1925  Zn1968  1.917   .     S
O1926  Zn1954  1.917   .     S
O1927  Zn1959  1.913   .     S
O1928  Zn1960  1.913   .     S
O1929  Zn1957  1.917   .     S
O1930  Zn1958  1.917   .     S
O1931  Zn1471  1.917   1_655 S
O1932  Zn1962  1.917   .     S
O1933  Zn981   1.913   1_565 S
O1934  Zn1957  1.932   .     S
O1934  Zn1963  1.934   .     S
O1934  Zn1967  1.932   .     S
O1935  Zn1964  1.913   .     S
O1936  Zn1967  1.917   .     S
O1937  Zn1474  1.917   1_655 S
O1938  Zn1961  1.912   .     S
O1939  Zn969   1.912   1_565 S
O1940  Zn1470  1.912   1_655 S
O1941  Zn1963  1.912   .     S
O1942  Zn1953  1.917   .     S
O1943  Zn977   1.917   1_565 S
O1944  Zn1966  1.913   .     S
O1945  Zn1960  1.942   .     S
O1946  Zn1475  1.913   1_655 S
O1947  Zn980   1.917   1_565 S
O1948  Zn1965  1.917   .     S
O1949  Zn1959  1.942   .     S
O1950  Zn1954  1.941   .     S
O1951  Zn1968  1.941   .     S
O1951  C1119   1.265   1_655 S
O1952  Zn1956  1.941   .     S
Zn1955 O928    1.934   1_565 S
Zn1958 O1431   1.932   1_655 S
Zn1960 O917    1.932   1_565 S
Zn1968 O1442   1.933   1_655 S
