data_str_m1_o10_o18_pcu_sym.204
_audit_creation_date              2020-01-03
_audit_creation_method            'Materials Studio'
_symmetry_space_group_name_H-M    'P1'
_symmetry_Int_Tables_number       1
_symmetry_cell_setting            triclinic
loop_
_symmetry_equiv_pos_as_xyz
  x,y,z
_cell_length_a                    32.6487
_cell_length_b                    32.4517
_cell_length_c                    35.8834
_cell_angle_alpha                 98.0563
_cell_angle_beta                  72.8779
_cell_angle_gamma                 98.4156
loop_
_atom_site_label
_atom_site_type_symbol
_atom_site_fract_x
_atom_site_fract_y
_atom_site_fract_z
_atom_site_U_iso_or_equiv
_atom_site_adp_type
_atom_site_occupancy
C1     C     0.05273   0.16006   0.25886   0.00000  Uiso   1.00
C2     C     0.20776   0.14266   0.45943   0.00000  Uiso   1.00
C3     C     0.22557   0.11922   0.47894   0.00000  Uiso   1.00
C4     C     0.28101   0.17354   0.24134   0.00000  Uiso   1.00
C5     C     0.21193   0.12198   0.02029   0.00000  Uiso   1.00
C6     C     0.18851   0.15599   0.04103   0.00000  Uiso   1.00
C7     C     0.22126   0.09252   0.04168   0.00000  Uiso   1.00
C8     C     0.21132   0.09960   0.08262   0.00000  Uiso   1.00
C9     C     0.18713   0.16672   0.08096   0.00000  Uiso   1.00
C10    C     0.32706   0.17525   0.23770   0.00000  Uiso   1.00
C11    C     0.00731   0.15798   0.26355   0.00000  Uiso   1.00
C12    C     0.11969   0.23435   0.41725   0.00000  Uiso   1.00
C13    C     0.18061   0.32214   0.23792   0.00000  Uiso   1.00
C14    C     0.15163   0.01216   0.26228   0.00000  Uiso   1.00
C15    C     0.15589   0.05619   0.25897   0.00000  Uiso   1.00
C16    C     0.17677   0.27765   0.24130   0.00000  Uiso   1.00
C17    C     0.18808   0.14545   0.14417   0.00000  Uiso   1.00
C18    C     0.14521   0.18744   0.35618   0.00000  Uiso   1.00
C19    C     0.13823   0.19783   0.39875   0.00000  Uiso   1.00
C20    C     0.19629   0.13737   0.10179   0.00000  Uiso   1.00
C21    C     0.11337   0.24539   0.45753   0.00000  Uiso   1.00
C22    C     0.03101   0.23578   0.21425   0.00000  Uiso   1.00
C23    C     0.15117   0.17222   0.42098   0.00000  Uiso   1.00
C24    C     0.07384   0.25188   0.18639   0.00000  Uiso   1.00
C25    C     0.08334   0.29931   0.19359   0.00000  Uiso   1.00
C26    C     0.29820   0.11514   0.45355   0.00000  Uiso   1.00
C27    C     0.31411   0.13912   0.41710   0.00000  Uiso   1.00
C28    C     0.02826   0.15622   0.40985   0.00000  Uiso   1.00
C29    C     0.15298   0.18747   0.45940   0.00000  Uiso   1.00
C30    C     0.12971   0.22159   0.47882   0.00000  Uiso   1.00
C31    C     0.17563   0.16855   0.47967   0.00000  Uiso   1.00
C32    C     0.16795   0.17780   0.02079   0.00000  Uiso   1.00
C33    C     0.13780   0.20641   0.04026   0.00000  Uiso   1.00
C34    C     0.12147   0.22984   0.01949   0.00000  Uiso   1.00
H35    H     0.10056   0.25316   0.03582   0.00000  Uiso   1.00
H36    H     0.00452   0.25093   0.20993   0.00000  Uiso   1.00
H37    H     0.10031   0.23682   0.19081   0.00000  Uiso   1.00
H38    H     0.07279   0.24336   0.15555   0.00000  Uiso   1.00
H39    H     0.05816   0.31512   0.18786   0.00000  Uiso   1.00
H40    H     0.11513   0.30982   0.17363   0.00000  Uiso   1.00
H41    H     0.08432   0.30852   0.22433   0.00000  Uiso   1.00
H42    H     0.31870   0.15813   0.32257   0.00000  Uiso   1.00
H43    H     0.31800   0.11015   0.29732   0.00000  Uiso   1.00
H44    H     0.20823   0.22212   0.10700   0.00000  Uiso   1.00
H45    H     0.15465   0.20689   0.12480   0.00000  Uiso   1.00
H46    H     0.20728   0.00267   0.21548   0.00000  Uiso   1.00
H47    H     0.25114   0.06440   0.09495   0.00000  Uiso   1.00
H48    H     0.20014   0.04113   0.09968   0.00000  Uiso   1.00
H49    H     0.32029   0.09108   0.45040   0.00000  Uiso   1.00
H50    H     0.30042   0.13654   0.48030   0.00000  Uiso   1.00
H51    H     0.30986   0.11795   0.39102   0.00000  Uiso   1.00
H52    H     0.29503   0.16585   0.42103   0.00000  Uiso   1.00
H53    H     0.03324   0.17763   0.43553   0.00000  Uiso   1.00
H54    H     0.03858   0.17394   0.38369   0.00000  Uiso   1.00
H55    H     0.04855   0.13017   0.40444   0.00000  Uiso   1.00
H56    H     0.07879   0.29342   0.45742   0.00000  Uiso   1.00
H57    H     0.12465   0.33243   0.28490   0.00000  Uiso   1.00
H58    H     0.11443   0.30449   0.48384   0.00000  Uiso   1.00
H59    H     0.18235   0.12485   0.38458   0.00000  Uiso   1.00
H60    H     0.12753   0.11536   0.39895   0.00000  Uiso   1.00
H61    H     0.10912   0.25386   0.40050   0.00000  Uiso   1.00
H62    H     0.12527   0.21083   0.07164   0.00000  Uiso   1.00
H63    H     0.22033   0.14078   0.42798   0.00000  Uiso   1.00
H64    H     0.26975   0.05915   0.00792   0.00000  Uiso   1.00
H65    H     0.21917   0.03917   0.00443   0.00000  Uiso   1.00
H66    H     0.03303   0.24478   0.24492   0.00000  Uiso   1.00
N67    N     0.23729   0.05360   0.02330   0.00000  Uiso   1.00
N68    N     0.31171   0.14093   0.29785   0.00000  Uiso   1.00
N69    N     0.18043   0.20842   0.09933   0.00000  Uiso   1.00
N70    N     0.21858   0.06934   0.10492   0.00000  Uiso   1.00
N71    N     0.09143   0.28125   0.47665   0.00000  Uiso   1.00
N72    N     0.15472   0.12851   0.40794   0.00000  Uiso   1.00
O73    O     0.16667   0.16667   0.25000   0.00000  Uiso   1.00
O74    O     0.15693   0.12393   0.16625   0.00000  Uiso   1.00
O75    O     0.12687   0.20646   0.33749   0.00000  Uiso   1.00
O76    O     0.21088   0.17493   0.15877   0.00000  Uiso   1.00
O77    O     0.17198   0.16135   0.33749   0.00000  Uiso   1.00
O78    O     0.02362   0.19194   0.20568   0.00000  Uiso   1.00
O79    O     0.25637   0.09380   0.45666   0.00000  Uiso   1.00
O80    O     0.17849   0.08101   0.27821   0.00000  Uiso   1.00
O81    O     0.14581   0.26136   0.26767   0.00000  Uiso   1.00
O82    O     0.07452   0.13251   0.23607   0.00000  Uiso   1.00
O83    O     0.26785   0.19179   0.21805   0.00000  Uiso   1.00
O84    O     0.06990   0.18960   0.27820   0.00000  Uiso   1.00
O85    O     0.25440   0.15277   0.26767   0.00000  Uiso   1.00
O86    O     0.13800   0.06903   0.23607   0.00000  Uiso   1.00
O87    O     0.20437   0.25527   0.21806   0.00000  Uiso   1.00
Zn88   Zn    0.19244   0.14090   0.28278   0.00000  Uiso   1.00
Zn89   Zn    0.13459   0.12378   0.22258   0.00000  Uiso   1.00
Zn90   Zn    0.21166   0.19664   0.21188   0.00000  Uiso   1.00
Zn91   Zn    0.12798   0.20535   0.28277   0.00000  Uiso   1.00
C92    C     0.38606   0.16006   0.25886   0.00000  Uiso   1.00
C93    C     0.54109   0.14266   0.45943   0.00000  Uiso   1.00
C94    C     0.55890   0.11922   0.47894   0.00000  Uiso   1.00
C95    C     0.61435   0.17354   0.24134   0.00000  Uiso   1.00
C96    C     0.54527   0.12198   0.02029   0.00000  Uiso   1.00
C97    C     0.52185   0.15599   0.04103   0.00000  Uiso   1.00
C98    C     0.55459   0.09252   0.04168   0.00000  Uiso   1.00
C99    C     0.54465   0.09960   0.08262   0.00000  Uiso   1.00
C100   C     0.52047   0.16672   0.08096   0.00000  Uiso   1.00
C101   C     0.66039   0.17525   0.23770   0.00000  Uiso   1.00
C102   C     0.34064   0.15798   0.26355   0.00000  Uiso   1.00
C103   C     0.45302   0.23435   0.41725   0.00000  Uiso   1.00
C104   C     0.51394   0.32214   0.23792   0.00000  Uiso   1.00
C105   C     0.48496   0.01216   0.26228   0.00000  Uiso   1.00
C106   C     0.48923   0.05619   0.25897   0.00000  Uiso   1.00
C107   C     0.51011   0.27765   0.24130   0.00000  Uiso   1.00
C108   C     0.52141   0.14545   0.14417   0.00000  Uiso   1.00
C109   C     0.47854   0.18744   0.35618   0.00000  Uiso   1.00
C110   C     0.47156   0.19783   0.39875   0.00000  Uiso   1.00
C111   C     0.52962   0.13737   0.10179   0.00000  Uiso   1.00
C112   C     0.44671   0.24539   0.45753   0.00000  Uiso   1.00
C113   C     0.36434   0.23578   0.21425   0.00000  Uiso   1.00
C114   C     0.48450   0.17222   0.42098   0.00000  Uiso   1.00
C115   C     0.40717   0.25188   0.18639   0.00000  Uiso   1.00
C116   C     0.41667   0.29931   0.19359   0.00000  Uiso   1.00
C117   C     0.63154   0.11514   0.45355   0.00000  Uiso   1.00
C118   C     0.64745   0.13912   0.41710   0.00000  Uiso   1.00
C119   C     0.36159   0.15622   0.40985   0.00000  Uiso   1.00
C120   C     0.48631   0.18747   0.45940   0.00000  Uiso   1.00
C121   C     0.46305   0.22159   0.47882   0.00000  Uiso   1.00
C122   C     0.50897   0.16855   0.47967   0.00000  Uiso   1.00
C123   C     0.50128   0.17780   0.02079   0.00000  Uiso   1.00
C124   C     0.47114   0.20641   0.04026   0.00000  Uiso   1.00
C125   C     0.45481   0.22984   0.01949   0.00000  Uiso   1.00
H126   H     0.43389   0.25316   0.03582   0.00000  Uiso   1.00
H127   H     0.33786   0.25093   0.20993   0.00000  Uiso   1.00
H128   H     0.43364   0.23682   0.19081   0.00000  Uiso   1.00
H129   H     0.40612   0.24336   0.15555   0.00000  Uiso   1.00
H130   H     0.39149   0.31512   0.18786   0.00000  Uiso   1.00
H131   H     0.44846   0.30982   0.17363   0.00000  Uiso   1.00
H132   H     0.41766   0.30852   0.22433   0.00000  Uiso   1.00
H133   H     0.65203   0.15813   0.32257   0.00000  Uiso   1.00
H134   H     0.65133   0.11015   0.29732   0.00000  Uiso   1.00
H135   H     0.54157   0.22212   0.10700   0.00000  Uiso   1.00
H136   H     0.48798   0.20689   0.12480   0.00000  Uiso   1.00
H137   H     0.54061   0.00267   0.21548   0.00000  Uiso   1.00
H138   H     0.58447   0.06440   0.09495   0.00000  Uiso   1.00
H139   H     0.53347   0.04113   0.09968   0.00000  Uiso   1.00
H140   H     0.65362   0.09108   0.45040   0.00000  Uiso   1.00
H141   H     0.63375   0.13654   0.48030   0.00000  Uiso   1.00
H142   H     0.64319   0.11795   0.39102   0.00000  Uiso   1.00
H143   H     0.62837   0.16585   0.42103   0.00000  Uiso   1.00
H144   H     0.36657   0.17763   0.43553   0.00000  Uiso   1.00
H145   H     0.37191   0.17394   0.38369   0.00000  Uiso   1.00
H146   H     0.38188   0.13017   0.40444   0.00000  Uiso   1.00
H147   H     0.41213   0.29342   0.45742   0.00000  Uiso   1.00
H148   H     0.45798   0.33243   0.28490   0.00000  Uiso   1.00
H149   H     0.44776   0.30449   0.48384   0.00000  Uiso   1.00
H150   H     0.51568   0.12485   0.38458   0.00000  Uiso   1.00
H151   H     0.46087   0.11536   0.39895   0.00000  Uiso   1.00
H152   H     0.44245   0.25386   0.40050   0.00000  Uiso   1.00
H153   H     0.45861   0.21083   0.07164   0.00000  Uiso   1.00
H154   H     0.55367   0.14078   0.42798   0.00000  Uiso   1.00
H155   H     0.60308   0.05915   0.00792   0.00000  Uiso   1.00
H156   H     0.55250   0.03917   0.00443   0.00000  Uiso   1.00
H157   H     0.36637   0.24478   0.24492   0.00000  Uiso   1.00
N158   N     0.57062   0.05360   0.02330   0.00000  Uiso   1.00
N159   N     0.64504   0.14093   0.29785   0.00000  Uiso   1.00
N160   N     0.51376   0.20842   0.09933   0.00000  Uiso   1.00
N161   N     0.55192   0.06934   0.10492   0.00000  Uiso   1.00
N162   N     0.42476   0.28125   0.47665   0.00000  Uiso   1.00
N163   N     0.48806   0.12851   0.40794   0.00000  Uiso   1.00
O164   O     0.50000   0.16667   0.25000   0.00000  Uiso   1.00
O165   O     0.49027   0.12393   0.16625   0.00000  Uiso   1.00
O166   O     0.46020   0.20646   0.33749   0.00000  Uiso   1.00
O167   O     0.54421   0.17493   0.15877   0.00000  Uiso   1.00
O168   O     0.50532   0.16135   0.33749   0.00000  Uiso   1.00
O169   O     0.35696   0.19194   0.20568   0.00000  Uiso   1.00
O170   O     0.58970   0.09380   0.45666   0.00000  Uiso   1.00
O171   O     0.51182   0.08101   0.27821   0.00000  Uiso   1.00
O172   O     0.47914   0.26136   0.26767   0.00000  Uiso   1.00
O173   O     0.40785   0.13251   0.23607   0.00000  Uiso   1.00
O174   O     0.60119   0.19179   0.21805   0.00000  Uiso   1.00
O175   O     0.40323   0.18960   0.27820   0.00000  Uiso   1.00
O176   O     0.58773   0.15277   0.26767   0.00000  Uiso   1.00
O177   O     0.47133   0.06903   0.23607   0.00000  Uiso   1.00
O178   O     0.53771   0.25527   0.21806   0.00000  Uiso   1.00
Zn179  Zn    0.52577   0.14090   0.28278   0.00000  Uiso   1.00
Zn180  Zn    0.46792   0.12378   0.22258   0.00000  Uiso   1.00
Zn181  Zn    0.54500   0.19664   0.21188   0.00000  Uiso   1.00
Zn182  Zn    0.46131   0.20535   0.28277   0.00000  Uiso   1.00
C183   C     0.71939   0.16006   0.25886   0.00000  Uiso   1.00
C184   C     0.87443   0.14266   0.45943   0.00000  Uiso   1.00
C185   C     0.89224   0.11922   0.47894   0.00000  Uiso   1.00
C186   C     0.94768   0.17354   0.24134   0.00000  Uiso   1.00
C187   C     0.87860   0.12198   0.02029   0.00000  Uiso   1.00
C188   C     0.85518   0.15599   0.04103   0.00000  Uiso   1.00
C189   C     0.88793   0.09252   0.04168   0.00000  Uiso   1.00
C190   C     0.87798   0.09960   0.08262   0.00000  Uiso   1.00
C191   C     0.85380   0.16672   0.08096   0.00000  Uiso   1.00
C192   C     0.99373   0.17525   0.23770   0.00000  Uiso   1.00
C193   C     0.67398   0.15798   0.26355   0.00000  Uiso   1.00
C194   C     0.78636   0.23435   0.41725   0.00000  Uiso   1.00
C195   C     0.84727   0.32214   0.23792   0.00000  Uiso   1.00
C196   C     0.81830   0.01216   0.26228   0.00000  Uiso   1.00
C197   C     0.82256   0.05619   0.25897   0.00000  Uiso   1.00
C198   C     0.84344   0.27765   0.24130   0.00000  Uiso   1.00
C199   C     0.85475   0.14545   0.14417   0.00000  Uiso   1.00
C200   C     0.81187   0.18744   0.35618   0.00000  Uiso   1.00
C201   C     0.80490   0.19783   0.39875   0.00000  Uiso   1.00
C202   C     0.86295   0.13737   0.10179   0.00000  Uiso   1.00
C203   C     0.78004   0.24539   0.45753   0.00000  Uiso   1.00
C204   C     0.69767   0.23578   0.21425   0.00000  Uiso   1.00
C205   C     0.81783   0.17222   0.42098   0.00000  Uiso   1.00
C206   C     0.74050   0.25188   0.18639   0.00000  Uiso   1.00
C207   C     0.75000   0.29931   0.19359   0.00000  Uiso   1.00
C208   C     0.96487   0.11514   0.45355   0.00000  Uiso   1.00
C209   C     0.98078   0.13912   0.41710   0.00000  Uiso   1.00
C210   C     0.69492   0.15622   0.40985   0.00000  Uiso   1.00
C211   C     0.81964   0.18747   0.45940   0.00000  Uiso   1.00
C212   C     0.79638   0.22159   0.47882   0.00000  Uiso   1.00
C213   C     0.84230   0.16855   0.47967   0.00000  Uiso   1.00
C214   C     0.83462   0.17780   0.02079   0.00000  Uiso   1.00
C215   C     0.80447   0.20641   0.04026   0.00000  Uiso   1.00
C216   C     0.78814   0.22984   0.01949   0.00000  Uiso   1.00
H217   H     0.76723   0.25316   0.03582   0.00000  Uiso   1.00
H218   H     0.67119   0.25093   0.20993   0.00000  Uiso   1.00
H219   H     0.76698   0.23682   0.19081   0.00000  Uiso   1.00
H220   H     0.73946   0.24336   0.15555   0.00000  Uiso   1.00
H221   H     0.72482   0.31512   0.18786   0.00000  Uiso   1.00
H222   H     0.78179   0.30982   0.17363   0.00000  Uiso   1.00
H223   H     0.75099   0.30852   0.22433   0.00000  Uiso   1.00
H224   H     0.98536   0.15813   0.32257   0.00000  Uiso   1.00
H225   H     0.98466   0.11015   0.29732   0.00000  Uiso   1.00
H226   H     0.87490   0.22212   0.10700   0.00000  Uiso   1.00
H227   H     0.82131   0.20689   0.12480   0.00000  Uiso   1.00
H228   H     0.87395   0.00267   0.21548   0.00000  Uiso   1.00
H229   H     0.91781   0.06440   0.09495   0.00000  Uiso   1.00
H230   H     0.86680   0.04113   0.09968   0.00000  Uiso   1.00
H231   H     0.98695   0.09108   0.45040   0.00000  Uiso   1.00
H232   H     0.96709   0.13654   0.48030   0.00000  Uiso   1.00
H233   H     0.97653   0.11795   0.39102   0.00000  Uiso   1.00
H234   H     0.96170   0.16585   0.42103   0.00000  Uiso   1.00
H235   H     0.69991   0.17763   0.43553   0.00000  Uiso   1.00
H236   H     0.70525   0.17394   0.38369   0.00000  Uiso   1.00
H237   H     0.71522   0.13017   0.40444   0.00000  Uiso   1.00
H238   H     0.74546   0.29342   0.45742   0.00000  Uiso   1.00
H239   H     0.79132   0.33243   0.28490   0.00000  Uiso   1.00
H240   H     0.78110   0.30449   0.48384   0.00000  Uiso   1.00
H241   H     0.84901   0.12485   0.38458   0.00000  Uiso   1.00
H242   H     0.79420   0.11536   0.39895   0.00000  Uiso   1.00
H243   H     0.77579   0.25386   0.40050   0.00000  Uiso   1.00
H244   H     0.79194   0.21083   0.07164   0.00000  Uiso   1.00
H245   H     0.88700   0.14078   0.42798   0.00000  Uiso   1.00
H246   H     0.93641   0.05915   0.00792   0.00000  Uiso   1.00
H247   H     0.88584   0.03917   0.00443   0.00000  Uiso   1.00
H248   H     0.69970   0.24478   0.24492   0.00000  Uiso   1.00
N249   N     0.90395   0.05360   0.02330   0.00000  Uiso   1.00
N250   N     0.97838   0.14093   0.29785   0.00000  Uiso   1.00
N251   N     0.84709   0.20842   0.09933   0.00000  Uiso   1.00
N252   N     0.88525   0.06934   0.10492   0.00000  Uiso   1.00
N253   N     0.75809   0.28125   0.47665   0.00000  Uiso   1.00
N254   N     0.82139   0.12851   0.40794   0.00000  Uiso   1.00
O255   O     0.83333   0.16667   0.25000   0.00000  Uiso   1.00
O256   O     0.82360   0.12393   0.16625   0.00000  Uiso   1.00
O257   O     0.79354   0.20646   0.33749   0.00000  Uiso   1.00
O258   O     0.87755   0.17493   0.15877   0.00000  Uiso   1.00
O259   O     0.83865   0.16135   0.33749   0.00000  Uiso   1.00
O260   O     0.69029   0.19194   0.20568   0.00000  Uiso   1.00
O261   O     0.92303   0.09380   0.45666   0.00000  Uiso   1.00
O262   O     0.84515   0.08101   0.27821   0.00000  Uiso   1.00
O263   O     0.81247   0.26136   0.26767   0.00000  Uiso   1.00
O264   O     0.74119   0.13251   0.23607   0.00000  Uiso   1.00
O265   O     0.93452   0.19179   0.21805   0.00000  Uiso   1.00
O266   O     0.73656   0.18960   0.27820   0.00000  Uiso   1.00
O267   O     0.92106   0.15277   0.26767   0.00000  Uiso   1.00
O268   O     0.80467   0.06903   0.23607   0.00000  Uiso   1.00
O269   O     0.87104   0.25527   0.21806   0.00000  Uiso   1.00
Zn270  Zn    0.85910   0.14090   0.28278   0.00000  Uiso   1.00
Zn271  Zn    0.80125   0.12378   0.22258   0.00000  Uiso   1.00
Zn272  Zn    0.87833   0.19664   0.21188   0.00000  Uiso   1.00
Zn273  Zn    0.79465   0.20535   0.28277   0.00000  Uiso   1.00
C274   C     0.05273   0.49339   0.25886   0.00000  Uiso   1.00
C275   C     0.20776   0.47599   0.45943   0.00000  Uiso   1.00
C276   C     0.22557   0.45256   0.47894   0.00000  Uiso   1.00
C277   C     0.28101   0.50687   0.24134   0.00000  Uiso   1.00
C278   C     0.21193   0.45532   0.02029   0.00000  Uiso   1.00
C279   C     0.18851   0.48933   0.04103   0.00000  Uiso   1.00
C280   C     0.22126   0.42585   0.04168   0.00000  Uiso   1.00
C281   C     0.21132   0.43293   0.08262   0.00000  Uiso   1.00
C282   C     0.18713   0.50006   0.08096   0.00000  Uiso   1.00
C283   C     0.32706   0.50858   0.23770   0.00000  Uiso   1.00
C284   C     0.00731   0.49131   0.26355   0.00000  Uiso   1.00
C285   C     0.11969   0.56769   0.41725   0.00000  Uiso   1.00
C286   C     0.18061   0.65547   0.23792   0.00000  Uiso   1.00
C287   C     0.15163   0.34549   0.26228   0.00000  Uiso   1.00
C288   C     0.15589   0.38953   0.25897   0.00000  Uiso   1.00
C289   C     0.17677   0.61098   0.24130   0.00000  Uiso   1.00
C290   C     0.18808   0.47879   0.14417   0.00000  Uiso   1.00
C291   C     0.14521   0.52077   0.35618   0.00000  Uiso   1.00
C292   C     0.13823   0.53117   0.39875   0.00000  Uiso   1.00
C293   C     0.19629   0.47070   0.10179   0.00000  Uiso   1.00
C294   C     0.11337   0.57873   0.45753   0.00000  Uiso   1.00
C295   C     0.03101   0.56911   0.21425   0.00000  Uiso   1.00
C296   C     0.15117   0.50555   0.42098   0.00000  Uiso   1.00
C297   C     0.07384   0.58521   0.18639   0.00000  Uiso   1.00
C298   C     0.08334   0.63265   0.19359   0.00000  Uiso   1.00
C299   C     0.29820   0.44848   0.45355   0.00000  Uiso   1.00
C300   C     0.31411   0.47246   0.41710   0.00000  Uiso   1.00
C301   C     0.02826   0.48956   0.40985   0.00000  Uiso   1.00
C302   C     0.15298   0.52080   0.45940   0.00000  Uiso   1.00
C303   C     0.12971   0.55492   0.47882   0.00000  Uiso   1.00
C304   C     0.17563   0.50189   0.47967   0.00000  Uiso   1.00
C305   C     0.16795   0.51114   0.02079   0.00000  Uiso   1.00
C306   C     0.13780   0.53974   0.04026   0.00000  Uiso   1.00
C307   C     0.12147   0.56318   0.01949   0.00000  Uiso   1.00
H308   H     0.10056   0.58649   0.03582   0.00000  Uiso   1.00
H309   H     0.00452   0.58426   0.20993   0.00000  Uiso   1.00
H310   H     0.10031   0.57015   0.19081   0.00000  Uiso   1.00
H311   H     0.07279   0.57669   0.15555   0.00000  Uiso   1.00
H312   H     0.05816   0.64845   0.18786   0.00000  Uiso   1.00
H313   H     0.11513   0.64316   0.17363   0.00000  Uiso   1.00
H314   H     0.08432   0.64186   0.22433   0.00000  Uiso   1.00
H315   H     0.31870   0.49146   0.32257   0.00000  Uiso   1.00
H316   H     0.31800   0.44348   0.29732   0.00000  Uiso   1.00
H317   H     0.20823   0.55545   0.10700   0.00000  Uiso   1.00
H318   H     0.15465   0.54022   0.12480   0.00000  Uiso   1.00
H319   H     0.20728   0.33601   0.21548   0.00000  Uiso   1.00
H320   H     0.25114   0.39774   0.09495   0.00000  Uiso   1.00
H321   H     0.20014   0.37446   0.09968   0.00000  Uiso   1.00
H322   H     0.32029   0.42441   0.45040   0.00000  Uiso   1.00
H323   H     0.30042   0.46987   0.48030   0.00000  Uiso   1.00
H324   H     0.30986   0.45128   0.39102   0.00000  Uiso   1.00
H325   H     0.29503   0.49919   0.42103   0.00000  Uiso   1.00
H326   H     0.03324   0.51097   0.43553   0.00000  Uiso   1.00
H327   H     0.03858   0.50727   0.38369   0.00000  Uiso   1.00
H328   H     0.04855   0.46351   0.40444   0.00000  Uiso   1.00
H329   H     0.07879   0.62675   0.45742   0.00000  Uiso   1.00
H330   H     0.12465   0.66577   0.28490   0.00000  Uiso   1.00
H331   H     0.11443   0.63782   0.48384   0.00000  Uiso   1.00
H332   H     0.18235   0.45819   0.38458   0.00000  Uiso   1.00
H333   H     0.12753   0.44869   0.39895   0.00000  Uiso   1.00
H334   H     0.10912   0.58719   0.40050   0.00000  Uiso   1.00
H335   H     0.12527   0.54416   0.07164   0.00000  Uiso   1.00
H336   H     0.22033   0.47411   0.42798   0.00000  Uiso   1.00
H337   H     0.26975   0.39248   0.00792   0.00000  Uiso   1.00
H338   H     0.21917   0.37250   0.00443   0.00000  Uiso   1.00
H339   H     0.03303   0.57812   0.24492   0.00000  Uiso   1.00
N340   N     0.23729   0.38693   0.02330   0.00000  Uiso   1.00
N341   N     0.31171   0.47427   0.29785   0.00000  Uiso   1.00
N342   N     0.18043   0.54176   0.09933   0.00000  Uiso   1.00
N343   N     0.21858   0.40267   0.10492   0.00000  Uiso   1.00
N344   N     0.09143   0.61458   0.47665   0.00000  Uiso   1.00
N345   N     0.15472   0.46185   0.40794   0.00000  Uiso   1.00
O346   O     0.16667   0.50000   0.25000   0.00000  Uiso   1.00
O347   O     0.15693   0.45726   0.16625   0.00000  Uiso   1.00
O348   O     0.12687   0.53979   0.33749   0.00000  Uiso   1.00
O349   O     0.21088   0.50826   0.15877   0.00000  Uiso   1.00
O350   O     0.17198   0.49468   0.33749   0.00000  Uiso   1.00
O351   O     0.02362   0.52527   0.20568   0.00000  Uiso   1.00
O352   O     0.25637   0.42713   0.45666   0.00000  Uiso   1.00
O353   O     0.17849   0.41434   0.27821   0.00000  Uiso   1.00
O354   O     0.14581   0.59469   0.26767   0.00000  Uiso   1.00
O355   O     0.07452   0.46584   0.23607   0.00000  Uiso   1.00
O356   O     0.26785   0.52512   0.21805   0.00000  Uiso   1.00
O357   O     0.06990   0.52293   0.27820   0.00000  Uiso   1.00
O358   O     0.25440   0.48610   0.26767   0.00000  Uiso   1.00
O359   O     0.13800   0.40236   0.23607   0.00000  Uiso   1.00
O360   O     0.20437   0.58860   0.21806   0.00000  Uiso   1.00
Zn361  Zn    0.19244   0.47423   0.28278   0.00000  Uiso   1.00
Zn362  Zn    0.13459   0.45711   0.22258   0.00000  Uiso   1.00
Zn363  Zn    0.21166   0.52997   0.21188   0.00000  Uiso   1.00
Zn364  Zn    0.12798   0.53868   0.28277   0.00000  Uiso   1.00
C365   C     0.38606   0.49339   0.25886   0.00000  Uiso   1.00
C366   C     0.54109   0.47599   0.45943   0.00000  Uiso   1.00
C367   C     0.55890   0.45256   0.47894   0.00000  Uiso   1.00
C368   C     0.61435   0.50687   0.24134   0.00000  Uiso   1.00
C369   C     0.54527   0.45532   0.02029   0.00000  Uiso   1.00
C370   C     0.52185   0.48933   0.04103   0.00000  Uiso   1.00
C371   C     0.55459   0.42585   0.04168   0.00000  Uiso   1.00
C372   C     0.54465   0.43293   0.08262   0.00000  Uiso   1.00
C373   C     0.52047   0.50006   0.08096   0.00000  Uiso   1.00
C374   C     0.66039   0.50858   0.23770   0.00000  Uiso   1.00
C375   C     0.34064   0.49131   0.26355   0.00000  Uiso   1.00
C376   C     0.45302   0.56769   0.41725   0.00000  Uiso   1.00
C377   C     0.51394   0.65547   0.23792   0.00000  Uiso   1.00
C378   C     0.48496   0.34549   0.26228   0.00000  Uiso   1.00
C379   C     0.48923   0.38953   0.25897   0.00000  Uiso   1.00
C380   C     0.51011   0.61098   0.24130   0.00000  Uiso   1.00
C381   C     0.52141   0.47879   0.14417   0.00000  Uiso   1.00
C382   C     0.47854   0.52077   0.35618   0.00000  Uiso   1.00
C383   C     0.47156   0.53117   0.39875   0.00000  Uiso   1.00
C384   C     0.52962   0.47070   0.10179   0.00000  Uiso   1.00
C385   C     0.44671   0.57873   0.45753   0.00000  Uiso   1.00
C386   C     0.36434   0.56911   0.21425   0.00000  Uiso   1.00
C387   C     0.48450   0.50555   0.42098   0.00000  Uiso   1.00
C388   C     0.40717   0.58521   0.18639   0.00000  Uiso   1.00
C389   C     0.41667   0.63265   0.19359   0.00000  Uiso   1.00
C390   C     0.63154   0.44848   0.45355   0.00000  Uiso   1.00
C391   C     0.64745   0.47246   0.41710   0.00000  Uiso   1.00
C392   C     0.36159   0.48956   0.40985   0.00000  Uiso   1.00
C393   C     0.48631   0.52080   0.45940   0.00000  Uiso   1.00
C394   C     0.46305   0.55492   0.47882   0.00000  Uiso   1.00
C395   C     0.50897   0.50189   0.47967   0.00000  Uiso   1.00
C396   C     0.50128   0.51114   0.02079   0.00000  Uiso   1.00
C397   C     0.47114   0.53974   0.04026   0.00000  Uiso   1.00
C398   C     0.45481   0.56318   0.01949   0.00000  Uiso   1.00
H399   H     0.43389   0.58649   0.03582   0.00000  Uiso   1.00
H400   H     0.33786   0.58426   0.20993   0.00000  Uiso   1.00
H401   H     0.43364   0.57015   0.19081   0.00000  Uiso   1.00
H402   H     0.40612   0.57669   0.15555   0.00000  Uiso   1.00
H403   H     0.39149   0.64845   0.18786   0.00000  Uiso   1.00
H404   H     0.44846   0.64316   0.17363   0.00000  Uiso   1.00
H405   H     0.41766   0.64186   0.22433   0.00000  Uiso   1.00
H406   H     0.65203   0.49146   0.32257   0.00000  Uiso   1.00
H407   H     0.65133   0.44348   0.29732   0.00000  Uiso   1.00
H408   H     0.54157   0.55545   0.10700   0.00000  Uiso   1.00
H409   H     0.48798   0.54022   0.12480   0.00000  Uiso   1.00
H410   H     0.54061   0.33601   0.21548   0.00000  Uiso   1.00
H411   H     0.58447   0.39774   0.09495   0.00000  Uiso   1.00
H412   H     0.53347   0.37446   0.09968   0.00000  Uiso   1.00
H413   H     0.65362   0.42441   0.45040   0.00000  Uiso   1.00
H414   H     0.63375   0.46987   0.48030   0.00000  Uiso   1.00
H415   H     0.64319   0.45128   0.39102   0.00000  Uiso   1.00
H416   H     0.62837   0.49919   0.42103   0.00000  Uiso   1.00
H417   H     0.36657   0.51097   0.43553   0.00000  Uiso   1.00
H418   H     0.37191   0.50727   0.38369   0.00000  Uiso   1.00
H419   H     0.38188   0.46351   0.40444   0.00000  Uiso   1.00
H420   H     0.41213   0.62675   0.45742   0.00000  Uiso   1.00
H421   H     0.45798   0.66577   0.28490   0.00000  Uiso   1.00
H422   H     0.44776   0.63782   0.48384   0.00000  Uiso   1.00
H423   H     0.51568   0.45819   0.38458   0.00000  Uiso   1.00
H424   H     0.46087   0.44869   0.39895   0.00000  Uiso   1.00
H425   H     0.44245   0.58719   0.40050   0.00000  Uiso   1.00
H426   H     0.45861   0.54416   0.07164   0.00000  Uiso   1.00
H427   H     0.55367   0.47411   0.42798   0.00000  Uiso   1.00
H428   H     0.60308   0.39248   0.00792   0.00000  Uiso   1.00
H429   H     0.55250   0.37250   0.00443   0.00000  Uiso   1.00
H430   H     0.36637   0.57812   0.24492   0.00000  Uiso   1.00
N431   N     0.57062   0.38693   0.02330   0.00000  Uiso   1.00
N432   N     0.64504   0.47427   0.29785   0.00000  Uiso   1.00
N433   N     0.51376   0.54176   0.09933   0.00000  Uiso   1.00
N434   N     0.55192   0.40267   0.10492   0.00000  Uiso   1.00
N435   N     0.42476   0.61458   0.47665   0.00000  Uiso   1.00
N436   N     0.48806   0.46185   0.40794   0.00000  Uiso   1.00
O437   O     0.50000   0.50000   0.25000   0.00000  Uiso   1.00
O438   O     0.49027   0.45726   0.16625   0.00000  Uiso   1.00
O439   O     0.46020   0.53979   0.33749   0.00000  Uiso   1.00
O440   O     0.54421   0.50826   0.15877   0.00000  Uiso   1.00
O441   O     0.50532   0.49468   0.33749   0.00000  Uiso   1.00
O442   O     0.35696   0.52527   0.20568   0.00000  Uiso   1.00
O443   O     0.58970   0.42713   0.45666   0.00000  Uiso   1.00
O444   O     0.51182   0.41434   0.27821   0.00000  Uiso   1.00
O445   O     0.47914   0.59469   0.26767   0.00000  Uiso   1.00
O446   O     0.40785   0.46584   0.23607   0.00000  Uiso   1.00
O447   O     0.60119   0.52512   0.21805   0.00000  Uiso   1.00
O448   O     0.40323   0.52293   0.27820   0.00000  Uiso   1.00
O449   O     0.58773   0.48610   0.26767   0.00000  Uiso   1.00
O450   O     0.47133   0.40236   0.23607   0.00000  Uiso   1.00
O451   O     0.53771   0.58860   0.21806   0.00000  Uiso   1.00
Zn452  Zn    0.52577   0.47423   0.28278   0.00000  Uiso   1.00
Zn453  Zn    0.46792   0.45711   0.22258   0.00000  Uiso   1.00
Zn454  Zn    0.54500   0.52997   0.21188   0.00000  Uiso   1.00
Zn455  Zn    0.46131   0.53868   0.28277   0.00000  Uiso   1.00
C456   C     0.71939   0.49339   0.25886   0.00000  Uiso   1.00
C457   C     0.87443   0.47599   0.45943   0.00000  Uiso   1.00
C458   C     0.89224   0.45256   0.47894   0.00000  Uiso   1.00
C459   C     0.94768   0.50687   0.24134   0.00000  Uiso   1.00
C460   C     0.87860   0.45532   0.02029   0.00000  Uiso   1.00
C461   C     0.85518   0.48933   0.04103   0.00000  Uiso   1.00
C462   C     0.88793   0.42585   0.04168   0.00000  Uiso   1.00
C463   C     0.87798   0.43293   0.08262   0.00000  Uiso   1.00
C464   C     0.85380   0.50006   0.08096   0.00000  Uiso   1.00
C465   C     0.99373   0.50858   0.23770   0.00000  Uiso   1.00
C466   C     0.67398   0.49131   0.26355   0.00000  Uiso   1.00
C467   C     0.78636   0.56769   0.41725   0.00000  Uiso   1.00
C468   C     0.84727   0.65547   0.23792   0.00000  Uiso   1.00
C469   C     0.81830   0.34549   0.26228   0.00000  Uiso   1.00
C470   C     0.82256   0.38953   0.25897   0.00000  Uiso   1.00
C471   C     0.84344   0.61098   0.24130   0.00000  Uiso   1.00
C472   C     0.85475   0.47879   0.14417   0.00000  Uiso   1.00
C473   C     0.81187   0.52077   0.35618   0.00000  Uiso   1.00
C474   C     0.80490   0.53117   0.39875   0.00000  Uiso   1.00
C475   C     0.86295   0.47070   0.10179   0.00000  Uiso   1.00
C476   C     0.78004   0.57873   0.45753   0.00000  Uiso   1.00
C477   C     0.69767   0.56911   0.21425   0.00000  Uiso   1.00
C478   C     0.81783   0.50555   0.42098   0.00000  Uiso   1.00
C479   C     0.74050   0.58521   0.18639   0.00000  Uiso   1.00
C480   C     0.75000   0.63265   0.19359   0.00000  Uiso   1.00
C481   C     0.96487   0.44848   0.45355   0.00000  Uiso   1.00
C482   C     0.98078   0.47246   0.41710   0.00000  Uiso   1.00
C483   C     0.69492   0.48956   0.40985   0.00000  Uiso   1.00
C484   C     0.81964   0.52080   0.45940   0.00000  Uiso   1.00
C485   C     0.79638   0.55492   0.47882   0.00000  Uiso   1.00
C486   C     0.84230   0.50189   0.47967   0.00000  Uiso   1.00
C487   C     0.83462   0.51114   0.02079   0.00000  Uiso   1.00
C488   C     0.80447   0.53974   0.04026   0.00000  Uiso   1.00
C489   C     0.78814   0.56318   0.01949   0.00000  Uiso   1.00
H490   H     0.76723   0.58649   0.03582   0.00000  Uiso   1.00
H491   H     0.67119   0.58426   0.20993   0.00000  Uiso   1.00
H492   H     0.76698   0.57015   0.19081   0.00000  Uiso   1.00
H493   H     0.73946   0.57669   0.15555   0.00000  Uiso   1.00
H494   H     0.72482   0.64845   0.18786   0.00000  Uiso   1.00
H495   H     0.78179   0.64316   0.17363   0.00000  Uiso   1.00
H496   H     0.75099   0.64186   0.22433   0.00000  Uiso   1.00
H497   H     0.98536   0.49146   0.32257   0.00000  Uiso   1.00
H498   H     0.98466   0.44348   0.29732   0.00000  Uiso   1.00
H499   H     0.87490   0.55545   0.10700   0.00000  Uiso   1.00
H500   H     0.82131   0.54022   0.12480   0.00000  Uiso   1.00
H501   H     0.87395   0.33601   0.21548   0.00000  Uiso   1.00
H502   H     0.91781   0.39774   0.09495   0.00000  Uiso   1.00
H503   H     0.86680   0.37446   0.09968   0.00000  Uiso   1.00
H504   H     0.98695   0.42441   0.45040   0.00000  Uiso   1.00
H505   H     0.96709   0.46987   0.48030   0.00000  Uiso   1.00
H506   H     0.97653   0.45128   0.39102   0.00000  Uiso   1.00
H507   H     0.96170   0.49919   0.42103   0.00000  Uiso   1.00
H508   H     0.69991   0.51097   0.43553   0.00000  Uiso   1.00
H509   H     0.70525   0.50727   0.38369   0.00000  Uiso   1.00
H510   H     0.71522   0.46351   0.40444   0.00000  Uiso   1.00
H511   H     0.74546   0.62675   0.45742   0.00000  Uiso   1.00
H512   H     0.79132   0.66577   0.28490   0.00000  Uiso   1.00
H513   H     0.78110   0.63782   0.48384   0.00000  Uiso   1.00
H514   H     0.84901   0.45819   0.38458   0.00000  Uiso   1.00
H515   H     0.79420   0.44869   0.39895   0.00000  Uiso   1.00
H516   H     0.77579   0.58719   0.40050   0.00000  Uiso   1.00
H517   H     0.79194   0.54416   0.07164   0.00000  Uiso   1.00
H518   H     0.88700   0.47411   0.42798   0.00000  Uiso   1.00
H519   H     0.93641   0.39248   0.00792   0.00000  Uiso   1.00
H520   H     0.88584   0.37250   0.00443   0.00000  Uiso   1.00
H521   H     0.69970   0.57812   0.24492   0.00000  Uiso   1.00
N522   N     0.90395   0.38693   0.02330   0.00000  Uiso   1.00
N523   N     0.97838   0.47427   0.29785   0.00000  Uiso   1.00
N524   N     0.84709   0.54176   0.09933   0.00000  Uiso   1.00
N525   N     0.88525   0.40267   0.10492   0.00000  Uiso   1.00
N526   N     0.75809   0.61458   0.47665   0.00000  Uiso   1.00
N527   N     0.82139   0.46185   0.40794   0.00000  Uiso   1.00
O528   O     0.83333   0.50000   0.25000   0.00000  Uiso   1.00
O529   O     0.82360   0.45726   0.16625   0.00000  Uiso   1.00
O530   O     0.79354   0.53979   0.33749   0.00000  Uiso   1.00
O531   O     0.87755   0.50826   0.15877   0.00000  Uiso   1.00
O532   O     0.83865   0.49468   0.33749   0.00000  Uiso   1.00
O533   O     0.69029   0.52527   0.20568   0.00000  Uiso   1.00
O534   O     0.92303   0.42713   0.45666   0.00000  Uiso   1.00
O535   O     0.84515   0.41434   0.27821   0.00000  Uiso   1.00
O536   O     0.81247   0.59469   0.26767   0.00000  Uiso   1.00
O537   O     0.74119   0.46584   0.23607   0.00000  Uiso   1.00
O538   O     0.93452   0.52512   0.21805   0.00000  Uiso   1.00
O539   O     0.73656   0.52293   0.27820   0.00000  Uiso   1.00
O540   O     0.92106   0.48610   0.26767   0.00000  Uiso   1.00
O541   O     0.80467   0.40236   0.23607   0.00000  Uiso   1.00
O542   O     0.87104   0.58860   0.21806   0.00000  Uiso   1.00
Zn543  Zn    0.85910   0.47423   0.28278   0.00000  Uiso   1.00
Zn544  Zn    0.80125   0.45711   0.22258   0.00000  Uiso   1.00
Zn545  Zn    0.87833   0.52997   0.21188   0.00000  Uiso   1.00
Zn546  Zn    0.79465   0.53868   0.28277   0.00000  Uiso   1.00
C547   C     0.05273   0.82673   0.25886   0.00000  Uiso   1.00
C548   C     0.20776   0.80932   0.45943   0.00000  Uiso   1.00
C549   C     0.22557   0.78589   0.47894   0.00000  Uiso   1.00
C550   C     0.28101   0.84021   0.24134   0.00000  Uiso   1.00
C551   C     0.21193   0.78865   0.02029   0.00000  Uiso   1.00
C552   C     0.18851   0.82266   0.04103   0.00000  Uiso   1.00
C553   C     0.22126   0.75919   0.04168   0.00000  Uiso   1.00
C554   C     0.21132   0.76627   0.08262   0.00000  Uiso   1.00
C555   C     0.18713   0.83339   0.08096   0.00000  Uiso   1.00
C556   C     0.32706   0.84191   0.23770   0.00000  Uiso   1.00
C557   C     0.00731   0.82465   0.26355   0.00000  Uiso   1.00
C558   C     0.11969   0.90102   0.41725   0.00000  Uiso   1.00
C559   C     0.18061   0.98880   0.23792   0.00000  Uiso   1.00
C560   C     0.15163   0.67883   0.26228   0.00000  Uiso   1.00
C561   C     0.15589   0.72286   0.25897   0.00000  Uiso   1.00
C562   C     0.17677   0.94432   0.24130   0.00000  Uiso   1.00
C563   C     0.18808   0.81212   0.14417   0.00000  Uiso   1.00
C564   C     0.14521   0.85410   0.35618   0.00000  Uiso   1.00
C565   C     0.13823   0.86450   0.39875   0.00000  Uiso   1.00
C566   C     0.19629   0.80404   0.10179   0.00000  Uiso   1.00
C567   C     0.11337   0.91206   0.45753   0.00000  Uiso   1.00
C568   C     0.03101   0.90244   0.21425   0.00000  Uiso   1.00
C569   C     0.15117   0.83889   0.42098   0.00000  Uiso   1.00
C570   C     0.07384   0.91854   0.18639   0.00000  Uiso   1.00
C571   C     0.08334   0.96598   0.19359   0.00000  Uiso   1.00
C572   C     0.29820   0.78181   0.45355   0.00000  Uiso   1.00
C573   C     0.31411   0.80579   0.41710   0.00000  Uiso   1.00
C574   C     0.02826   0.82289   0.40985   0.00000  Uiso   1.00
C575   C     0.15298   0.85414   0.45940   0.00000  Uiso   1.00
C576   C     0.12971   0.88825   0.47882   0.00000  Uiso   1.00
C577   C     0.17563   0.83522   0.47967   0.00000  Uiso   1.00
C578   C     0.16795   0.84447   0.02079   0.00000  Uiso   1.00
C579   C     0.13780   0.87308   0.04026   0.00000  Uiso   1.00
C580   C     0.12147   0.89651   0.01949   0.00000  Uiso   1.00
H581   H     0.10056   0.91982   0.03582   0.00000  Uiso   1.00
H582   H     0.00452   0.91759   0.20993   0.00000  Uiso   1.00
H583   H     0.10031   0.90349   0.19081   0.00000  Uiso   1.00
H584   H     0.07279   0.91002   0.15555   0.00000  Uiso   1.00
H585   H     0.05816   0.98179   0.18786   0.00000  Uiso   1.00
H586   H     0.11513   0.97649   0.17363   0.00000  Uiso   1.00
H587   H     0.08432   0.97519   0.22433   0.00000  Uiso   1.00
H588   H     0.31870   0.82480   0.32257   0.00000  Uiso   1.00
H589   H     0.31800   0.77681   0.29732   0.00000  Uiso   1.00
H590   H     0.20823   0.88878   0.10700   0.00000  Uiso   1.00
H591   H     0.15465   0.87355   0.12480   0.00000  Uiso   1.00
H592   H     0.20728   0.66934   0.21548   0.00000  Uiso   1.00
H593   H     0.25114   0.73107   0.09495   0.00000  Uiso   1.00
H594   H     0.20014   0.70780   0.09968   0.00000  Uiso   1.00
H595   H     0.32029   0.75774   0.45040   0.00000  Uiso   1.00
H596   H     0.30042   0.80321   0.48030   0.00000  Uiso   1.00
H597   H     0.30986   0.78461   0.39102   0.00000  Uiso   1.00
H598   H     0.29503   0.83252   0.42103   0.00000  Uiso   1.00
H599   H     0.03324   0.84430   0.43553   0.00000  Uiso   1.00
H600   H     0.03858   0.84060   0.38369   0.00000  Uiso   1.00
H601   H     0.04855   0.79684   0.40444   0.00000  Uiso   1.00
H602   H     0.07879   0.96009   0.45742   0.00000  Uiso   1.00
H603   H     0.12465   0.99910   0.28490   0.00000  Uiso   1.00
H604   H     0.11443   0.97116   0.48384   0.00000  Uiso   1.00
H605   H     0.18235   0.79152   0.38458   0.00000  Uiso   1.00
H606   H     0.12753   0.78202   0.39895   0.00000  Uiso   1.00
H607   H     0.10912   0.92053   0.40050   0.00000  Uiso   1.00
H608   H     0.12527   0.87749   0.07164   0.00000  Uiso   1.00
H609   H     0.22033   0.80745   0.42798   0.00000  Uiso   1.00
H610   H     0.26975   0.72581   0.00792   0.00000  Uiso   1.00
H611   H     0.21917   0.70583   0.00443   0.00000  Uiso   1.00
H612   H     0.03303   0.91145   0.24492   0.00000  Uiso   1.00
N613   N     0.23729   0.72027   0.02330   0.00000  Uiso   1.00
N614   N     0.31171   0.80760   0.29785   0.00000  Uiso   1.00
N615   N     0.18043   0.87509   0.09933   0.00000  Uiso   1.00
N616   N     0.21858   0.73601   0.10492   0.00000  Uiso   1.00
N617   N     0.09143   0.94792   0.47665   0.00000  Uiso   1.00
N618   N     0.15472   0.79518   0.40794   0.00000  Uiso   1.00
O619   O     0.16667   0.83333   0.25000   0.00000  Uiso   1.00
O620   O     0.15693   0.79060   0.16625   0.00000  Uiso   1.00
O621   O     0.12687   0.87313   0.33749   0.00000  Uiso   1.00
O622   O     0.21088   0.84159   0.15877   0.00000  Uiso   1.00
O623   O     0.17198   0.82802   0.33749   0.00000  Uiso   1.00
O624   O     0.02362   0.85860   0.20568   0.00000  Uiso   1.00
O625   O     0.25637   0.76046   0.45666   0.00000  Uiso   1.00
O626   O     0.17849   0.74768   0.27821   0.00000  Uiso   1.00
O627   O     0.14581   0.92803   0.26767   0.00000  Uiso   1.00
O628   O     0.07452   0.79917   0.23607   0.00000  Uiso   1.00
O629   O     0.26785   0.85845   0.21805   0.00000  Uiso   1.00
O630   O     0.06990   0.85627   0.27820   0.00000  Uiso   1.00
O631   O     0.25440   0.81944   0.26767   0.00000  Uiso   1.00
O632   O     0.13800   0.73570   0.23607   0.00000  Uiso   1.00
O633   O     0.20437   0.92193   0.21806   0.00000  Uiso   1.00
Zn634  Zn    0.19244   0.80756   0.28278   0.00000  Uiso   1.00
Zn635  Zn    0.13459   0.79044   0.22258   0.00000  Uiso   1.00
Zn636  Zn    0.21166   0.86331   0.21188   0.00000  Uiso   1.00
Zn637  Zn    0.12798   0.87202   0.28277   0.00000  Uiso   1.00
C638   C     0.38606   0.82673   0.25886   0.00000  Uiso   1.00
C639   C     0.54109   0.80932   0.45943   0.00000  Uiso   1.00
C640   C     0.55890   0.78589   0.47894   0.00000  Uiso   1.00
C641   C     0.61435   0.84021   0.24134   0.00000  Uiso   1.00
C642   C     0.54527   0.78865   0.02029   0.00000  Uiso   1.00
C643   C     0.52185   0.82266   0.04103   0.00000  Uiso   1.00
C644   C     0.55459   0.75919   0.04168   0.00000  Uiso   1.00
C645   C     0.54465   0.76627   0.08262   0.00000  Uiso   1.00
C646   C     0.52047   0.83339   0.08096   0.00000  Uiso   1.00
C647   C     0.66039   0.84191   0.23770   0.00000  Uiso   1.00
C648   C     0.34064   0.82465   0.26355   0.00000  Uiso   1.00
C649   C     0.45302   0.90102   0.41725   0.00000  Uiso   1.00
C650   C     0.51394   0.98880   0.23792   0.00000  Uiso   1.00
C651   C     0.48496   0.67883   0.26228   0.00000  Uiso   1.00
C652   C     0.48923   0.72286   0.25897   0.00000  Uiso   1.00
C653   C     0.51011   0.94432   0.24130   0.00000  Uiso   1.00
C654   C     0.52141   0.81212   0.14417   0.00000  Uiso   1.00
C655   C     0.47854   0.85410   0.35618   0.00000  Uiso   1.00
C656   C     0.47156   0.86450   0.39875   0.00000  Uiso   1.00
C657   C     0.52962   0.80404   0.10179   0.00000  Uiso   1.00
C658   C     0.44671   0.91206   0.45753   0.00000  Uiso   1.00
C659   C     0.36434   0.90244   0.21425   0.00000  Uiso   1.00
C660   C     0.48450   0.83889   0.42098   0.00000  Uiso   1.00
C661   C     0.40717   0.91854   0.18639   0.00000  Uiso   1.00
C662   C     0.41667   0.96598   0.19359   0.00000  Uiso   1.00
C663   C     0.63154   0.78181   0.45355   0.00000  Uiso   1.00
C664   C     0.64745   0.80579   0.41710   0.00000  Uiso   1.00
C665   C     0.36159   0.82289   0.40985   0.00000  Uiso   1.00
C666   C     0.48631   0.85414   0.45940   0.00000  Uiso   1.00
C667   C     0.46305   0.88825   0.47882   0.00000  Uiso   1.00
C668   C     0.50897   0.83522   0.47967   0.00000  Uiso   1.00
C669   C     0.50128   0.84447   0.02079   0.00000  Uiso   1.00
C670   C     0.47114   0.87308   0.04026   0.00000  Uiso   1.00
C671   C     0.45481   0.89651   0.01949   0.00000  Uiso   1.00
H672   H     0.43389   0.91982   0.03582   0.00000  Uiso   1.00
H673   H     0.33786   0.91759   0.20993   0.00000  Uiso   1.00
H674   H     0.43364   0.90349   0.19081   0.00000  Uiso   1.00
H675   H     0.40612   0.91002   0.15555   0.00000  Uiso   1.00
H676   H     0.39149   0.98179   0.18786   0.00000  Uiso   1.00
H677   H     0.44846   0.97649   0.17363   0.00000  Uiso   1.00
H678   H     0.41766   0.97519   0.22433   0.00000  Uiso   1.00
H679   H     0.65203   0.82480   0.32257   0.00000  Uiso   1.00
H680   H     0.65133   0.77681   0.29732   0.00000  Uiso   1.00
H681   H     0.54157   0.88878   0.10700   0.00000  Uiso   1.00
H682   H     0.48798   0.87355   0.12480   0.00000  Uiso   1.00
H683   H     0.54061   0.66934   0.21548   0.00000  Uiso   1.00
H684   H     0.58447   0.73107   0.09495   0.00000  Uiso   1.00
H685   H     0.53347   0.70780   0.09968   0.00000  Uiso   1.00
H686   H     0.65362   0.75774   0.45040   0.00000  Uiso   1.00
H687   H     0.63375   0.80321   0.48030   0.00000  Uiso   1.00
H688   H     0.64319   0.78461   0.39102   0.00000  Uiso   1.00
H689   H     0.62837   0.83252   0.42103   0.00000  Uiso   1.00
H690   H     0.36657   0.84430   0.43553   0.00000  Uiso   1.00
H691   H     0.37191   0.84060   0.38369   0.00000  Uiso   1.00
H692   H     0.38188   0.79684   0.40444   0.00000  Uiso   1.00
H693   H     0.41213   0.96009   0.45742   0.00000  Uiso   1.00
H694   H     0.45798   0.99910   0.28490   0.00000  Uiso   1.00
H695   H     0.44776   0.97116   0.48384   0.00000  Uiso   1.00
H696   H     0.51568   0.79152   0.38458   0.00000  Uiso   1.00
H697   H     0.46087   0.78202   0.39895   0.00000  Uiso   1.00
H698   H     0.44245   0.92053   0.40050   0.00000  Uiso   1.00
H699   H     0.45861   0.87749   0.07164   0.00000  Uiso   1.00
H700   H     0.55367   0.80745   0.42798   0.00000  Uiso   1.00
H701   H     0.60308   0.72581   0.00792   0.00000  Uiso   1.00
H702   H     0.55250   0.70583   0.00443   0.00000  Uiso   1.00
H703   H     0.36637   0.91145   0.24492   0.00000  Uiso   1.00
N704   N     0.57062   0.72027   0.02330   0.00000  Uiso   1.00
N705   N     0.64504   0.80760   0.29785   0.00000  Uiso   1.00
N706   N     0.51376   0.87509   0.09933   0.00000  Uiso   1.00
N707   N     0.55192   0.73601   0.10492   0.00000  Uiso   1.00
N708   N     0.42476   0.94792   0.47665   0.00000  Uiso   1.00
N709   N     0.48806   0.79518   0.40794   0.00000  Uiso   1.00
O710   O     0.50000   0.83333   0.25000   0.00000  Uiso   1.00
O711   O     0.49027   0.79060   0.16625   0.00000  Uiso   1.00
O712   O     0.46020   0.87313   0.33749   0.00000  Uiso   1.00
O713   O     0.54421   0.84159   0.15877   0.00000  Uiso   1.00
O714   O     0.50532   0.82802   0.33749   0.00000  Uiso   1.00
O715   O     0.35696   0.85860   0.20568   0.00000  Uiso   1.00
O716   O     0.58970   0.76046   0.45666   0.00000  Uiso   1.00
O717   O     0.51182   0.74768   0.27821   0.00000  Uiso   1.00
O718   O     0.47914   0.92803   0.26767   0.00000  Uiso   1.00
O719   O     0.40785   0.79917   0.23607   0.00000  Uiso   1.00
O720   O     0.60119   0.85845   0.21805   0.00000  Uiso   1.00
O721   O     0.40323   0.85627   0.27820   0.00000  Uiso   1.00
O722   O     0.58773   0.81944   0.26767   0.00000  Uiso   1.00
O723   O     0.47133   0.73570   0.23607   0.00000  Uiso   1.00
O724   O     0.53771   0.92193   0.21806   0.00000  Uiso   1.00
Zn725  Zn    0.52577   0.80756   0.28278   0.00000  Uiso   1.00
Zn726  Zn    0.46792   0.79044   0.22258   0.00000  Uiso   1.00
Zn727  Zn    0.54500   0.86331   0.21188   0.00000  Uiso   1.00
Zn728  Zn    0.46131   0.87202   0.28277   0.00000  Uiso   1.00
C729   C     0.71939   0.82673   0.25886   0.00000  Uiso   1.00
C730   C     0.87443   0.80932   0.45943   0.00000  Uiso   1.00
C731   C     0.89224   0.78589   0.47894   0.00000  Uiso   1.00
C732   C     0.94768   0.84021   0.24134   0.00000  Uiso   1.00
C733   C     0.87860   0.78865   0.02029   0.00000  Uiso   1.00
C734   C     0.85518   0.82266   0.04103   0.00000  Uiso   1.00
C735   C     0.88793   0.75919   0.04168   0.00000  Uiso   1.00
C736   C     0.87798   0.76627   0.08262   0.00000  Uiso   1.00
C737   C     0.85380   0.83339   0.08096   0.00000  Uiso   1.00
C738   C     0.99373   0.84191   0.23770   0.00000  Uiso   1.00
C739   C     0.67398   0.82465   0.26355   0.00000  Uiso   1.00
C740   C     0.78636   0.90102   0.41725   0.00000  Uiso   1.00
C741   C     0.84727   0.98880   0.23792   0.00000  Uiso   1.00
C742   C     0.81830   0.67883   0.26228   0.00000  Uiso   1.00
C743   C     0.82256   0.72286   0.25897   0.00000  Uiso   1.00
C744   C     0.84344   0.94432   0.24130   0.00000  Uiso   1.00
C745   C     0.85475   0.81212   0.14417   0.00000  Uiso   1.00
C746   C     0.81187   0.85410   0.35618   0.00000  Uiso   1.00
C747   C     0.80490   0.86450   0.39875   0.00000  Uiso   1.00
C748   C     0.86295   0.80404   0.10179   0.00000  Uiso   1.00
C749   C     0.78004   0.91206   0.45753   0.00000  Uiso   1.00
C750   C     0.69767   0.90244   0.21425   0.00000  Uiso   1.00
C751   C     0.81783   0.83889   0.42098   0.00000  Uiso   1.00
C752   C     0.74050   0.91854   0.18639   0.00000  Uiso   1.00
C753   C     0.75000   0.96598   0.19359   0.00000  Uiso   1.00
C754   C     0.96487   0.78181   0.45355   0.00000  Uiso   1.00
C755   C     0.98078   0.80579   0.41710   0.00000  Uiso   1.00
C756   C     0.69492   0.82289   0.40985   0.00000  Uiso   1.00
C757   C     0.81964   0.85414   0.45940   0.00000  Uiso   1.00
C758   C     0.79638   0.88825   0.47882   0.00000  Uiso   1.00
C759   C     0.84230   0.83522   0.47967   0.00000  Uiso   1.00
C760   C     0.83462   0.84447   0.02079   0.00000  Uiso   1.00
C761   C     0.80447   0.87308   0.04026   0.00000  Uiso   1.00
C762   C     0.78814   0.89651   0.01949   0.00000  Uiso   1.00
H763   H     0.76723   0.91982   0.03582   0.00000  Uiso   1.00
H764   H     0.67119   0.91759   0.20993   0.00000  Uiso   1.00
H765   H     0.76698   0.90349   0.19081   0.00000  Uiso   1.00
H766   H     0.73946   0.91002   0.15555   0.00000  Uiso   1.00
H767   H     0.72482   0.98179   0.18786   0.00000  Uiso   1.00
H768   H     0.78179   0.97649   0.17363   0.00000  Uiso   1.00
H769   H     0.75099   0.97519   0.22433   0.00000  Uiso   1.00
H770   H     0.98536   0.82480   0.32257   0.00000  Uiso   1.00
H771   H     0.98466   0.77681   0.29732   0.00000  Uiso   1.00
H772   H     0.87490   0.88878   0.10700   0.00000  Uiso   1.00
H773   H     0.82131   0.87355   0.12480   0.00000  Uiso   1.00
H774   H     0.87395   0.66934   0.21548   0.00000  Uiso   1.00
H775   H     0.91781   0.73107   0.09495   0.00000  Uiso   1.00
H776   H     0.86680   0.70780   0.09968   0.00000  Uiso   1.00
H777   H     0.98695   0.75774   0.45040   0.00000  Uiso   1.00
H778   H     0.96709   0.80321   0.48030   0.00000  Uiso   1.00
H779   H     0.97653   0.78461   0.39102   0.00000  Uiso   1.00
H780   H     0.96170   0.83252   0.42103   0.00000  Uiso   1.00
H781   H     0.69991   0.84430   0.43553   0.00000  Uiso   1.00
H782   H     0.70525   0.84060   0.38369   0.00000  Uiso   1.00
H783   H     0.71522   0.79684   0.40444   0.00000  Uiso   1.00
H784   H     0.74546   0.96009   0.45742   0.00000  Uiso   1.00
H785   H     0.79132   0.99910   0.28490   0.00000  Uiso   1.00
H786   H     0.78110   0.97116   0.48384   0.00000  Uiso   1.00
H787   H     0.84901   0.79152   0.38458   0.00000  Uiso   1.00
H788   H     0.79420   0.78202   0.39895   0.00000  Uiso   1.00
H789   H     0.77579   0.92053   0.40050   0.00000  Uiso   1.00
H790   H     0.79194   0.87749   0.07164   0.00000  Uiso   1.00
H791   H     0.88700   0.80745   0.42798   0.00000  Uiso   1.00
H792   H     0.93641   0.72581   0.00792   0.00000  Uiso   1.00
H793   H     0.88584   0.70583   0.00443   0.00000  Uiso   1.00
H794   H     0.69970   0.91145   0.24492   0.00000  Uiso   1.00
N795   N     0.90395   0.72027   0.02330   0.00000  Uiso   1.00
N796   N     0.97838   0.80760   0.29785   0.00000  Uiso   1.00
N797   N     0.84709   0.87509   0.09933   0.00000  Uiso   1.00
N798   N     0.88525   0.73601   0.10492   0.00000  Uiso   1.00
N799   N     0.75809   0.94792   0.47665   0.00000  Uiso   1.00
N800   N     0.82139   0.79518   0.40794   0.00000  Uiso   1.00
O801   O     0.83333   0.83333   0.25000   0.00000  Uiso   1.00
O802   O     0.82360   0.79060   0.16625   0.00000  Uiso   1.00
O803   O     0.79354   0.87313   0.33749   0.00000  Uiso   1.00
O804   O     0.87755   0.84159   0.15877   0.00000  Uiso   1.00
O805   O     0.83865   0.82802   0.33749   0.00000  Uiso   1.00
O806   O     0.69029   0.85860   0.20568   0.00000  Uiso   1.00
O807   O     0.92303   0.76046   0.45666   0.00000  Uiso   1.00
O808   O     0.84515   0.74768   0.27821   0.00000  Uiso   1.00
O809   O     0.81247   0.92803   0.26767   0.00000  Uiso   1.00
O810   O     0.74119   0.79917   0.23607   0.00000  Uiso   1.00
O811   O     0.93452   0.85845   0.21805   0.00000  Uiso   1.00
O812   O     0.73656   0.85627   0.27820   0.00000  Uiso   1.00
O813   O     0.92106   0.81944   0.26767   0.00000  Uiso   1.00
O814   O     0.80467   0.73570   0.23607   0.00000  Uiso   1.00
O815   O     0.87104   0.92193   0.21806   0.00000  Uiso   1.00
Zn816  Zn    0.85910   0.80756   0.28278   0.00000  Uiso   1.00
Zn817  Zn    0.80125   0.79044   0.22258   0.00000  Uiso   1.00
Zn818  Zn    0.87833   0.86331   0.21188   0.00000  Uiso   1.00
Zn819  Zn    0.79465   0.87202   0.28277   0.00000  Uiso   1.00
C820   C     0.05273   0.16006   0.75886   0.00000  Uiso   1.00
C821   C     0.20776   0.14266   0.95943   0.00000  Uiso   1.00
C822   C     0.22557   0.11922   0.97894   0.00000  Uiso   1.00
C823   C     0.28101   0.17354   0.74134   0.00000  Uiso   1.00
C824   C     0.21193   0.12198   0.52029   0.00000  Uiso   1.00
C825   C     0.18851   0.15599   0.54103   0.00000  Uiso   1.00
C826   C     0.22126   0.09252   0.54168   0.00000  Uiso   1.00
C827   C     0.21132   0.09960   0.58262   0.00000  Uiso   1.00
C828   C     0.18713   0.16672   0.58096   0.00000  Uiso   1.00
C829   C     0.32706   0.17525   0.73770   0.00000  Uiso   1.00
C830   C     0.00731   0.15798   0.76355   0.00000  Uiso   1.00
C831   C     0.11969   0.23435   0.91725   0.00000  Uiso   1.00
C832   C     0.18061   0.32214   0.73792   0.00000  Uiso   1.00
C833   C     0.15163   0.01216   0.76228   0.00000  Uiso   1.00
C834   C     0.15589   0.05619   0.75897   0.00000  Uiso   1.00
C835   C     0.17677   0.27765   0.74130   0.00000  Uiso   1.00
C836   C     0.18808   0.14545   0.64417   0.00000  Uiso   1.00
C837   C     0.14521   0.18744   0.85618   0.00000  Uiso   1.00
C838   C     0.13823   0.19783   0.89875   0.00000  Uiso   1.00
C839   C     0.19629   0.13737   0.60179   0.00000  Uiso   1.00
C840   C     0.11337   0.24539   0.95753   0.00000  Uiso   1.00
C841   C     0.03101   0.23578   0.71425   0.00000  Uiso   1.00
C842   C     0.15117   0.17222   0.92098   0.00000  Uiso   1.00
C843   C     0.07384   0.25188   0.68639   0.00000  Uiso   1.00
C844   C     0.08334   0.29931   0.69359   0.00000  Uiso   1.00
C845   C     0.29820   0.11514   0.95355   0.00000  Uiso   1.00
C846   C     0.31411   0.13912   0.91710   0.00000  Uiso   1.00
C847   C     0.02826   0.15622   0.90985   0.00000  Uiso   1.00
C848   C     0.15298   0.18747   0.95940   0.00000  Uiso   1.00
C849   C     0.12971   0.22159   0.97882   0.00000  Uiso   1.00
C850   C     0.17563   0.16855   0.97967   0.00000  Uiso   1.00
C851   C     0.16795   0.17780   0.52079   0.00000  Uiso   1.00
C852   C     0.13780   0.20641   0.54026   0.00000  Uiso   1.00
C853   C     0.12147   0.22984   0.51949   0.00000  Uiso   1.00
H854   H     0.10056   0.25316   0.53582   0.00000  Uiso   1.00
H855   H     0.00452   0.25093   0.70993   0.00000  Uiso   1.00
H856   H     0.10031   0.23682   0.69081   0.00000  Uiso   1.00
H857   H     0.07279   0.24336   0.65555   0.00000  Uiso   1.00
H858   H     0.05816   0.31512   0.68786   0.00000  Uiso   1.00
H859   H     0.11513   0.30982   0.67363   0.00000  Uiso   1.00
H860   H     0.08432   0.30852   0.72433   0.00000  Uiso   1.00
H861   H     0.31870   0.15813   0.82257   0.00000  Uiso   1.00
H862   H     0.31800   0.11015   0.79732   0.00000  Uiso   1.00
H863   H     0.20823   0.22212   0.60700   0.00000  Uiso   1.00
H864   H     0.15465   0.20689   0.62480   0.00000  Uiso   1.00
H865   H     0.20728   0.00267   0.71548   0.00000  Uiso   1.00
H866   H     0.25114   0.06440   0.59495   0.00000  Uiso   1.00
H867   H     0.20014   0.04113   0.59968   0.00000  Uiso   1.00
H868   H     0.32029   0.09108   0.95040   0.00000  Uiso   1.00
H869   H     0.30042   0.13654   0.98030   0.00000  Uiso   1.00
H870   H     0.30986   0.11795   0.89102   0.00000  Uiso   1.00
H871   H     0.29503   0.16585   0.92103   0.00000  Uiso   1.00
H872   H     0.03324   0.17763   0.93553   0.00000  Uiso   1.00
H873   H     0.03858   0.17394   0.88369   0.00000  Uiso   1.00
H874   H     0.04855   0.13017   0.90444   0.00000  Uiso   1.00
H875   H     0.07879   0.29342   0.95742   0.00000  Uiso   1.00
H876   H     0.12465   0.33243   0.78490   0.00000  Uiso   1.00
H877   H     0.11443   0.30449   0.98384   0.00000  Uiso   1.00
H878   H     0.18235   0.12485   0.88458   0.00000  Uiso   1.00
H879   H     0.12753   0.11536   0.89895   0.00000  Uiso   1.00
H880   H     0.10912   0.25386   0.90050   0.00000  Uiso   1.00
H881   H     0.12527   0.21083   0.57164   0.00000  Uiso   1.00
H882   H     0.22033   0.14078   0.92798   0.00000  Uiso   1.00
H883   H     0.26975   0.05915   0.50792   0.00000  Uiso   1.00
H884   H     0.21917   0.03917   0.50443   0.00000  Uiso   1.00
H885   H     0.03303   0.24478   0.74492   0.00000  Uiso   1.00
N886   N     0.23729   0.05360   0.52330   0.00000  Uiso   1.00
N887   N     0.31171   0.14093   0.79785   0.00000  Uiso   1.00
N888   N     0.18043   0.20842   0.59933   0.00000  Uiso   1.00
N889   N     0.21858   0.06934   0.60492   0.00000  Uiso   1.00
N890   N     0.09143   0.28125   0.97665   0.00000  Uiso   1.00
N891   N     0.15472   0.12851   0.90794   0.00000  Uiso   1.00
O892   O     0.16667   0.16667   0.75000   0.00000  Uiso   1.00
O893   O     0.15693   0.12393   0.66625   0.00000  Uiso   1.00
O894   O     0.12687   0.20646   0.83749   0.00000  Uiso   1.00
O895   O     0.21088   0.17493   0.65877   0.00000  Uiso   1.00
O896   O     0.17198   0.16135   0.83749   0.00000  Uiso   1.00
O897   O     0.02362   0.19194   0.70568   0.00000  Uiso   1.00
O898   O     0.25637   0.09380   0.95666   0.00000  Uiso   1.00
O899   O     0.17849   0.08101   0.77821   0.00000  Uiso   1.00
O900   O     0.14581   0.26136   0.76767   0.00000  Uiso   1.00
O901   O     0.07452   0.13251   0.73607   0.00000  Uiso   1.00
O902   O     0.26785   0.19179   0.71805   0.00000  Uiso   1.00
O903   O     0.06990   0.18960   0.77820   0.00000  Uiso   1.00
O904   O     0.25440   0.15277   0.76767   0.00000  Uiso   1.00
O905   O     0.13800   0.06903   0.73607   0.00000  Uiso   1.00
O906   O     0.20437   0.25527   0.71806   0.00000  Uiso   1.00
Zn907  Zn    0.19244   0.14090   0.78278   0.00000  Uiso   1.00
Zn908  Zn    0.13459   0.12378   0.72258   0.00000  Uiso   1.00
Zn909  Zn    0.21166   0.19664   0.71188   0.00000  Uiso   1.00
Zn910  Zn    0.12798   0.20535   0.78277   0.00000  Uiso   1.00
C911   C     0.38606   0.16006   0.75886   0.00000  Uiso   1.00
C912   C     0.54109   0.14266   0.95943   0.00000  Uiso   1.00
C913   C     0.55890   0.11922   0.97894   0.00000  Uiso   1.00
C914   C     0.61435   0.17354   0.74134   0.00000  Uiso   1.00
C915   C     0.54527   0.12198   0.52029   0.00000  Uiso   1.00
C916   C     0.52185   0.15599   0.54103   0.00000  Uiso   1.00
C917   C     0.55459   0.09252   0.54168   0.00000  Uiso   1.00
C918   C     0.54465   0.09960   0.58262   0.00000  Uiso   1.00
C919   C     0.52047   0.16672   0.58096   0.00000  Uiso   1.00
C920   C     0.66039   0.17525   0.73770   0.00000  Uiso   1.00
C921   C     0.34064   0.15798   0.76355   0.00000  Uiso   1.00
C922   C     0.45302   0.23435   0.91725   0.00000  Uiso   1.00
C923   C     0.51394   0.32214   0.73792   0.00000  Uiso   1.00
C924   C     0.48496   0.01216   0.76228   0.00000  Uiso   1.00
C925   C     0.48923   0.05619   0.75897   0.00000  Uiso   1.00
C926   C     0.51011   0.27765   0.74130   0.00000  Uiso   1.00
C927   C     0.52141   0.14545   0.64417   0.00000  Uiso   1.00
C928   C     0.47854   0.18744   0.85618   0.00000  Uiso   1.00
C929   C     0.47156   0.19783   0.89875   0.00000  Uiso   1.00
C930   C     0.52962   0.13737   0.60179   0.00000  Uiso   1.00
C931   C     0.44671   0.24539   0.95753   0.00000  Uiso   1.00
C932   C     0.36434   0.23578   0.71425   0.00000  Uiso   1.00
C933   C     0.48450   0.17222   0.92098   0.00000  Uiso   1.00
C934   C     0.40717   0.25188   0.68639   0.00000  Uiso   1.00
C935   C     0.41667   0.29931   0.69359   0.00000  Uiso   1.00
C936   C     0.63154   0.11514   0.95355   0.00000  Uiso   1.00
C937   C     0.64745   0.13912   0.91710   0.00000  Uiso   1.00
C938   C     0.36159   0.15622   0.90985   0.00000  Uiso   1.00
C939   C     0.48631   0.18747   0.95940   0.00000  Uiso   1.00
C940   C     0.46305   0.22159   0.97882   0.00000  Uiso   1.00
C941   C     0.50897   0.16855   0.97967   0.00000  Uiso   1.00
C942   C     0.50128   0.17780   0.52079   0.00000  Uiso   1.00
C943   C     0.47114   0.20641   0.54026   0.00000  Uiso   1.00
C944   C     0.45481   0.22984   0.51949   0.00000  Uiso   1.00
H945   H     0.43389   0.25316   0.53582   0.00000  Uiso   1.00
H946   H     0.33786   0.25093   0.70993   0.00000  Uiso   1.00
H947   H     0.43364   0.23682   0.69081   0.00000  Uiso   1.00
H948   H     0.40612   0.24336   0.65555   0.00000  Uiso   1.00
H949   H     0.39149   0.31512   0.68786   0.00000  Uiso   1.00
H950   H     0.44846   0.30982   0.67363   0.00000  Uiso   1.00
H951   H     0.41766   0.30852   0.72433   0.00000  Uiso   1.00
H952   H     0.65203   0.15813   0.82257   0.00000  Uiso   1.00
H953   H     0.65133   0.11015   0.79732   0.00000  Uiso   1.00
H954   H     0.54157   0.22212   0.60700   0.00000  Uiso   1.00
H955   H     0.48798   0.20689   0.62480   0.00000  Uiso   1.00
H956   H     0.54061   0.00267   0.71548   0.00000  Uiso   1.00
H957   H     0.58447   0.06440   0.59495   0.00000  Uiso   1.00
H958   H     0.53347   0.04113   0.59968   0.00000  Uiso   1.00
H959   H     0.65362   0.09108   0.95040   0.00000  Uiso   1.00
H960   H     0.63375   0.13654   0.98030   0.00000  Uiso   1.00
H961   H     0.64319   0.11795   0.89102   0.00000  Uiso   1.00
H962   H     0.62837   0.16585   0.92103   0.00000  Uiso   1.00
H963   H     0.36657   0.17763   0.93553   0.00000  Uiso   1.00
H964   H     0.37191   0.17394   0.88369   0.00000  Uiso   1.00
H965   H     0.38188   0.13017   0.90444   0.00000  Uiso   1.00
H966   H     0.41213   0.29342   0.95742   0.00000  Uiso   1.00
H967   H     0.45798   0.33243   0.78490   0.00000  Uiso   1.00
H968   H     0.44776   0.30449   0.98384   0.00000  Uiso   1.00
H969   H     0.51568   0.12485   0.88458   0.00000  Uiso   1.00
H970   H     0.46087   0.11536   0.89895   0.00000  Uiso   1.00
H971   H     0.44245   0.25386   0.90050   0.00000  Uiso   1.00
H972   H     0.45861   0.21083   0.57164   0.00000  Uiso   1.00
H973   H     0.55367   0.14078   0.92798   0.00000  Uiso   1.00
H974   H     0.60308   0.05915   0.50792   0.00000  Uiso   1.00
H975   H     0.55250   0.03917   0.50443   0.00000  Uiso   1.00
H976   H     0.36637   0.24478   0.74492   0.00000  Uiso   1.00
N977   N     0.57062   0.05360   0.52330   0.00000  Uiso   1.00
N978   N     0.64504   0.14093   0.79785   0.00000  Uiso   1.00
N979   N     0.51376   0.20842   0.59933   0.00000  Uiso   1.00
N980   N     0.55192   0.06934   0.60492   0.00000  Uiso   1.00
N981   N     0.42476   0.28125   0.97665   0.00000  Uiso   1.00
N982   N     0.48806   0.12851   0.90794   0.00000  Uiso   1.00
O983   O     0.50000   0.16667   0.75000   0.00000  Uiso   1.00
O984   O     0.49027   0.12393   0.66625   0.00000  Uiso   1.00
O985   O     0.46020   0.20646   0.83749   0.00000  Uiso   1.00
O986   O     0.54421   0.17493   0.65877   0.00000  Uiso   1.00
O987   O     0.50532   0.16135   0.83749   0.00000  Uiso   1.00
O988   O     0.35696   0.19194   0.70568   0.00000  Uiso   1.00
O989   O     0.58970   0.09380   0.95666   0.00000  Uiso   1.00
O990   O     0.51182   0.08101   0.77821   0.00000  Uiso   1.00
O991   O     0.47914   0.26136   0.76767   0.00000  Uiso   1.00
O992   O     0.40785   0.13251   0.73607   0.00000  Uiso   1.00
O993   O     0.60119   0.19179   0.71805   0.00000  Uiso   1.00
O994   O     0.40323   0.18960   0.77820   0.00000  Uiso   1.00
O995   O     0.58773   0.15277   0.76767   0.00000  Uiso   1.00
O996   O     0.47133   0.06903   0.73607   0.00000  Uiso   1.00
O997   O     0.53771   0.25527   0.71806   0.00000  Uiso   1.00
Zn998  Zn    0.52577   0.14090   0.78278   0.00000  Uiso   1.00
Zn999  Zn    0.46792   0.12378   0.72258   0.00000  Uiso   1.00
Zn1000 Zn    0.54500   0.19664   0.71188   0.00000  Uiso   1.00
Zn1001 Zn    0.46131   0.20535   0.78277   0.00000  Uiso   1.00
C1002  C     0.71939   0.16006   0.75886   0.00000  Uiso   1.00
C1003  C     0.87443   0.14266   0.95943   0.00000  Uiso   1.00
C1004  C     0.89224   0.11922   0.97894   0.00000  Uiso   1.00
C1005  C     0.94768   0.17354   0.74134   0.00000  Uiso   1.00
C1006  C     0.87860   0.12198   0.52029   0.00000  Uiso   1.00
C1007  C     0.85518   0.15599   0.54103   0.00000  Uiso   1.00
C1008  C     0.88793   0.09252   0.54168   0.00000  Uiso   1.00
C1009  C     0.87798   0.09960   0.58262   0.00000  Uiso   1.00
C1010  C     0.85380   0.16672   0.58096   0.00000  Uiso   1.00
C1011  C     0.99373   0.17525   0.73770   0.00000  Uiso   1.00
C1012  C     0.67398   0.15798   0.76355   0.00000  Uiso   1.00
C1013  C     0.78636   0.23435   0.91725   0.00000  Uiso   1.00
C1014  C     0.84727   0.32214   0.73792   0.00000  Uiso   1.00
C1015  C     0.81830   0.01216   0.76228   0.00000  Uiso   1.00
C1016  C     0.82256   0.05619   0.75897   0.00000  Uiso   1.00
C1017  C     0.84344   0.27765   0.74130   0.00000  Uiso   1.00
C1018  C     0.85475   0.14545   0.64417   0.00000  Uiso   1.00
C1019  C     0.81187   0.18744   0.85618   0.00000  Uiso   1.00
C1020  C     0.80490   0.19783   0.89875   0.00000  Uiso   1.00
C1021  C     0.86295   0.13737   0.60179   0.00000  Uiso   1.00
C1022  C     0.78004   0.24539   0.95753   0.00000  Uiso   1.00
C1023  C     0.69767   0.23578   0.71425   0.00000  Uiso   1.00
C1024  C     0.81783   0.17222   0.92098   0.00000  Uiso   1.00
C1025  C     0.74050   0.25188   0.68639   0.00000  Uiso   1.00
C1026  C     0.75000   0.29931   0.69359   0.00000  Uiso   1.00
C1027  C     0.96487   0.11514   0.95355   0.00000  Uiso   1.00
C1028  C     0.98078   0.13912   0.91710   0.00000  Uiso   1.00
C1029  C     0.69492   0.15622   0.90985   0.00000  Uiso   1.00
C1030  C     0.81964   0.18747   0.95940   0.00000  Uiso   1.00
C1031  C     0.79638   0.22159   0.97882   0.00000  Uiso   1.00
C1032  C     0.84230   0.16855   0.97967   0.00000  Uiso   1.00
C1033  C     0.83462   0.17780   0.52079   0.00000  Uiso   1.00
C1034  C     0.80447   0.20641   0.54026   0.00000  Uiso   1.00
C1035  C     0.78814   0.22984   0.51949   0.00000  Uiso   1.00
H1036  H     0.76723   0.25316   0.53582   0.00000  Uiso   1.00
H1037  H     0.67119   0.25093   0.70993   0.00000  Uiso   1.00
H1038  H     0.76698   0.23682   0.69081   0.00000  Uiso   1.00
H1039  H     0.73946   0.24336   0.65555   0.00000  Uiso   1.00
H1040  H     0.72482   0.31512   0.68786   0.00000  Uiso   1.00
H1041  H     0.78179   0.30982   0.67363   0.00000  Uiso   1.00
H1042  H     0.75099   0.30852   0.72433   0.00000  Uiso   1.00
H1043  H     0.98536   0.15813   0.82257   0.00000  Uiso   1.00
H1044  H     0.98466   0.11015   0.79732   0.00000  Uiso   1.00
H1045  H     0.87490   0.22212   0.60700   0.00000  Uiso   1.00
H1046  H     0.82131   0.20689   0.62480   0.00000  Uiso   1.00
H1047  H     0.87395   0.00267   0.71548   0.00000  Uiso   1.00
H1048  H     0.91781   0.06440   0.59495   0.00000  Uiso   1.00
H1049  H     0.86680   0.04113   0.59968   0.00000  Uiso   1.00
H1050  H     0.98695   0.09108   0.95040   0.00000  Uiso   1.00
H1051  H     0.96709   0.13654   0.98030   0.00000  Uiso   1.00
H1052  H     0.97653   0.11795   0.89102   0.00000  Uiso   1.00
H1053  H     0.96170   0.16585   0.92103   0.00000  Uiso   1.00
H1054  H     0.69991   0.17763   0.93553   0.00000  Uiso   1.00
H1055  H     0.70525   0.17394   0.88369   0.00000  Uiso   1.00
H1056  H     0.71522   0.13017   0.90444   0.00000  Uiso   1.00
H1057  H     0.74546   0.29342   0.95742   0.00000  Uiso   1.00
H1058  H     0.79132   0.33243   0.78490   0.00000  Uiso   1.00
H1059  H     0.78110   0.30449   0.98384   0.00000  Uiso   1.00
H1060  H     0.84901   0.12485   0.88458   0.00000  Uiso   1.00
H1061  H     0.79420   0.11536   0.89895   0.00000  Uiso   1.00
H1062  H     0.77579   0.25386   0.90050   0.00000  Uiso   1.00
H1063  H     0.79194   0.21083   0.57164   0.00000  Uiso   1.00
H1064  H     0.88700   0.14078   0.92798   0.00000  Uiso   1.00
H1065  H     0.93641   0.05915   0.50792   0.00000  Uiso   1.00
H1066  H     0.88584   0.03917   0.50443   0.00000  Uiso   1.00
H1067  H     0.69970   0.24478   0.74492   0.00000  Uiso   1.00
N1068  N     0.90395   0.05360   0.52330   0.00000  Uiso   1.00
N1069  N     0.97838   0.14093   0.79785   0.00000  Uiso   1.00
N1070  N     0.84709   0.20842   0.59933   0.00000  Uiso   1.00
N1071  N     0.88525   0.06934   0.60492   0.00000  Uiso   1.00
N1072  N     0.75809   0.28125   0.97665   0.00000  Uiso   1.00
N1073  N     0.82139   0.12851   0.90794   0.00000  Uiso   1.00
O1074  O     0.83333   0.16667   0.75000   0.00000  Uiso   1.00
O1075  O     0.82360   0.12393   0.66625   0.00000  Uiso   1.00
O1076  O     0.79354   0.20646   0.83749   0.00000  Uiso   1.00
O1077  O     0.87755   0.17493   0.65877   0.00000  Uiso   1.00
O1078  O     0.83865   0.16135   0.83749   0.00000  Uiso   1.00
O1079  O     0.69029   0.19194   0.70568   0.00000  Uiso   1.00
O1080  O     0.92303   0.09380   0.95666   0.00000  Uiso   1.00
O1081  O     0.84515   0.08101   0.77821   0.00000  Uiso   1.00
O1082  O     0.81247   0.26136   0.76767   0.00000  Uiso   1.00
O1083  O     0.74119   0.13251   0.73607   0.00000  Uiso   1.00
O1084  O     0.93452   0.19179   0.71805   0.00000  Uiso   1.00
O1085  O     0.73656   0.18960   0.77820   0.00000  Uiso   1.00
O1086  O     0.92106   0.15277   0.76767   0.00000  Uiso   1.00
O1087  O     0.80467   0.06903   0.73607   0.00000  Uiso   1.00
O1088  O     0.87104   0.25527   0.71806   0.00000  Uiso   1.00
Zn1089 Zn    0.85910   0.14090   0.78278   0.00000  Uiso   1.00
Zn1090 Zn    0.80125   0.12378   0.72258   0.00000  Uiso   1.00
Zn1091 Zn    0.87833   0.19664   0.71188   0.00000  Uiso   1.00
Zn1092 Zn    0.79465   0.20535   0.78277   0.00000  Uiso   1.00
C1093  C     0.05273   0.49339   0.75886   0.00000  Uiso   1.00
C1094  C     0.20776   0.47599   0.95943   0.00000  Uiso   1.00
C1095  C     0.22557   0.45256   0.97894   0.00000  Uiso   1.00
C1096  C     0.28101   0.50687   0.74134   0.00000  Uiso   1.00
C1097  C     0.21193   0.45532   0.52029   0.00000  Uiso   1.00
C1098  C     0.18851   0.48933   0.54103   0.00000  Uiso   1.00
C1099  C     0.22126   0.42585   0.54168   0.00000  Uiso   1.00
C1100  C     0.21132   0.43293   0.58262   0.00000  Uiso   1.00
C1101  C     0.18713   0.50006   0.58096   0.00000  Uiso   1.00
C1102  C     0.32706   0.50858   0.73770   0.00000  Uiso   1.00
C1103  C     0.00731   0.49131   0.76355   0.00000  Uiso   1.00
C1104  C     0.11969   0.56769   0.91725   0.00000  Uiso   1.00
C1105  C     0.18061   0.65547   0.73792   0.00000  Uiso   1.00
C1106  C     0.15163   0.34549   0.76228   0.00000  Uiso   1.00
C1107  C     0.15589   0.38953   0.75897   0.00000  Uiso   1.00
C1108  C     0.17677   0.61098   0.74130   0.00000  Uiso   1.00
C1109  C     0.18808   0.47879   0.64417   0.00000  Uiso   1.00
C1110  C     0.14521   0.52077   0.85618   0.00000  Uiso   1.00
C1111  C     0.13823   0.53117   0.89875   0.00000  Uiso   1.00
C1112  C     0.19629   0.47070   0.60179   0.00000  Uiso   1.00
C1113  C     0.11337   0.57873   0.95753   0.00000  Uiso   1.00
C1114  C     0.03101   0.56911   0.71425   0.00000  Uiso   1.00
C1115  C     0.15117   0.50555   0.92098   0.00000  Uiso   1.00
C1116  C     0.07384   0.58521   0.68639   0.00000  Uiso   1.00
C1117  C     0.08334   0.63265   0.69359   0.00000  Uiso   1.00
C1118  C     0.29820   0.44848   0.95355   0.00000  Uiso   1.00
C1119  C     0.31411   0.47246   0.91710   0.00000  Uiso   1.00
C1120  C     0.02826   0.48956   0.90985   0.00000  Uiso   1.00
C1121  C     0.15298   0.52080   0.95940   0.00000  Uiso   1.00
C1122  C     0.12971   0.55492   0.97882   0.00000  Uiso   1.00
C1123  C     0.17563   0.50189   0.97967   0.00000  Uiso   1.00
C1124  C     0.16795   0.51114   0.52079   0.00000  Uiso   1.00
C1125  C     0.13780   0.53974   0.54026   0.00000  Uiso   1.00
C1126  C     0.12147   0.56318   0.51949   0.00000  Uiso   1.00
H1127  H     0.10056   0.58649   0.53582   0.00000  Uiso   1.00
H1128  H     0.00452   0.58426   0.70993   0.00000  Uiso   1.00
H1129  H     0.10031   0.57015   0.69081   0.00000  Uiso   1.00
H1130  H     0.07279   0.57669   0.65555   0.00000  Uiso   1.00
H1131  H     0.05816   0.64845   0.68786   0.00000  Uiso   1.00
H1132  H     0.11513   0.64316   0.67363   0.00000  Uiso   1.00
H1133  H     0.08432   0.64186   0.72433   0.00000  Uiso   1.00
H1134  H     0.31870   0.49146   0.82257   0.00000  Uiso   1.00
H1135  H     0.31800   0.44348   0.79732   0.00000  Uiso   1.00
H1136  H     0.20823   0.55545   0.60700   0.00000  Uiso   1.00
H1137  H     0.15465   0.54022   0.62480   0.00000  Uiso   1.00
H1138  H     0.20728   0.33601   0.71548   0.00000  Uiso   1.00
H1139  H     0.25114   0.39774   0.59495   0.00000  Uiso   1.00
H1140  H     0.20014   0.37446   0.59968   0.00000  Uiso   1.00
H1141  H     0.32029   0.42441   0.95040   0.00000  Uiso   1.00
H1142  H     0.30042   0.46987   0.98030   0.00000  Uiso   1.00
H1143  H     0.30986   0.45128   0.89102   0.00000  Uiso   1.00
H1144  H     0.29503   0.49919   0.92103   0.00000  Uiso   1.00
H1145  H     0.03324   0.51097   0.93553   0.00000  Uiso   1.00
H1146  H     0.03858   0.50727   0.88369   0.00000  Uiso   1.00
H1147  H     0.04855   0.46351   0.90444   0.00000  Uiso   1.00
H1148  H     0.07879   0.62675   0.95742   0.00000  Uiso   1.00
H1149  H     0.12465   0.66577   0.78490   0.00000  Uiso   1.00
H1150  H     0.11443   0.63782   0.98384   0.00000  Uiso   1.00
H1151  H     0.18235   0.45819   0.88458   0.00000  Uiso   1.00
H1152  H     0.12753   0.44869   0.89895   0.00000  Uiso   1.00
H1153  H     0.10912   0.58719   0.90050   0.00000  Uiso   1.00
H1154  H     0.12527   0.54416   0.57164   0.00000  Uiso   1.00
H1155  H     0.22033   0.47411   0.92798   0.00000  Uiso   1.00
H1156  H     0.26975   0.39248   0.50792   0.00000  Uiso   1.00
H1157  H     0.21917   0.37250   0.50443   0.00000  Uiso   1.00
H1158  H     0.03303   0.57812   0.74492   0.00000  Uiso   1.00
N1159  N     0.23729   0.38693   0.52330   0.00000  Uiso   1.00
N1160  N     0.31171   0.47427   0.79785   0.00000  Uiso   1.00
N1161  N     0.18043   0.54176   0.59933   0.00000  Uiso   1.00
N1162  N     0.21858   0.40267   0.60492   0.00000  Uiso   1.00
N1163  N     0.09143   0.61458   0.97665   0.00000  Uiso   1.00
N1164  N     0.15472   0.46185   0.90794   0.00000  Uiso   1.00
O1165  O     0.16667   0.50000   0.75000   0.00000  Uiso   1.00
O1166  O     0.15693   0.45726   0.66625   0.00000  Uiso   1.00
O1167  O     0.12687   0.53979   0.83749   0.00000  Uiso   1.00
O1168  O     0.21088   0.50826   0.65877   0.00000  Uiso   1.00
O1169  O     0.17198   0.49468   0.83749   0.00000  Uiso   1.00
O1170  O     0.02362   0.52527   0.70568   0.00000  Uiso   1.00
O1171  O     0.25637   0.42713   0.95666   0.00000  Uiso   1.00
O1172  O     0.17849   0.41434   0.77821   0.00000  Uiso   1.00
O1173  O     0.14581   0.59469   0.76767   0.00000  Uiso   1.00
O1174  O     0.07452   0.46584   0.73607   0.00000  Uiso   1.00
O1175  O     0.26785   0.52512   0.71805   0.00000  Uiso   1.00
O1176  O     0.06990   0.52293   0.77820   0.00000  Uiso   1.00
O1177  O     0.25440   0.48610   0.76767   0.00000  Uiso   1.00
O1178  O     0.13800   0.40236   0.73607   0.00000  Uiso   1.00
O1179  O     0.20437   0.58860   0.71806   0.00000  Uiso   1.00
Zn1180 Zn    0.19244   0.47423   0.78278   0.00000  Uiso   1.00
Zn1181 Zn    0.13459   0.45711   0.72258   0.00000  Uiso   1.00
Zn1182 Zn    0.21166   0.52997   0.71188   0.00000  Uiso   1.00
Zn1183 Zn    0.12798   0.53868   0.78277   0.00000  Uiso   1.00
C1184  C     0.38606   0.49339   0.75886   0.00000  Uiso   1.00
C1185  C     0.54109   0.47599   0.95943   0.00000  Uiso   1.00
C1186  C     0.55890   0.45256   0.97894   0.00000  Uiso   1.00
C1187  C     0.61435   0.50687   0.74134   0.00000  Uiso   1.00
C1188  C     0.54527   0.45532   0.52029   0.00000  Uiso   1.00
C1189  C     0.52185   0.48933   0.54103   0.00000  Uiso   1.00
C1190  C     0.55459   0.42585   0.54168   0.00000  Uiso   1.00
C1191  C     0.54465   0.43293   0.58262   0.00000  Uiso   1.00
C1192  C     0.52047   0.50006   0.58096   0.00000  Uiso   1.00
C1193  C     0.66039   0.50858   0.73770   0.00000  Uiso   1.00
C1194  C     0.34064   0.49131   0.76355   0.00000  Uiso   1.00
C1195  C     0.45302   0.56769   0.91725   0.00000  Uiso   1.00
C1196  C     0.51394   0.65547   0.73792   0.00000  Uiso   1.00
C1197  C     0.48496   0.34549   0.76228   0.00000  Uiso   1.00
C1198  C     0.48923   0.38953   0.75897   0.00000  Uiso   1.00
C1199  C     0.51011   0.61098   0.74130   0.00000  Uiso   1.00
C1200  C     0.52141   0.47879   0.64417   0.00000  Uiso   1.00
C1201  C     0.47854   0.52077   0.85618   0.00000  Uiso   1.00
C1202  C     0.47156   0.53117   0.89875   0.00000  Uiso   1.00
C1203  C     0.52962   0.47070   0.60179   0.00000  Uiso   1.00
C1204  C     0.44671   0.57873   0.95753   0.00000  Uiso   1.00
C1205  C     0.36434   0.56911   0.71425   0.00000  Uiso   1.00
C1206  C     0.48450   0.50555   0.92098   0.00000  Uiso   1.00
C1207  C     0.40717   0.58521   0.68639   0.00000  Uiso   1.00
C1208  C     0.41667   0.63265   0.69359   0.00000  Uiso   1.00
C1209  C     0.63154   0.44848   0.95355   0.00000  Uiso   1.00
C1210  C     0.64745   0.47246   0.91710   0.00000  Uiso   1.00
C1211  C     0.36159   0.48956   0.90985   0.00000  Uiso   1.00
C1212  C     0.48631   0.52080   0.95940   0.00000  Uiso   1.00
C1213  C     0.46305   0.55492   0.97882   0.00000  Uiso   1.00
C1214  C     0.50897   0.50189   0.97967   0.00000  Uiso   1.00
C1215  C     0.50128   0.51114   0.52079   0.00000  Uiso   1.00
C1216  C     0.47114   0.53974   0.54026   0.00000  Uiso   1.00
C1217  C     0.45481   0.56318   0.51949   0.00000  Uiso   1.00
H1218  H     0.43389   0.58649   0.53582   0.00000  Uiso   1.00
H1219  H     0.33786   0.58426   0.70993   0.00000  Uiso   1.00
H1220  H     0.43364   0.57015   0.69081   0.00000  Uiso   1.00
H1221  H     0.40612   0.57669   0.65555   0.00000  Uiso   1.00
H1222  H     0.39149   0.64845   0.68786   0.00000  Uiso   1.00
H1223  H     0.44846   0.64316   0.67363   0.00000  Uiso   1.00
H1224  H     0.41766   0.64186   0.72433   0.00000  Uiso   1.00
H1225  H     0.65203   0.49146   0.82257   0.00000  Uiso   1.00
H1226  H     0.65133   0.44348   0.79732   0.00000  Uiso   1.00
H1227  H     0.54157   0.55545   0.60700   0.00000  Uiso   1.00
H1228  H     0.48798   0.54022   0.62480   0.00000  Uiso   1.00
H1229  H     0.54061   0.33601   0.71548   0.00000  Uiso   1.00
H1230  H     0.58447   0.39774   0.59495   0.00000  Uiso   1.00
H1231  H     0.53347   0.37446   0.59968   0.00000  Uiso   1.00
H1232  H     0.65362   0.42441   0.95040   0.00000  Uiso   1.00
H1233  H     0.63375   0.46987   0.98030   0.00000  Uiso   1.00
H1234  H     0.64319   0.45128   0.89102   0.00000  Uiso   1.00
H1235  H     0.62837   0.49919   0.92103   0.00000  Uiso   1.00
H1236  H     0.36657   0.51097   0.93553   0.00000  Uiso   1.00
H1237  H     0.37191   0.50727   0.88369   0.00000  Uiso   1.00
H1238  H     0.38188   0.46351   0.90444   0.00000  Uiso   1.00
H1239  H     0.41213   0.62675   0.95742   0.00000  Uiso   1.00
H1240  H     0.45798   0.66577   0.78490   0.00000  Uiso   1.00
H1241  H     0.44776   0.63782   0.98384   0.00000  Uiso   1.00
H1242  H     0.51568   0.45819   0.88458   0.00000  Uiso   1.00
H1243  H     0.46087   0.44869   0.89895   0.00000  Uiso   1.00
H1244  H     0.44245   0.58719   0.90050   0.00000  Uiso   1.00
H1245  H     0.45861   0.54416   0.57164   0.00000  Uiso   1.00
H1246  H     0.55367   0.47411   0.92798   0.00000  Uiso   1.00
H1247  H     0.60308   0.39248   0.50792   0.00000  Uiso   1.00
H1248  H     0.55250   0.37250   0.50443   0.00000  Uiso   1.00
H1249  H     0.36637   0.57812   0.74492   0.00000  Uiso   1.00
N1250  N     0.57062   0.38693   0.52330   0.00000  Uiso   1.00
N1251  N     0.64504   0.47427   0.79785   0.00000  Uiso   1.00
N1252  N     0.51376   0.54176   0.59933   0.00000  Uiso   1.00
N1253  N     0.55192   0.40267   0.60492   0.00000  Uiso   1.00
N1254  N     0.42476   0.61458   0.97665   0.00000  Uiso   1.00
N1255  N     0.48806   0.46185   0.90794   0.00000  Uiso   1.00
O1256  O     0.50000   0.50000   0.75000   0.00000  Uiso   1.00
O1257  O     0.49027   0.45726   0.66625   0.00000  Uiso   1.00
O1258  O     0.46020   0.53979   0.83749   0.00000  Uiso   1.00
O1259  O     0.54421   0.50826   0.65877   0.00000  Uiso   1.00
O1260  O     0.50532   0.49468   0.83749   0.00000  Uiso   1.00
O1261  O     0.35696   0.52527   0.70568   0.00000  Uiso   1.00
O1262  O     0.58970   0.42713   0.95666   0.00000  Uiso   1.00
O1263  O     0.51182   0.41434   0.77821   0.00000  Uiso   1.00
O1264  O     0.47914   0.59469   0.76767   0.00000  Uiso   1.00
O1265  O     0.40785   0.46584   0.73607   0.00000  Uiso   1.00
O1266  O     0.60119   0.52512   0.71805   0.00000  Uiso   1.00
O1267  O     0.40323   0.52293   0.77820   0.00000  Uiso   1.00
O1268  O     0.58773   0.48610   0.76767   0.00000  Uiso   1.00
O1269  O     0.47133   0.40236   0.73607   0.00000  Uiso   1.00
O1270  O     0.53771   0.58860   0.71806   0.00000  Uiso   1.00
Zn1271 Zn    0.52577   0.47423   0.78278   0.00000  Uiso   1.00
Zn1272 Zn    0.46792   0.45711   0.72258   0.00000  Uiso   1.00
Zn1273 Zn    0.54500   0.52997   0.71188   0.00000  Uiso   1.00
Zn1274 Zn    0.46131   0.53868   0.78277   0.00000  Uiso   1.00
C1275  C     0.71939   0.49339   0.75886   0.00000  Uiso   1.00
C1276  C     0.87443   0.47599   0.95943   0.00000  Uiso   1.00
C1277  C     0.89224   0.45256   0.97894   0.00000  Uiso   1.00
C1278  C     0.94768   0.50687   0.74134   0.00000  Uiso   1.00
C1279  C     0.87860   0.45532   0.52029   0.00000  Uiso   1.00
C1280  C     0.85518   0.48933   0.54103   0.00000  Uiso   1.00
C1281  C     0.88793   0.42585   0.54168   0.00000  Uiso   1.00
C1282  C     0.87798   0.43293   0.58262   0.00000  Uiso   1.00
C1283  C     0.85380   0.50006   0.58096   0.00000  Uiso   1.00
C1284  C     0.99373   0.50858   0.73770   0.00000  Uiso   1.00
C1285  C     0.67398   0.49131   0.76355   0.00000  Uiso   1.00
C1286  C     0.78636   0.56769   0.91725   0.00000  Uiso   1.00
C1287  C     0.84727   0.65547   0.73792   0.00000  Uiso   1.00
C1288  C     0.81830   0.34549   0.76228   0.00000  Uiso   1.00
C1289  C     0.82256   0.38953   0.75897   0.00000  Uiso   1.00
C1290  C     0.84344   0.61098   0.74130   0.00000  Uiso   1.00
C1291  C     0.85475   0.47879   0.64417   0.00000  Uiso   1.00
C1292  C     0.81187   0.52077   0.85618   0.00000  Uiso   1.00
C1293  C     0.80490   0.53117   0.89875   0.00000  Uiso   1.00
C1294  C     0.86295   0.47070   0.60179   0.00000  Uiso   1.00
C1295  C     0.78004   0.57873   0.95753   0.00000  Uiso   1.00
C1296  C     0.69767   0.56911   0.71425   0.00000  Uiso   1.00
C1297  C     0.81783   0.50555   0.92098   0.00000  Uiso   1.00
C1298  C     0.74050   0.58521   0.68639   0.00000  Uiso   1.00
C1299  C     0.75000   0.63265   0.69359   0.00000  Uiso   1.00
C1300  C     0.96487   0.44848   0.95355   0.00000  Uiso   1.00
C1301  C     0.98078   0.47246   0.91710   0.00000  Uiso   1.00
C1302  C     0.69492   0.48956   0.90985   0.00000  Uiso   1.00
C1303  C     0.81964   0.52080   0.95940   0.00000  Uiso   1.00
C1304  C     0.79638   0.55492   0.97882   0.00000  Uiso   1.00
C1305  C     0.84230   0.50189   0.97967   0.00000  Uiso   1.00
C1306  C     0.83462   0.51114   0.52079   0.00000  Uiso   1.00
C1307  C     0.80447   0.53974   0.54026   0.00000  Uiso   1.00
C1308  C     0.78814   0.56318   0.51949   0.00000  Uiso   1.00
H1309  H     0.76723   0.58649   0.53582   0.00000  Uiso   1.00
H1310  H     0.67119   0.58426   0.70993   0.00000  Uiso   1.00
H1311  H     0.76698   0.57015   0.69081   0.00000  Uiso   1.00
H1312  H     0.73946   0.57669   0.65555   0.00000  Uiso   1.00
H1313  H     0.72482   0.64845   0.68786   0.00000  Uiso   1.00
H1314  H     0.78179   0.64316   0.67363   0.00000  Uiso   1.00
H1315  H     0.75099   0.64186   0.72433   0.00000  Uiso   1.00
H1316  H     0.98536   0.49146   0.82257   0.00000  Uiso   1.00
H1317  H     0.98466   0.44348   0.79732   0.00000  Uiso   1.00
H1318  H     0.87490   0.55545   0.60700   0.00000  Uiso   1.00
H1319  H     0.82131   0.54022   0.62480   0.00000  Uiso   1.00
H1320  H     0.87395   0.33601   0.71548   0.00000  Uiso   1.00
H1321  H     0.91781   0.39774   0.59495   0.00000  Uiso   1.00
H1322  H     0.86680   0.37446   0.59968   0.00000  Uiso   1.00
H1323  H     0.98695   0.42441   0.95040   0.00000  Uiso   1.00
H1324  H     0.96709   0.46987   0.98030   0.00000  Uiso   1.00
H1325  H     0.97653   0.45128   0.89102   0.00000  Uiso   1.00
H1326  H     0.96170   0.49919   0.92103   0.00000  Uiso   1.00
H1327  H     0.69991   0.51097   0.93553   0.00000  Uiso   1.00
H1328  H     0.70525   0.50727   0.88369   0.00000  Uiso   1.00
H1329  H     0.71522   0.46351   0.90444   0.00000  Uiso   1.00
H1330  H     0.74546   0.62675   0.95742   0.00000  Uiso   1.00
H1331  H     0.79132   0.66577   0.78490   0.00000  Uiso   1.00
H1332  H     0.78110   0.63782   0.98384   0.00000  Uiso   1.00
H1333  H     0.84901   0.45819   0.88458   0.00000  Uiso   1.00
H1334  H     0.79420   0.44869   0.89895   0.00000  Uiso   1.00
H1335  H     0.77579   0.58719   0.90050   0.00000  Uiso   1.00
H1336  H     0.79194   0.54416   0.57164   0.00000  Uiso   1.00
H1337  H     0.88700   0.47411   0.92798   0.00000  Uiso   1.00
H1338  H     0.93641   0.39248   0.50792   0.00000  Uiso   1.00
H1339  H     0.88584   0.37250   0.50443   0.00000  Uiso   1.00
H1340  H     0.69970   0.57812   0.74492   0.00000  Uiso   1.00
N1341  N     0.90395   0.38693   0.52330   0.00000  Uiso   1.00
N1342  N     0.97838   0.47427   0.79785   0.00000  Uiso   1.00
N1343  N     0.84709   0.54176   0.59933   0.00000  Uiso   1.00
N1344  N     0.88525   0.40267   0.60492   0.00000  Uiso   1.00
N1345  N     0.75809   0.61458   0.97665   0.00000  Uiso   1.00
N1346  N     0.82139   0.46185   0.90794   0.00000  Uiso   1.00
O1347  O     0.83333   0.50000   0.75000   0.00000  Uiso   1.00
O1348  O     0.82360   0.45726   0.66625   0.00000  Uiso   1.00
O1349  O     0.79354   0.53979   0.83749   0.00000  Uiso   1.00
O1350  O     0.87755   0.50826   0.65877   0.00000  Uiso   1.00
O1351  O     0.83865   0.49468   0.83749   0.00000  Uiso   1.00
O1352  O     0.69029   0.52527   0.70568   0.00000  Uiso   1.00
O1353  O     0.92303   0.42713   0.95666   0.00000  Uiso   1.00
O1354  O     0.84515   0.41434   0.77821   0.00000  Uiso   1.00
O1355  O     0.81247   0.59469   0.76767   0.00000  Uiso   1.00
O1356  O     0.74119   0.46584   0.73607   0.00000  Uiso   1.00
O1357  O     0.93452   0.52512   0.71805   0.00000  Uiso   1.00
O1358  O     0.73656   0.52293   0.77820   0.00000  Uiso   1.00
O1359  O     0.92106   0.48610   0.76767   0.00000  Uiso   1.00
O1360  O     0.80467   0.40236   0.73607   0.00000  Uiso   1.00
O1361  O     0.87104   0.58860   0.71806   0.00000  Uiso   1.00
Zn1362 Zn    0.85910   0.47423   0.78278   0.00000  Uiso   1.00
Zn1363 Zn    0.80125   0.45711   0.72258   0.00000  Uiso   1.00
Zn1364 Zn    0.87833   0.52997   0.71188   0.00000  Uiso   1.00
Zn1365 Zn    0.79465   0.53868   0.78277   0.00000  Uiso   1.00
C1366  C     0.05273   0.82673   0.75886   0.00000  Uiso   1.00
C1367  C     0.20776   0.80932   0.95943   0.00000  Uiso   1.00
C1368  C     0.22557   0.78589   0.97894   0.00000  Uiso   1.00
C1369  C     0.28101   0.84021   0.74134   0.00000  Uiso   1.00
C1370  C     0.21193   0.78865   0.52029   0.00000  Uiso   1.00
C1371  C     0.18851   0.82266   0.54103   0.00000  Uiso   1.00
C1372  C     0.22126   0.75919   0.54168   0.00000  Uiso   1.00
C1373  C     0.21132   0.76627   0.58262   0.00000  Uiso   1.00
C1374  C     0.18713   0.83339   0.58096   0.00000  Uiso   1.00
C1375  C     0.32706   0.84191   0.73770   0.00000  Uiso   1.00
C1376  C     0.00731   0.82465   0.76355   0.00000  Uiso   1.00
C1377  C     0.11969   0.90102   0.91725   0.00000  Uiso   1.00
C1378  C     0.18061   0.98880   0.73792   0.00000  Uiso   1.00
C1379  C     0.15163   0.67883   0.76228   0.00000  Uiso   1.00
C1380  C     0.15589   0.72286   0.75897   0.00000  Uiso   1.00
C1381  C     0.17677   0.94432   0.74130   0.00000  Uiso   1.00
C1382  C     0.18808   0.81212   0.64417   0.00000  Uiso   1.00
C1383  C     0.14521   0.85410   0.85618   0.00000  Uiso   1.00
C1384  C     0.13823   0.86450   0.89875   0.00000  Uiso   1.00
C1385  C     0.19629   0.80404   0.60179   0.00000  Uiso   1.00
C1386  C     0.11337   0.91206   0.95753   0.00000  Uiso   1.00
C1387  C     0.03101   0.90244   0.71425   0.00000  Uiso   1.00
C1388  C     0.15117   0.83889   0.92098   0.00000  Uiso   1.00
C1389  C     0.07384   0.91854   0.68639   0.00000  Uiso   1.00
C1390  C     0.08334   0.96598   0.69359   0.00000  Uiso   1.00
C1391  C     0.29820   0.78181   0.95355   0.00000  Uiso   1.00
C1392  C     0.31411   0.80579   0.91710   0.00000  Uiso   1.00
C1393  C     0.02826   0.82289   0.90985   0.00000  Uiso   1.00
C1394  C     0.15298   0.85414   0.95940   0.00000  Uiso   1.00
C1395  C     0.12971   0.88825   0.97882   0.00000  Uiso   1.00
C1396  C     0.17563   0.83522   0.97967   0.00000  Uiso   1.00
C1397  C     0.16795   0.84447   0.52079   0.00000  Uiso   1.00
C1398  C     0.13780   0.87308   0.54026   0.00000  Uiso   1.00
C1399  C     0.12147   0.89651   0.51949   0.00000  Uiso   1.00
H1400  H     0.10056   0.91982   0.53582   0.00000  Uiso   1.00
H1401  H     0.00452   0.91759   0.70993   0.00000  Uiso   1.00
H1402  H     0.10031   0.90349   0.69081   0.00000  Uiso   1.00
H1403  H     0.07279   0.91002   0.65555   0.00000  Uiso   1.00
H1404  H     0.05816   0.98179   0.68786   0.00000  Uiso   1.00
H1405  H     0.11513   0.97649   0.67363   0.00000  Uiso   1.00
H1406  H     0.08432   0.97519   0.72433   0.00000  Uiso   1.00
H1407  H     0.31870   0.82480   0.82257   0.00000  Uiso   1.00
H1408  H     0.31800   0.77681   0.79732   0.00000  Uiso   1.00
H1409  H     0.20823   0.88878   0.60700   0.00000  Uiso   1.00
H1410  H     0.15465   0.87355   0.62480   0.00000  Uiso   1.00
H1411  H     0.20728   0.66934   0.71548   0.00000  Uiso   1.00
H1412  H     0.25114   0.73107   0.59495   0.00000  Uiso   1.00
H1413  H     0.20014   0.70780   0.59968   0.00000  Uiso   1.00
H1414  H     0.32029   0.75774   0.95040   0.00000  Uiso   1.00
H1415  H     0.30042   0.80321   0.98030   0.00000  Uiso   1.00
H1416  H     0.30986   0.78461   0.89102   0.00000  Uiso   1.00
H1417  H     0.29503   0.83252   0.92103   0.00000  Uiso   1.00
H1418  H     0.03324   0.84430   0.93553   0.00000  Uiso   1.00
H1419  H     0.03858   0.84060   0.88369   0.00000  Uiso   1.00
H1420  H     0.04855   0.79684   0.90444   0.00000  Uiso   1.00
H1421  H     0.07879   0.96009   0.95742   0.00000  Uiso   1.00
H1422  H     0.12465   0.99910   0.78490   0.00000  Uiso   1.00
H1423  H     0.11443   0.97116   0.98384   0.00000  Uiso   1.00
H1424  H     0.18235   0.79152   0.88458   0.00000  Uiso   1.00
H1425  H     0.12753   0.78202   0.89895   0.00000  Uiso   1.00
H1426  H     0.10912   0.92053   0.90050   0.00000  Uiso   1.00
H1427  H     0.12527   0.87749   0.57164   0.00000  Uiso   1.00
H1428  H     0.22033   0.80745   0.92798   0.00000  Uiso   1.00
H1429  H     0.26975   0.72581   0.50792   0.00000  Uiso   1.00
H1430  H     0.21917   0.70583   0.50443   0.00000  Uiso   1.00
H1431  H     0.03303   0.91145   0.74492   0.00000  Uiso   1.00
N1432  N     0.23729   0.72027   0.52330   0.00000  Uiso   1.00
N1433  N     0.31171   0.80760   0.79785   0.00000  Uiso   1.00
N1434  N     0.18043   0.87509   0.59933   0.00000  Uiso   1.00
N1435  N     0.21858   0.73601   0.60492   0.00000  Uiso   1.00
N1436  N     0.09143   0.94792   0.97665   0.00000  Uiso   1.00
N1437  N     0.15472   0.79518   0.90794   0.00000  Uiso   1.00
O1438  O     0.16667   0.83333   0.75000   0.00000  Uiso   1.00
O1439  O     0.15693   0.79060   0.66625   0.00000  Uiso   1.00
O1440  O     0.12687   0.87313   0.83749   0.00000  Uiso   1.00
O1441  O     0.21088   0.84159   0.65877   0.00000  Uiso   1.00
O1442  O     0.17198   0.82802   0.83749   0.00000  Uiso   1.00
O1443  O     0.02362   0.85860   0.70568   0.00000  Uiso   1.00
O1444  O     0.25637   0.76046   0.95666   0.00000  Uiso   1.00
O1445  O     0.17849   0.74768   0.77821   0.00000  Uiso   1.00
O1446  O     0.14581   0.92803   0.76767   0.00000  Uiso   1.00
O1447  O     0.07452   0.79917   0.73607   0.00000  Uiso   1.00
O1448  O     0.26785   0.85845   0.71805   0.00000  Uiso   1.00
O1449  O     0.06990   0.85627   0.77820   0.00000  Uiso   1.00
O1450  O     0.25440   0.81944   0.76767   0.00000  Uiso   1.00
O1451  O     0.13800   0.73570   0.73607   0.00000  Uiso   1.00
O1452  O     0.20437   0.92193   0.71806   0.00000  Uiso   1.00
Zn1453 Zn    0.19244   0.80756   0.78278   0.00000  Uiso   1.00
Zn1454 Zn    0.13459   0.79044   0.72258   0.00000  Uiso   1.00
Zn1455 Zn    0.21166   0.86331   0.71188   0.00000  Uiso   1.00
Zn1456 Zn    0.12798   0.87202   0.78277   0.00000  Uiso   1.00
C1457  C     0.38606   0.82673   0.75886   0.00000  Uiso   1.00
C1458  C     0.54109   0.80932   0.95943   0.00000  Uiso   1.00
C1459  C     0.55890   0.78589   0.97894   0.00000  Uiso   1.00
C1460  C     0.61435   0.84021   0.74134   0.00000  Uiso   1.00
C1461  C     0.54527   0.78865   0.52029   0.00000  Uiso   1.00
C1462  C     0.52185   0.82266   0.54103   0.00000  Uiso   1.00
C1463  C     0.55459   0.75919   0.54168   0.00000  Uiso   1.00
C1464  C     0.54465   0.76627   0.58262   0.00000  Uiso   1.00
C1465  C     0.52047   0.83339   0.58096   0.00000  Uiso   1.00
C1466  C     0.66039   0.84191   0.73770   0.00000  Uiso   1.00
C1467  C     0.34064   0.82465   0.76355   0.00000  Uiso   1.00
C1468  C     0.45302   0.90102   0.91725   0.00000  Uiso   1.00
C1469  C     0.51394   0.98880   0.73792   0.00000  Uiso   1.00
C1470  C     0.48496   0.67883   0.76228   0.00000  Uiso   1.00
C1471  C     0.48923   0.72286   0.75897   0.00000  Uiso   1.00
C1472  C     0.51011   0.94432   0.74130   0.00000  Uiso   1.00
C1473  C     0.52141   0.81212   0.64417   0.00000  Uiso   1.00
C1474  C     0.47854   0.85410   0.85618   0.00000  Uiso   1.00
C1475  C     0.47156   0.86450   0.89875   0.00000  Uiso   1.00
C1476  C     0.52962   0.80404   0.60179   0.00000  Uiso   1.00
C1477  C     0.44671   0.91206   0.95753   0.00000  Uiso   1.00
C1478  C     0.36434   0.90244   0.71425   0.00000  Uiso   1.00
C1479  C     0.48450   0.83889   0.92098   0.00000  Uiso   1.00
C1480  C     0.40717   0.91854   0.68639   0.00000  Uiso   1.00
C1481  C     0.41667   0.96598   0.69359   0.00000  Uiso   1.00
C1482  C     0.63154   0.78181   0.95355   0.00000  Uiso   1.00
C1483  C     0.64745   0.80579   0.91710   0.00000  Uiso   1.00
C1484  C     0.36159   0.82289   0.90985   0.00000  Uiso   1.00
C1485  C     0.48631   0.85414   0.95940   0.00000  Uiso   1.00
C1486  C     0.46305   0.88825   0.97882   0.00000  Uiso   1.00
C1487  C     0.50897   0.83522   0.97967   0.00000  Uiso   1.00
C1488  C     0.50128   0.84447   0.52079   0.00000  Uiso   1.00
C1489  C     0.47114   0.87308   0.54026   0.00000  Uiso   1.00
C1490  C     0.45481   0.89651   0.51949   0.00000  Uiso   1.00
H1491  H     0.43389   0.91982   0.53582   0.00000  Uiso   1.00
H1492  H     0.33786   0.91759   0.70993   0.00000  Uiso   1.00
H1493  H     0.43364   0.90349   0.69081   0.00000  Uiso   1.00
H1494  H     0.40612   0.91002   0.65555   0.00000  Uiso   1.00
H1495  H     0.39149   0.98179   0.68786   0.00000  Uiso   1.00
H1496  H     0.44846   0.97649   0.67363   0.00000  Uiso   1.00
H1497  H     0.41766   0.97519   0.72433   0.00000  Uiso   1.00
H1498  H     0.65203   0.82480   0.82257   0.00000  Uiso   1.00
H1499  H     0.65133   0.77681   0.79732   0.00000  Uiso   1.00
H1500  H     0.54157   0.88878   0.60700   0.00000  Uiso   1.00
H1501  H     0.48798   0.87355   0.62480   0.00000  Uiso   1.00
H1502  H     0.54061   0.66934   0.71548   0.00000  Uiso   1.00
H1503  H     0.58447   0.73107   0.59495   0.00000  Uiso   1.00
H1504  H     0.53347   0.70780   0.59968   0.00000  Uiso   1.00
H1505  H     0.65362   0.75774   0.95040   0.00000  Uiso   1.00
H1506  H     0.63375   0.80321   0.98030   0.00000  Uiso   1.00
H1507  H     0.64319   0.78461   0.89102   0.00000  Uiso   1.00
H1508  H     0.62837   0.83252   0.92103   0.00000  Uiso   1.00
H1509  H     0.36657   0.84430   0.93553   0.00000  Uiso   1.00
H1510  H     0.37191   0.84060   0.88369   0.00000  Uiso   1.00
H1511  H     0.38188   0.79684   0.90444   0.00000  Uiso   1.00
H1512  H     0.41213   0.96009   0.95742   0.00000  Uiso   1.00
H1513  H     0.45798   0.99910   0.78490   0.00000  Uiso   1.00
H1514  H     0.44776   0.97116   0.98384   0.00000  Uiso   1.00
H1515  H     0.51568   0.79152   0.88458   0.00000  Uiso   1.00
H1516  H     0.46087   0.78202   0.89895   0.00000  Uiso   1.00
H1517  H     0.44245   0.92053   0.90050   0.00000  Uiso   1.00
H1518  H     0.45861   0.87749   0.57164   0.00000  Uiso   1.00
H1519  H     0.55367   0.80745   0.92798   0.00000  Uiso   1.00
H1520  H     0.60308   0.72581   0.50792   0.00000  Uiso   1.00
H1521  H     0.55250   0.70583   0.50443   0.00000  Uiso   1.00
H1522  H     0.36637   0.91145   0.74492   0.00000  Uiso   1.00
N1523  N     0.57062   0.72027   0.52330   0.00000  Uiso   1.00
N1524  N     0.64504   0.80760   0.79785   0.00000  Uiso   1.00
N1525  N     0.51376   0.87509   0.59933   0.00000  Uiso   1.00
N1526  N     0.55192   0.73601   0.60492   0.00000  Uiso   1.00
N1527  N     0.42476   0.94792   0.97665   0.00000  Uiso   1.00
N1528  N     0.48806   0.79518   0.90794   0.00000  Uiso   1.00
O1529  O     0.50000   0.83333   0.75000   0.00000  Uiso   1.00
O1530  O     0.49027   0.79060   0.66625   0.00000  Uiso   1.00
O1531  O     0.46020   0.87313   0.83749   0.00000  Uiso   1.00
O1532  O     0.54421   0.84159   0.65877   0.00000  Uiso   1.00
O1533  O     0.50532   0.82802   0.83749   0.00000  Uiso   1.00
O1534  O     0.35696   0.85860   0.70568   0.00000  Uiso   1.00
O1535  O     0.58970   0.76046   0.95666   0.00000  Uiso   1.00
O1536  O     0.51182   0.74768   0.77821   0.00000  Uiso   1.00
O1537  O     0.47914   0.92803   0.76767   0.00000  Uiso   1.00
O1538  O     0.40785   0.79917   0.73607   0.00000  Uiso   1.00
O1539  O     0.60119   0.85845   0.71805   0.00000  Uiso   1.00
O1540  O     0.40323   0.85627   0.77820   0.00000  Uiso   1.00
O1541  O     0.58773   0.81944   0.76767   0.00000  Uiso   1.00
O1542  O     0.47133   0.73570   0.73607   0.00000  Uiso   1.00
O1543  O     0.53771   0.92193   0.71806   0.00000  Uiso   1.00
Zn1544 Zn    0.52577   0.80756   0.78278   0.00000  Uiso   1.00
Zn1545 Zn    0.46792   0.79044   0.72258   0.00000  Uiso   1.00
Zn1546 Zn    0.54500   0.86331   0.71188   0.00000  Uiso   1.00
Zn1547 Zn    0.46131   0.87202   0.78277   0.00000  Uiso   1.00
C1548  C     0.71939   0.82673   0.75886   0.00000  Uiso   1.00
C1549  C     0.87443   0.80932   0.95943   0.00000  Uiso   1.00
C1550  C     0.89224   0.78589   0.97894   0.00000  Uiso   1.00
C1551  C     0.94768   0.84021   0.74134   0.00000  Uiso   1.00
C1552  C     0.87860   0.78865   0.52029   0.00000  Uiso   1.00
C1553  C     0.85518   0.82266   0.54103   0.00000  Uiso   1.00
C1554  C     0.88793   0.75919   0.54168   0.00000  Uiso   1.00
C1555  C     0.87798   0.76627   0.58262   0.00000  Uiso   1.00
C1556  C     0.85380   0.83339   0.58096   0.00000  Uiso   1.00
C1557  C     0.99373   0.84191   0.73770   0.00000  Uiso   1.00
C1558  C     0.67398   0.82465   0.76355   0.00000  Uiso   1.00
C1559  C     0.78636   0.90102   0.91725   0.00000  Uiso   1.00
C1560  C     0.84727   0.98880   0.73792   0.00000  Uiso   1.00
C1561  C     0.81830   0.67883   0.76228   0.00000  Uiso   1.00
C1562  C     0.82256   0.72286   0.75897   0.00000  Uiso   1.00
C1563  C     0.84344   0.94432   0.74130   0.00000  Uiso   1.00
C1564  C     0.85475   0.81212   0.64417   0.00000  Uiso   1.00
C1565  C     0.81187   0.85410   0.85618   0.00000  Uiso   1.00
C1566  C     0.80490   0.86450   0.89875   0.00000  Uiso   1.00
C1567  C     0.86295   0.80404   0.60179   0.00000  Uiso   1.00
C1568  C     0.78004   0.91206   0.95753   0.00000  Uiso   1.00
C1569  C     0.69767   0.90244   0.71425   0.00000  Uiso   1.00
C1570  C     0.81783   0.83889   0.92098   0.00000  Uiso   1.00
C1571  C     0.74050   0.91854   0.68639   0.00000  Uiso   1.00
C1572  C     0.75000   0.96598   0.69359   0.00000  Uiso   1.00
C1573  C     0.96487   0.78181   0.95355   0.00000  Uiso   1.00
C1574  C     0.98078   0.80579   0.91710   0.00000  Uiso   1.00
C1575  C     0.69492   0.82289   0.90985   0.00000  Uiso   1.00
C1576  C     0.81964   0.85414   0.95940   0.00000  Uiso   1.00
C1577  C     0.79638   0.88825   0.97882   0.00000  Uiso   1.00
C1578  C     0.84230   0.83522   0.97967   0.00000  Uiso   1.00
C1579  C     0.83462   0.84447   0.52079   0.00000  Uiso   1.00
C1580  C     0.80447   0.87308   0.54026   0.00000  Uiso   1.00
C1581  C     0.78814   0.89651   0.51949   0.00000  Uiso   1.00
H1582  H     0.76723   0.91982   0.53582   0.00000  Uiso   1.00
H1583  H     0.67119   0.91759   0.70993   0.00000  Uiso   1.00
H1584  H     0.76698   0.90349   0.69081   0.00000  Uiso   1.00
H1585  H     0.73946   0.91002   0.65555   0.00000  Uiso   1.00
H1586  H     0.72482   0.98179   0.68786   0.00000  Uiso   1.00
H1587  H     0.78179   0.97649   0.67363   0.00000  Uiso   1.00
H1588  H     0.75099   0.97519   0.72433   0.00000  Uiso   1.00
H1589  H     0.98536   0.82480   0.82257   0.00000  Uiso   1.00
H1590  H     0.98466   0.77681   0.79732   0.00000  Uiso   1.00
H1591  H     0.87490   0.88878   0.60700   0.00000  Uiso   1.00
H1592  H     0.82131   0.87355   0.62480   0.00000  Uiso   1.00
H1593  H     0.87395   0.66934   0.71548   0.00000  Uiso   1.00
H1594  H     0.91781   0.73107   0.59495   0.00000  Uiso   1.00
H1595  H     0.86680   0.70780   0.59968   0.00000  Uiso   1.00
H1596  H     0.98695   0.75774   0.95040   0.00000  Uiso   1.00
H1597  H     0.96709   0.80321   0.98030   0.00000  Uiso   1.00
H1598  H     0.97653   0.78461   0.89102   0.00000  Uiso   1.00
H1599  H     0.96170   0.83252   0.92103   0.00000  Uiso   1.00
H1600  H     0.69991   0.84430   0.93553   0.00000  Uiso   1.00
H1601  H     0.70525   0.84060   0.88369   0.00000  Uiso   1.00
H1602  H     0.71522   0.79684   0.90444   0.00000  Uiso   1.00
H1603  H     0.74546   0.96009   0.95742   0.00000  Uiso   1.00
H1604  H     0.79132   0.99910   0.78490   0.00000  Uiso   1.00
H1605  H     0.78110   0.97116   0.98384   0.00000  Uiso   1.00
H1606  H     0.84901   0.79152   0.88458   0.00000  Uiso   1.00
H1607  H     0.79420   0.78202   0.89895   0.00000  Uiso   1.00
H1608  H     0.77579   0.92053   0.90050   0.00000  Uiso   1.00
H1609  H     0.79194   0.87749   0.57164   0.00000  Uiso   1.00
H1610  H     0.88700   0.80745   0.92798   0.00000  Uiso   1.00
H1611  H     0.93641   0.72581   0.50792   0.00000  Uiso   1.00
H1612  H     0.88584   0.70583   0.50443   0.00000  Uiso   1.00
H1613  H     0.69970   0.91145   0.74492   0.00000  Uiso   1.00
N1614  N     0.90395   0.72027   0.52330   0.00000  Uiso   1.00
N1615  N     0.97838   0.80760   0.79785   0.00000  Uiso   1.00
N1616  N     0.84709   0.87509   0.59933   0.00000  Uiso   1.00
N1617  N     0.88525   0.73601   0.60492   0.00000  Uiso   1.00
N1618  N     0.75809   0.94792   0.97665   0.00000  Uiso   1.00
N1619  N     0.82139   0.79518   0.90794   0.00000  Uiso   1.00
O1620  O     0.83333   0.83333   0.75000   0.00000  Uiso   1.00
O1621  O     0.82360   0.79060   0.66625   0.00000  Uiso   1.00
O1622  O     0.79354   0.87313   0.83749   0.00000  Uiso   1.00
O1623  O     0.87755   0.84159   0.65877   0.00000  Uiso   1.00
O1624  O     0.83865   0.82802   0.83749   0.00000  Uiso   1.00
O1625  O     0.69029   0.85860   0.70568   0.00000  Uiso   1.00
O1626  O     0.92303   0.76046   0.95666   0.00000  Uiso   1.00
O1627  O     0.84515   0.74768   0.77821   0.00000  Uiso   1.00
O1628  O     0.81247   0.92803   0.76767   0.00000  Uiso   1.00
O1629  O     0.74119   0.79917   0.73607   0.00000  Uiso   1.00
O1630  O     0.93452   0.85845   0.71805   0.00000  Uiso   1.00
O1631  O     0.73656   0.85627   0.77820   0.00000  Uiso   1.00
O1632  O     0.92106   0.81944   0.76767   0.00000  Uiso   1.00
O1633  O     0.80467   0.73570   0.73607   0.00000  Uiso   1.00
O1634  O     0.87104   0.92193   0.71806   0.00000  Uiso   1.00
Zn1635 Zn    0.85910   0.80756   0.78278   0.00000  Uiso   1.00
Zn1636 Zn    0.80125   0.79044   0.72258   0.00000  Uiso   1.00
Zn1637 Zn    0.87833   0.86331   0.71188   0.00000  Uiso   1.00
Zn1638 Zn    0.79465   0.87202   0.78277   0.00000  Uiso   1.00
loop_
_geom_bond_atom_site_label_1
_geom_bond_atom_site_label_2
_geom_bond_distance
_geom_bond_site_symmetry_2
_ccdc_geom_bond_type
C1     C11     1.435   .     S
C1     O84     1.265   .     A
C1     O82     1.270   .     A
C2     C31     1.404   .     A
C2     H63     1.078   .     S
C2     C3      1.387   .     A
C3     O79     1.384   .     S
C3     C824    1.412   .     S
C4     O85     1.275   .     A
C4     C10     1.464   .     S
C4     O83     1.288   .     A
C5     C7      1.423   .     A
C5     C6      1.428   .     A
C5     C822    1.412   1_554 S
C6     C32     1.432   .     A
C6     C9      1.415   .     A
C7     C8      1.401   .     A
C7     N67     1.436   .     S
C8     C20     1.399   .     A
C8     N70     1.436   .     S
C9     N69     1.437   .     S
C9     C20     1.404   .     A
C10    C102    1.353   .     S
C10    O169    1.388   .     S
C11    C192    1.353   1_455 S
C11    N250    1.437   1_455 S
C12    C21     1.400   .     A
C12    H61     1.083   .     S
C12    C19     1.402   .     A
C13    C16     1.450   .     S
C13    C287    1.331   .     S
C13    H319    1.088   .     S
C14    C15     1.434   .     S
C14    C559    1.331   1_545 S
C14    H603    1.086   1_545 S
C15    O80     1.280   .     A
C15    O86     1.281   .     A
C16    O87     1.271   .     A
C16    O81     1.272   .     A
C17    C20     1.457   .     S
C17    O76     1.274   .     A
C17    O74     1.274   .     A
C18    O75     1.284   .     A
C18    C19     1.474   .     S
C18    O77     1.282   .     A
C19    C23     1.412   .     A
C21    N71     1.438   .     S
C21    C30     1.411   .     A
C22    H66     1.117   .     S
C22    O78     1.413   .     S
C22    C24     1.529   .     S
C22    H36     1.113   .     S
C23    C29     1.413   .     A
C23    N72     1.440   .     S
C24    H38     1.112   .     S
C24    C25     1.526   .     S
C24    H37     1.112   .     S
C25    H40     1.111   .     S
C25    H41     1.110   .     S
C25    H39     1.111   .     S
C26    C27     1.534   .     S
C26    H50     1.117   .     S
C26    H49     1.111   .     S
C26    O79     1.419   .     S
C27    H52     1.110   .     S
C27    H51     1.112   .     S
C27    C119    1.526   .     S
C28    H55     1.111   .     S
C28    H54     1.110   .     S
C28    H53     1.111   .     S
C28    C209    1.526   1_455 S
C29    C30     1.417   .     A
C29    C31     1.424   .     A
C30    C853    1.398   .     S
C31    C851    1.418   .     S
C32    C33     1.414   .     A
C32    C850    1.418   1_554 S
C33    C34     1.389   .     A
C33    H62     1.075   .     S
C34    H35     1.083   .     S
C34    C849    1.398   1_554 S
H42    N68     1.046   .     S
H43    N68     1.046   .     S
H44    N69     1.045   .     S
H45    N69     1.046   .     S
H46    C559    1.088   1_545 S
H47    N70     1.046   .     S
H48    N70     1.046   .     S
H56    N71     1.046   .     S
H57    C287    1.086   .     S
H58    N71     1.046   .     S
H59    N72     1.043   .     S
H60    N72     1.046   .     S
H64    N67     1.043   .     S
H65    N67     1.045   .     S
N68    C102    1.437   .     S
O73    Zn90    1.936   .     S
O73    Zn91    1.931   .     S
O73    Zn88    1.963   .     S
O73    Zn89    1.949   .     S
O74    Zn89    1.937   .     S
O75    Zn91    1.949   .     S
O76    Zn90    1.943   .     S
O77    Zn88    1.932   .     S
O78    C192    1.388   1_455 S
O80    Zn88    1.925   .     S
O81    Zn91    1.928   .     S
O82    Zn89    1.930   .     S
O83    Zn90    1.942   .     S
O84    Zn91    1.939   .     S
O85    Zn88    1.929   .     S
O86    Zn89    1.932   .     S
O87    Zn90    1.926   .     S
C92    C102    1.435   .     S
C92    O175    1.265   .     A
C92    O173    1.270   .     A
C93    C122    1.404   .     A
C93    H154    1.078   .     S
C93    C94     1.387   .     A
C94    O170    1.384   .     S
C94    C915    1.412   .     S
C95    O176    1.275   .     A
C95    C101    1.464   .     S
C95    O174    1.288   .     A
C96    C98     1.423   .     A
C96    C97     1.428   .     A
C96    C913    1.412   1_554 S
C97    C123    1.432   .     A
C97    C100    1.415   .     A
C98    C99     1.401   .     A
C98    N158    1.436   .     S
C99    C111    1.399   .     A
C99    N161    1.436   .     S
C100   N160    1.437   .     S
C100   C111    1.404   .     A
C101   C193    1.353   .     S
C101   O260    1.388   .     S
C103   C112    1.400   .     A
C103   H152    1.083   .     S
C103   C110    1.402   .     A
C104   C107    1.450   .     S
C104   C378    1.331   .     S
C104   H410    1.088   .     S
C105   C106    1.434   .     S
C105   C650    1.331   1_545 S
C105   H694    1.086   1_545 S
C106   O171    1.280   .     A
C106   O177    1.281   .     A
C107   O178    1.271   .     A
C107   O172    1.272   .     A
C108   C111    1.457   .     S
C108   O167    1.274   .     A
C108   O165    1.274   .     A
C109   O166    1.284   .     A
C109   C110    1.474   .     S
C109   O168    1.282   .     A
C110   C114    1.412   .     A
C112   N162    1.438   .     S
C112   C121    1.411   .     A
C113   H157    1.117   .     S
C113   O169    1.413   .     S
C113   C115    1.529   .     S
C113   H127    1.113   .     S
C114   C120    1.413   .     A
C114   N163    1.440   .     S
C115   H129    1.112   .     S
C115   C116    1.526   .     S
C115   H128    1.112   .     S
C116   H131    1.111   .     S
C116   H132    1.110   .     S
C116   H130    1.111   .     S
C117   C118    1.534   .     S
C117   H141    1.117   .     S
C117   H140    1.111   .     S
C117   O170    1.419   .     S
C118   H143    1.110   .     S
C118   H142    1.112   .     S
C118   C210    1.526   .     S
C119   H146    1.111   .     S
C119   H145    1.110   .     S
C119   H144    1.111   .     S
C120   C121    1.417   .     A
C120   C122    1.424   .     A
C121   C944    1.398   .     S
C122   C942    1.418   .     S
C123   C124    1.414   .     A
C123   C941    1.418   1_554 S
C124   C125    1.389   .     A
C124   H153    1.075   .     S
C125   H126    1.083   .     S
C125   C940    1.398   1_554 S
H133   N159    1.046   .     S
H134   N159    1.046   .     S
H135   N160    1.045   .     S
H136   N160    1.046   .     S
H137   C650    1.088   1_545 S
H138   N161    1.046   .     S
H139   N161    1.046   .     S
H147   N162    1.046   .     S
H148   C378    1.086   .     S
H149   N162    1.046   .     S
H150   N163    1.043   .     S
H151   N163    1.046   .     S
H155   N158    1.043   .     S
H156   N158    1.045   .     S
N159   C193    1.437   .     S
O164   Zn181   1.936   .     S
O164   Zn182   1.931   .     S
O164   Zn179   1.963   .     S
O164   Zn180   1.949   .     S
O165   Zn180   1.937   .     S
O166   Zn182   1.949   .     S
O167   Zn181   1.943   .     S
O168   Zn179   1.932   .     S
O171   Zn179   1.925   .     S
O172   Zn182   1.928   .     S
O173   Zn180   1.930   .     S
O174   Zn181   1.942   .     S
O175   Zn182   1.939   .     S
O176   Zn179   1.929   .     S
O177   Zn180   1.932   .     S
O178   Zn181   1.926   .     S
C183   C193    1.435   .     S
C183   O266    1.265   .     A
C183   O264    1.270   .     A
C184   C213    1.404   .     A
C184   H245    1.078   .     S
C184   C185    1.387   .     A
C185   O261    1.384   .     S
C185   C1006   1.412   .     S
C186   O267    1.275   .     A
C186   C192    1.464   .     S
C186   O265    1.288   .     A
C187   C189    1.423   .     A
C187   C188    1.428   .     A
C187   C1004   1.412   1_554 S
C188   C214    1.432   .     A
C188   C191    1.415   .     A
C189   C190    1.401   .     A
C189   N249    1.436   .     S
C190   C202    1.399   .     A
C190   N252    1.436   .     S
C191   N251    1.437   .     S
C191   C202    1.404   .     A
C192   C11     1.353   1_655 S
C192   O78     1.388   1_655 S
C194   C203    1.400   .     A
C194   H243    1.083   .     S
C194   C201    1.402   .     A
C195   C198    1.450   .     S
C195   C469    1.331   .     S
C195   H501    1.088   .     S
C196   C197    1.434   .     S
C196   C741    1.331   1_545 S
C196   H785    1.086   1_545 S
C197   O262    1.280   .     A
C197   O268    1.281   .     A
C198   O269    1.271   .     A
C198   O263    1.272   .     A
C199   C202    1.457   .     S
C199   O258    1.274   .     A
C199   O256    1.274   .     A
C200   O257    1.284   .     A
C200   C201    1.474   .     S
C200   O259    1.282   .     A
C201   C205    1.412   .     A
C203   N253    1.438   .     S
C203   C212    1.411   .     A
C204   H248    1.117   .     S
C204   O260    1.413   .     S
C204   C206    1.529   .     S
C204   H218    1.113   .     S
C205   C211    1.413   .     A
C205   N254    1.440   .     S
C206   H220    1.112   .     S
C206   C207    1.526   .     S
C206   H219    1.112   .     S
C207   H222    1.111   .     S
C207   H223    1.110   .     S
C207   H221    1.111   .     S
C208   C209    1.534   .     S
C208   H232    1.117   .     S
C208   H231    1.111   .     S
C208   O261    1.419   .     S
C209   H234    1.110   .     S
C209   H233    1.112   .     S
C209   C28     1.526   1_655 S
C210   H237    1.111   .     S
C210   H236    1.110   .     S
C210   H235    1.111   .     S
C211   C212    1.417   .     A
C211   C213    1.424   .     A
C212   C1035   1.398   .     S
C213   C1033   1.418   .     S
C214   C215    1.414   .     A
C214   C1032   1.418   1_554 S
C215   C216    1.389   .     A
C215   H244    1.075   .     S
C216   H217    1.083   .     S
C216   C1031   1.398   1_554 S
H224   N250    1.046   .     S
H225   N250    1.046   .     S
H226   N251    1.045   .     S
H227   N251    1.046   .     S
H228   C741    1.088   1_545 S
H229   N252    1.046   .     S
H230   N252    1.046   .     S
H238   N253    1.046   .     S
H239   C469    1.086   .     S
H240   N253    1.046   .     S
H241   N254    1.043   .     S
H242   N254    1.046   .     S
H246   N249    1.043   .     S
H247   N249    1.045   .     S
N250   C11     1.437   1_655 S
O255   Zn272   1.936   .     S
O255   Zn273   1.931   .     S
O255   Zn270   1.963   .     S
O255   Zn271   1.949   .     S
O256   Zn271   1.937   .     S
O257   Zn273   1.949   .     S
O258   Zn272   1.943   .     S
O259   Zn270   1.932   .     S
O262   Zn270   1.925   .     S
O263   Zn273   1.928   .     S
O264   Zn271   1.930   .     S
O265   Zn272   1.942   .     S
O266   Zn273   1.939   .     S
O267   Zn270   1.929   .     S
O268   Zn271   1.932   .     S
O269   Zn272   1.926   .     S
C274   C284    1.435   .     S
C274   O357    1.265   .     A
C274   O355    1.270   .     A
C275   C304    1.404   .     A
C275   H336    1.078   .     S
C275   C276    1.387   .     A
C276   O352    1.384   .     S
C276   C1097   1.412   .     S
C277   O358    1.275   .     A
C277   C283    1.464   .     S
C277   O356    1.288   .     A
C278   C280    1.423   .     A
C278   C279    1.428   .     A
C278   C1095   1.412   1_554 S
C279   C305    1.432   .     A
C279   C282    1.415   .     A
C280   C281    1.401   .     A
C280   N340    1.436   .     S
C281   C293    1.399   .     A
C281   N343    1.436   .     S
C282   N342    1.437   .     S
C282   C293    1.404   .     A
C283   C375    1.353   .     S
C283   O442    1.388   .     S
C284   C465    1.353   1_455 S
C284   N523    1.437   1_455 S
C285   C294    1.400   .     A
C285   H334    1.083   .     S
C285   C292    1.402   .     A
C286   C289    1.450   .     S
C286   C560    1.331   .     S
C286   H592    1.088   .     S
C287   C288    1.434   .     S
C288   O353    1.280   .     A
C288   O359    1.281   .     A
C289   O360    1.271   .     A
C289   O354    1.272   .     A
C290   C293    1.457   .     S
C290   O349    1.274   .     A
C290   O347    1.274   .     A
C291   O348    1.284   .     A
C291   C292    1.474   .     S
C291   O350    1.282   .     A
C292   C296    1.412   .     A
C294   N344    1.438   .     S
C294   C303    1.411   .     A
C295   H339    1.117   .     S
C295   O351    1.413   .     S
C295   C297    1.529   .     S
C295   H309    1.113   .     S
C296   C302    1.413   .     A
C296   N345    1.440   .     S
C297   H311    1.112   .     S
C297   C298    1.526   .     S
C297   H310    1.112   .     S
C298   H313    1.111   .     S
C298   H314    1.110   .     S
C298   H312    1.111   .     S
C299   C300    1.534   .     S
C299   H323    1.117   .     S
C299   H322    1.111   .     S
C299   O352    1.419   .     S
C300   H325    1.110   .     S
C300   H324    1.112   .     S
C300   C392    1.526   .     S
C301   H328    1.111   .     S
C301   H327    1.110   .     S
C301   H326    1.111   .     S
C301   C482    1.526   1_455 S
C302   C303    1.417   .     A
C302   C304    1.424   .     A
C303   C1126   1.398   .     S
C304   C1124   1.418   .     S
C305   C306    1.414   .     A
C305   C1123   1.418   1_554 S
C306   C307    1.389   .     A
C306   H335    1.075   .     S
C307   H308    1.083   .     S
C307   C1122   1.398   1_554 S
H315   N341    1.046   .     S
H316   N341    1.046   .     S
H317   N342    1.045   .     S
H318   N342    1.046   .     S
H320   N343    1.046   .     S
H321   N343    1.046   .     S
H329   N344    1.046   .     S
H330   C560    1.086   .     S
H331   N344    1.046   .     S
H332   N345    1.043   .     S
H333   N345    1.046   .     S
H337   N340    1.043   .     S
H338   N340    1.045   .     S
N341   C375    1.437   .     S
O346   Zn363   1.936   .     S
O346   Zn364   1.931   .     S
O346   Zn361   1.963   .     S
O346   Zn362   1.949   .     S
O347   Zn362   1.937   .     S
O348   Zn364   1.949   .     S
O349   Zn363   1.943   .     S
O350   Zn361   1.932   .     S
O351   C465    1.388   1_455 S
O353   Zn361   1.925   .     S
O354   Zn364   1.928   .     S
O355   Zn362   1.930   .     S
O356   Zn363   1.942   .     S
O357   Zn364   1.939   .     S
O358   Zn361   1.929   .     S
O359   Zn362   1.932   .     S
O360   Zn363   1.926   .     S
C365   C375    1.435   .     S
C365   O448    1.265   .     A
C365   O446    1.270   .     A
C366   C395    1.404   .     A
C366   H427    1.078   .     S
C366   C367    1.387   .     A
C367   O443    1.384   .     S
C367   C1188   1.412   .     S
C368   O449    1.275   .     A
C368   C374    1.464   .     S
C368   O447    1.288   .     A
C369   C371    1.423   .     A
C369   C370    1.428   .     A
C369   C1186   1.412   1_554 S
C370   C396    1.432   .     A
C370   C373    1.415   .     A
C371   C372    1.401   .     A
C371   N431    1.436   .     S
C372   C384    1.399   .     A
C372   N434    1.436   .     S
C373   N433    1.437   .     S
C373   C384    1.404   .     A
C374   C466    1.353   .     S
C374   O533    1.388   .     S
C376   C385    1.400   .     A
C376   H425    1.083   .     S
C376   C383    1.402   .     A
C377   C380    1.450   .     S
C377   C651    1.331   .     S
C377   H683    1.088   .     S
C378   C379    1.434   .     S
C379   O444    1.280   .     A
C379   O450    1.281   .     A
C380   O451    1.271   .     A
C380   O445    1.272   .     A
C381   C384    1.457   .     S
C381   O440    1.274   .     A
C381   O438    1.274   .     A
C382   O439    1.284   .     A
C382   C383    1.474   .     S
C382   O441    1.282   .     A
C383   C387    1.412   .     A
C385   N435    1.438   .     S
C385   C394    1.411   .     A
C386   H430    1.117   .     S
C386   O442    1.413   .     S
C386   C388    1.529   .     S
C386   H400    1.113   .     S
C387   C393    1.413   .     A
C387   N436    1.440   .     S
C388   H402    1.112   .     S
C388   C389    1.526   .     S
C388   H401    1.112   .     S
C389   H404    1.111   .     S
C389   H405    1.110   .     S
C389   H403    1.111   .     S
C390   C391    1.534   .     S
C390   H414    1.117   .     S
C390   H413    1.111   .     S
C390   O443    1.419   .     S
C391   H416    1.110   .     S
C391   H415    1.112   .     S
C391   C483    1.526   .     S
C392   H419    1.111   .     S
C392   H418    1.110   .     S
C392   H417    1.111   .     S
C393   C394    1.417   .     A
C393   C395    1.424   .     A
C394   C1217   1.398   .     S
C395   C1215   1.418   .     S
C396   C397    1.414   .     A
C396   C1214   1.418   1_554 S
C397   C398    1.389   .     A
C397   H426    1.075   .     S
C398   H399    1.083   .     S
C398   C1213   1.398   1_554 S
H406   N432    1.046   .     S
H407   N432    1.046   .     S
H408   N433    1.045   .     S
H409   N433    1.046   .     S
H411   N434    1.046   .     S
H412   N434    1.046   .     S
H420   N435    1.046   .     S
H421   C651    1.086   .     S
H422   N435    1.046   .     S
H423   N436    1.043   .     S
H424   N436    1.046   .     S
H428   N431    1.043   .     S
H429   N431    1.045   .     S
N432   C466    1.437   .     S
O437   Zn454   1.936   .     S
O437   Zn455   1.931   .     S
O437   Zn452   1.963   .     S
O437   Zn453   1.949   .     S
O438   Zn453   1.937   .     S
O439   Zn455   1.949   .     S
O440   Zn454   1.943   .     S
O441   Zn452   1.932   .     S
O444   Zn452   1.925   .     S
O445   Zn455   1.928   .     S
O446   Zn453   1.930   .     S
O447   Zn454   1.942   .     S
O448   Zn455   1.939   .     S
O449   Zn452   1.929   .     S
O450   Zn453   1.932   .     S
O451   Zn454   1.926   .     S
C456   C466    1.435   .     S
C456   O539    1.265   .     A
C456   O537    1.270   .     A
C457   C486    1.404   .     A
C457   H518    1.078   .     S
C457   C458    1.387   .     A
C458   O534    1.384   .     S
C458   C1279   1.412   .     S
C459   O540    1.275   .     A
C459   C465    1.464   .     S
C459   O538    1.288   .     A
C460   C462    1.423   .     A
C460   C461    1.428   .     A
C460   C1277   1.412   1_554 S
C461   C487    1.432   .     A
C461   C464    1.415   .     A
C462   C463    1.401   .     A
C462   N522    1.436   .     S
C463   C475    1.399   .     A
C463   N525    1.436   .     S
C464   N524    1.437   .     S
C464   C475    1.404   .     A
C465   C284    1.353   1_655 S
C465   O351    1.388   1_655 S
C467   C476    1.400   .     A
C467   H516    1.083   .     S
C467   C474    1.402   .     A
C468   C471    1.450   .     S
C468   C742    1.331   .     S
C468   H774    1.088   .     S
C469   C470    1.434   .     S
C470   O535    1.280   .     A
C470   O541    1.281   .     A
C471   O542    1.271   .     A
C471   O536    1.272   .     A
C472   C475    1.457   .     S
C472   O531    1.274   .     A
C472   O529    1.274   .     A
C473   O530    1.284   .     A
C473   C474    1.474   .     S
C473   O532    1.282   .     A
C474   C478    1.412   .     A
C476   N526    1.438   .     S
C476   C485    1.411   .     A
C477   H521    1.117   .     S
C477   O533    1.413   .     S
C477   C479    1.529   .     S
C477   H491    1.113   .     S
C478   C484    1.413   .     A
C478   N527    1.440   .     S
C479   H493    1.112   .     S
C479   C480    1.526   .     S
C479   H492    1.112   .     S
C480   H495    1.111   .     S
C480   H496    1.110   .     S
C480   H494    1.111   .     S
C481   C482    1.534   .     S
C481   H505    1.117   .     S
C481   H504    1.111   .     S
C481   O534    1.419   .     S
C482   H507    1.110   .     S
C482   H506    1.112   .     S
C482   C301    1.526   1_655 S
C483   H510    1.111   .     S
C483   H509    1.110   .     S
C483   H508    1.111   .     S
C484   C485    1.417   .     A
C484   C486    1.424   .     A
C485   C1308   1.398   .     S
C486   C1306   1.418   .     S
C487   C488    1.414   .     A
C487   C1305   1.418   1_554 S
C488   C489    1.389   .     A
C488   H517    1.075   .     S
C489   H490    1.083   .     S
C489   C1304   1.398   1_554 S
H497   N523    1.046   .     S
H498   N523    1.046   .     S
H499   N524    1.045   .     S
H500   N524    1.046   .     S
H502   N525    1.046   .     S
H503   N525    1.046   .     S
H511   N526    1.046   .     S
H512   C742    1.086   .     S
H513   N526    1.046   .     S
H514   N527    1.043   .     S
H515   N527    1.046   .     S
H519   N522    1.043   .     S
H520   N522    1.045   .     S
N523   C284    1.437   1_655 S
O528   Zn545   1.936   .     S
O528   Zn546   1.931   .     S
O528   Zn543   1.963   .     S
O528   Zn544   1.949   .     S
O529   Zn544   1.937   .     S
O530   Zn546   1.949   .     S
O531   Zn545   1.943   .     S
O532   Zn543   1.932   .     S
O535   Zn543   1.925   .     S
O536   Zn546   1.928   .     S
O537   Zn544   1.930   .     S
O538   Zn545   1.942   .     S
O539   Zn546   1.939   .     S
O540   Zn543   1.929   .     S
O541   Zn544   1.932   .     S
O542   Zn545   1.926   .     S
C547   C557    1.435   .     S
C547   O630    1.265   .     A
C547   O628    1.270   .     A
C548   C577    1.404   .     A
C548   H609    1.078   .     S
C548   C549    1.387   .     A
C549   O625    1.384   .     S
C549   C1370   1.412   .     S
C550   O631    1.275   .     A
C550   C556    1.464   .     S
C550   O629    1.288   .     A
C551   C553    1.423   .     A
C551   C552    1.428   .     A
C551   C1368   1.412   1_554 S
C552   C578    1.432   .     A
C552   C555    1.415   .     A
C553   C554    1.401   .     A
C553   N613    1.436   .     S
C554   C566    1.399   .     A
C554   N616    1.436   .     S
C555   N615    1.437   .     S
C555   C566    1.404   .     A
C556   C648    1.353   .     S
C556   O715    1.388   .     S
C557   C738    1.353   1_455 S
C557   N796    1.437   1_455 S
C558   C567    1.400   .     A
C558   H607    1.083   .     S
C558   C565    1.402   .     A
C559   C562    1.450   .     S
C559   C14     1.331   1_565 S
C559   H46     1.088   1_565 S
C560   C561    1.434   .     S
C561   O626    1.280   .     A
C561   O632    1.281   .     A
C562   O633    1.271   .     A
C562   O627    1.272   .     A
C563   C566    1.457   .     S
C563   O622    1.274   .     A
C563   O620    1.274   .     A
C564   O621    1.284   .     A
C564   C565    1.474   .     S
C564   O623    1.282   .     A
C565   C569    1.412   .     A
C567   N617    1.438   .     S
C567   C576    1.411   .     A
C568   H612    1.117   .     S
C568   O624    1.413   .     S
C568   C570    1.529   .     S
C568   H582    1.113   .     S
C569   C575    1.413   .     A
C569   N618    1.440   .     S
C570   H584    1.112   .     S
C570   C571    1.526   .     S
C570   H583    1.112   .     S
C571   H586    1.111   .     S
C571   H587    1.110   .     S
C571   H585    1.111   .     S
C572   C573    1.534   .     S
C572   H596    1.117   .     S
C572   H595    1.111   .     S
C572   O625    1.419   .     S
C573   H598    1.110   .     S
C573   H597    1.112   .     S
C573   C665    1.526   .     S
C574   H601    1.111   .     S
C574   H600    1.110   .     S
C574   H599    1.111   .     S
C574   C755    1.526   1_455 S
C575   C576    1.417   .     A
C575   C577    1.424   .     A
C576   C1399   1.398   .     S
C577   C1397   1.418   .     S
C578   C579    1.414   .     A
C578   C1396   1.418   1_554 S
C579   C580    1.389   .     A
C579   H608    1.075   .     S
C580   H581    1.083   .     S
C580   C1395   1.398   1_554 S
H588   N614    1.046   .     S
H589   N614    1.046   .     S
H590   N615    1.045   .     S
H591   N615    1.046   .     S
H593   N616    1.046   .     S
H594   N616    1.046   .     S
H602   N617    1.046   .     S
H603   C14     1.086   1_565 S
H604   N617    1.046   .     S
H605   N618    1.043   .     S
H606   N618    1.046   .     S
H610   N613    1.043   .     S
H611   N613    1.045   .     S
N614   C648    1.437   .     S
O619   Zn636   1.936   .     S
O619   Zn637   1.931   .     S
O619   Zn634   1.963   .     S
O619   Zn635   1.949   .     S
O620   Zn635   1.937   .     S
O621   Zn637   1.949   .     S
O622   Zn636   1.943   .     S
O623   Zn634   1.932   .     S
O624   C738    1.388   1_455 S
O626   Zn634   1.925   .     S
O627   Zn637   1.928   .     S
O628   Zn635   1.930   .     S
O629   Zn636   1.942   .     S
O630   Zn637   1.939   .     S
O631   Zn634   1.929   .     S
O632   Zn635   1.932   .     S
O633   Zn636   1.926   .     S
C638   C648    1.435   .     S
C638   O721    1.265   .     A
C638   O719    1.270   .     A
C639   C668    1.404   .     A
C639   H700    1.078   .     S
C639   C640    1.387   .     A
C640   O716    1.384   .     S
C640   C1461   1.412   .     S
C641   O722    1.275   .     A
C641   C647    1.464   .     S
C641   O720    1.288   .     A
C642   C644    1.423   .     A
C642   C643    1.428   .     A
C642   C1459   1.412   1_554 S
C643   C669    1.432   .     A
C643   C646    1.415   .     A
C644   C645    1.401   .     A
C644   N704    1.436   .     S
C645   C657    1.399   .     A
C645   N707    1.436   .     S
C646   N706    1.437   .     S
C646   C657    1.404   .     A
C647   C739    1.353   .     S
C647   O806    1.388   .     S
C649   C658    1.400   .     A
C649   H698    1.083   .     S
C649   C656    1.402   .     A
C650   C653    1.450   .     S
C650   C105    1.331   1_565 S
C650   H137    1.088   1_565 S
C651   C652    1.434   .     S
C652   O717    1.280   .     A
C652   O723    1.281   .     A
C653   O724    1.271   .     A
C653   O718    1.272   .     A
C654   C657    1.457   .     S
C654   O713    1.274   .     A
C654   O711    1.274   .     A
C655   O712    1.284   .     A
C655   C656    1.474   .     S
C655   O714    1.282   .     A
C656   C660    1.412   .     A
C658   N708    1.438   .     S
C658   C667    1.411   .     A
C659   H703    1.117   .     S
C659   O715    1.413   .     S
C659   C661    1.529   .     S
C659   H673    1.113   .     S
C660   C666    1.413   .     A
C660   N709    1.440   .     S
C661   H675    1.112   .     S
C661   C662    1.526   .     S
C661   H674    1.112   .     S
C662   H677    1.111   .     S
C662   H678    1.110   .     S
C662   H676    1.111   .     S
C663   C664    1.534   .     S
C663   H687    1.117   .     S
C663   H686    1.111   .     S
C663   O716    1.419   .     S
C664   H689    1.110   .     S
C664   H688    1.112   .     S
C664   C756    1.526   .     S
C665   H692    1.111   .     S
C665   H691    1.110   .     S
C665   H690    1.111   .     S
C666   C667    1.417   .     A
C666   C668    1.424   .     A
C667   C1490   1.398   .     S
C668   C1488   1.418   .     S
C669   C670    1.414   .     A
C669   C1487   1.418   1_554 S
C670   C671    1.389   .     A
C670   H699    1.075   .     S
C671   H672    1.083   .     S
C671   C1486   1.398   1_554 S
H679   N705    1.046   .     S
H680   N705    1.046   .     S
H681   N706    1.045   .     S
H682   N706    1.046   .     S
H684   N707    1.046   .     S
H685   N707    1.046   .     S
H693   N708    1.046   .     S
H694   C105    1.086   1_565 S
H695   N708    1.046   .     S
H696   N709    1.043   .     S
H697   N709    1.046   .     S
H701   N704    1.043   .     S
H702   N704    1.045   .     S
N705   C739    1.437   .     S
O710   Zn727   1.936   .     S
O710   Zn728   1.931   .     S
O710   Zn725   1.963   .     S
O710   Zn726   1.949   .     S
O711   Zn726   1.937   .     S
O712   Zn728   1.949   .     S
O713   Zn727   1.943   .     S
O714   Zn725   1.932   .     S
O717   Zn725   1.925   .     S
O718   Zn728   1.928   .     S
O719   Zn726   1.930   .     S
O720   Zn727   1.942   .     S
O721   Zn728   1.939   .     S
O722   Zn725   1.929   .     S
O723   Zn726   1.932   .     S
O724   Zn727   1.926   .     S
C729   C739    1.435   .     S
C729   O812    1.265   .     A
C729   O810    1.270   .     A
C730   C759    1.404   .     A
C730   H791    1.078   .     S
C730   C731    1.387   .     A
C731   O807    1.384   .     S
C731   C1552   1.412   .     S
C732   O813    1.275   .     A
C732   C738    1.464   .     S
C732   O811    1.288   .     A
C733   C735    1.423   .     A
C733   C734    1.428   .     A
C733   C1550   1.412   1_554 S
C734   C760    1.432   .     A
C734   C737    1.415   .     A
C735   C736    1.401   .     A
C735   N795    1.436   .     S
C736   C748    1.399   .     A
C736   N798    1.436   .     S
C737   N797    1.437   .     S
C737   C748    1.404   .     A
C738   C557    1.353   1_655 S
C738   O624    1.388   1_655 S
C740   C749    1.400   .     A
C740   H789    1.083   .     S
C740   C747    1.402   .     A
C741   C744    1.450   .     S
C741   C196    1.331   1_565 S
C741   H228    1.088   1_565 S
C742   C743    1.434   .     S
C743   O808    1.280   .     A
C743   O814    1.281   .     A
C744   O815    1.271   .     A
C744   O809    1.272   .     A
C745   C748    1.457   .     S
C745   O804    1.274   .     A
C745   O802    1.274   .     A
C746   O803    1.284   .     A
C746   C747    1.474   .     S
C746   O805    1.282   .     A
C747   C751    1.412   .     A
C749   N799    1.438   .     S
C749   C758    1.411   .     A
C750   H794    1.117   .     S
C750   O806    1.413   .     S
C750   C752    1.529   .     S
C750   H764    1.113   .     S
C751   C757    1.413   .     A
C751   N800    1.440   .     S
C752   H766    1.112   .     S
C752   C753    1.526   .     S
C752   H765    1.112   .     S
C753   H768    1.111   .     S
C753   H769    1.110   .     S
C753   H767    1.111   .     S
C754   C755    1.534   .     S
C754   H778    1.117   .     S
C754   H777    1.111   .     S
C754   O807    1.419   .     S
C755   H780    1.110   .     S
C755   H779    1.112   .     S
C755   C574    1.526   1_655 S
C756   H783    1.111   .     S
C756   H782    1.110   .     S
C756   H781    1.111   .     S
C757   C758    1.417   .     A
C757   C759    1.424   .     A
C758   C1581   1.398   .     S
C759   C1579   1.418   .     S
C760   C761    1.414   .     A
C760   C1578   1.418   1_554 S
C761   C762    1.389   .     A
C761   H790    1.075   .     S
C762   H763    1.083   .     S
C762   C1577   1.398   1_554 S
H770   N796    1.046   .     S
H771   N796    1.046   .     S
H772   N797    1.045   .     S
H773   N797    1.046   .     S
H775   N798    1.046   .     S
H776   N798    1.046   .     S
H784   N799    1.046   .     S
H785   C196    1.086   1_565 S
H786   N799    1.046   .     S
H787   N800    1.043   .     S
H788   N800    1.046   .     S
H792   N795    1.043   .     S
H793   N795    1.045   .     S
N796   C557    1.437   1_655 S
O801   Zn818   1.936   .     S
O801   Zn819   1.931   .     S
O801   Zn816   1.963   .     S
O801   Zn817   1.949   .     S
O802   Zn817   1.937   .     S
O803   Zn819   1.949   .     S
O804   Zn818   1.943   .     S
O805   Zn816   1.932   .     S
O808   Zn816   1.925   .     S
O809   Zn819   1.928   .     S
O810   Zn817   1.930   .     S
O811   Zn818   1.942   .     S
O812   Zn819   1.939   .     S
O813   Zn816   1.929   .     S
O814   Zn817   1.932   .     S
O815   Zn818   1.926   .     S
C820   C830    1.435   .     S
C820   O903    1.265   .     A
C820   O901    1.270   .     A
C821   C850    1.404   .     A
C821   H882    1.078   .     S
C821   C822    1.387   .     A
C822   O898    1.384   .     S
C822   C5      1.412   1_556 S
C823   O904    1.275   .     A
C823   C829    1.464   .     S
C823   O902    1.288   .     A
C824   C826    1.423   .     A
C824   C825    1.428   .     A
C825   C851    1.432   .     A
C825   C828    1.415   .     A
C826   C827    1.401   .     A
C826   N886    1.436   .     S
C827   C839    1.399   .     A
C827   N889    1.436   .     S
C828   N888    1.437   .     S
C828   C839    1.404   .     A
C829   C921    1.353   .     S
C829   O988    1.388   .     S
C830   C1011   1.353   1_455 S
C830   N1069   1.437   1_455 S
C831   C840    1.400   .     A
C831   H880    1.083   .     S
C831   C838    1.402   .     A
C832   C835    1.450   .     S
C832   C1106   1.331   .     S
C832   H1138   1.088   .     S
C833   C834    1.434   .     S
C833   C1378   1.331   1_545 S
C833   H1422   1.086   1_545 S
C834   O899    1.280   .     A
C834   O905    1.281   .     A
C835   O906    1.271   .     A
C835   O900    1.272   .     A
C836   C839    1.457   .     S
C836   O895    1.274   .     A
C836   O893    1.274   .     A
C837   O894    1.284   .     A
C837   C838    1.474   .     S
C837   O896    1.282   .     A
C838   C842    1.412   .     A
C840   N890    1.438   .     S
C840   C849    1.411   .     A
C841   H885    1.117   .     S
C841   O897    1.413   .     S
C841   C843    1.529   .     S
C841   H855    1.113   .     S
C842   C848    1.413   .     A
C842   N891    1.440   .     S
C843   H857    1.112   .     S
C843   C844    1.526   .     S
C843   H856    1.112   .     S
C844   H859    1.111   .     S
C844   H860    1.110   .     S
C844   H858    1.111   .     S
C845   C846    1.534   .     S
C845   H869    1.117   .     S
C845   H868    1.111   .     S
C845   O898    1.419   .     S
C846   H871    1.110   .     S
C846   H870    1.112   .     S
C846   C938    1.526   .     S
C847   H874    1.111   .     S
C847   H873    1.110   .     S
C847   H872    1.111   .     S
C847   C1028   1.526   1_455 S
C848   C849    1.417   .     A
C848   C850    1.424   .     A
C849   C34     1.398   1_556 S
C850   C32     1.418   1_556 S
C851   C852    1.414   .     A
C852   C853    1.389   .     A
C852   H881    1.075   .     S
C853   H854    1.083   .     S
H861   N887    1.046   .     S
H862   N887    1.046   .     S
H863   N888    1.045   .     S
H864   N888    1.046   .     S
H865   C1378   1.088   1_545 S
H866   N889    1.046   .     S
H867   N889    1.046   .     S
H875   N890    1.046   .     S
H876   C1106   1.086   .     S
H877   N890    1.046   .     S
H878   N891    1.043   .     S
H879   N891    1.046   .     S
H883   N886    1.043   .     S
H884   N886    1.045   .     S
N887   C921    1.437   .     S
O892   Zn909   1.936   .     S
O892   Zn910   1.931   .     S
O892   Zn907   1.963   .     S
O892   Zn908   1.949   .     S
O893   Zn908   1.937   .     S
O894   Zn910   1.949   .     S
O895   Zn909   1.943   .     S
O896   Zn907   1.932   .     S
O897   C1011   1.388   1_455 S
O899   Zn907   1.925   .     S
O900   Zn910   1.928   .     S
O901   Zn908   1.930   .     S
O902   Zn909   1.942   .     S
O903   Zn910   1.939   .     S
O904   Zn907   1.929   .     S
O905   Zn908   1.932   .     S
O906   Zn909   1.926   .     S
C911   C921    1.435   .     S
C911   O994    1.265   .     A
C911   O992    1.270   .     A
C912   C941    1.404   .     A
C912   H973    1.078   .     S
C912   C913    1.387   .     A
C913   O989    1.384   .     S
C913   C96     1.412   1_556 S
C914   O995    1.275   .     A
C914   C920    1.464   .     S
C914   O993    1.288   .     A
C915   C917    1.423   .     A
C915   C916    1.428   .     A
C916   C942    1.432   .     A
C916   C919    1.415   .     A
C917   C918    1.401   .     A
C917   N977    1.436   .     S
C918   C930    1.399   .     A
C918   N980    1.436   .     S
C919   N979    1.437   .     S
C919   C930    1.404   .     A
C920   C1012   1.353   .     S
C920   O1079   1.388   .     S
C922   C931    1.400   .     A
C922   H971    1.083   .     S
C922   C929    1.402   .     A
C923   C926    1.450   .     S
C923   C1197   1.331   .     S
C923   H1229   1.088   .     S
C924   C925    1.434   .     S
C924   C1469   1.331   1_545 S
C924   H1513   1.086   1_545 S
C925   O990    1.280   .     A
C925   O996    1.281   .     A
C926   O997    1.271   .     A
C926   O991    1.272   .     A
C927   C930    1.457   .     S
C927   O986    1.274   .     A
C927   O984    1.274   .     A
C928   O985    1.284   .     A
C928   C929    1.474   .     S
C928   O987    1.282   .     A
C929   C933    1.412   .     A
C931   N981    1.438   .     S
C931   C940    1.411   .     A
C932   H976    1.117   .     S
C932   O988    1.413   .     S
C932   C934    1.529   .     S
C932   H946    1.113   .     S
C933   C939    1.413   .     A
C933   N982    1.440   .     S
C934   H948    1.112   .     S
C934   C935    1.526   .     S
C934   H947    1.112   .     S
C935   H950    1.111   .     S
C935   H951    1.110   .     S
C935   H949    1.111   .     S
C936   C937    1.534   .     S
C936   H960    1.117   .     S
C936   H959    1.111   .     S
C936   O989    1.419   .     S
C937   H962    1.110   .     S
C937   H961    1.112   .     S
C937   C1029   1.526   .     S
C938   H965    1.111   .     S
C938   H964    1.110   .     S
C938   H963    1.111   .     S
C939   C940    1.417   .     A
C939   C941    1.424   .     A
C940   C125    1.398   1_556 S
C941   C123    1.418   1_556 S
C942   C943    1.414   .     A
C943   C944    1.389   .     A
C943   H972    1.075   .     S
C944   H945    1.083   .     S
H952   N978    1.046   .     S
H953   N978    1.046   .     S
H954   N979    1.045   .     S
H955   N979    1.046   .     S
H956   C1469   1.088   1_545 S
H957   N980    1.046   .     S
H958   N980    1.046   .     S
H966   N981    1.046   .     S
H967   C1197   1.086   .     S
H968   N981    1.046   .     S
H969   N982    1.043   .     S
H970   N982    1.046   .     S
H974   N977    1.043   .     S
H975   N977    1.045   .     S
N978   C1012   1.437   .     S
O983   Zn1000  1.936   .     S
O983   Zn1001  1.931   .     S
O983   Zn998   1.963   .     S
O983   Zn999   1.949   .     S
O984   Zn999   1.937   .     S
O985   Zn1001  1.949   .     S
O986   Zn1000  1.943   .     S
O987   Zn998   1.932   .     S
O990   Zn998   1.925   .     S
O991   Zn1001  1.928   .     S
O992   Zn999   1.930   .     S
O993   Zn1000  1.942   .     S
O994   Zn1001  1.939   .     S
O995   Zn998   1.929   .     S
O996   Zn999   1.932   .     S
O997   Zn1000  1.926   .     S
C1002  C1012   1.435   .     S
C1002  O1085   1.265   .     A
C1002  O1083   1.270   .     A
C1003  C1032   1.404   .     A
C1003  H1064   1.078   .     S
C1003  C1004   1.387   .     A
C1004  O1080   1.384   .     S
C1004  C187    1.412   1_556 S
C1005  O1086   1.275   .     A
C1005  C1011   1.464   .     S
C1005  O1084   1.288   .     A
C1006  C1008   1.423   .     A
C1006  C1007   1.428   .     A
C1007  C1033   1.432   .     A
C1007  C1010   1.415   .     A
C1008  C1009   1.401   .     A
C1008  N1068   1.436   .     S
C1009  C1021   1.399   .     A
C1009  N1071   1.436   .     S
C1010  N1070   1.437   .     S
C1010  C1021   1.404   .     A
C1011  C830    1.353   1_655 S
C1011  O897    1.388   1_655 S
C1013  C1022   1.400   .     A
C1013  H1062   1.083   .     S
C1013  C1020   1.402   .     A
C1014  C1017   1.450   .     S
C1014  C1288   1.331   .     S
C1014  H1320   1.088   .     S
C1015  C1016   1.434   .     S
C1015  C1560   1.331   1_545 S
C1015  H1604   1.086   1_545 S
C1016  O1081   1.280   .     A
C1016  O1087   1.281   .     A
C1017  O1088   1.271   .     A
C1017  O1082   1.272   .     A
C1018  C1021   1.457   .     S
C1018  O1077   1.274   .     A
C1018  O1075   1.274   .     A
C1019  O1076   1.284   .     A
C1019  C1020   1.474   .     S
C1019  O1078   1.282   .     A
C1020  C1024   1.412   .     A
C1022  N1072   1.438   .     S
C1022  C1031   1.411   .     A
C1023  H1067   1.117   .     S
C1023  O1079   1.413   .     S
C1023  C1025   1.529   .     S
C1023  H1037   1.113   .     S
C1024  C1030   1.413   .     A
C1024  N1073   1.440   .     S
C1025  H1039   1.112   .     S
C1025  C1026   1.526   .     S
C1025  H1038   1.112   .     S
C1026  H1041   1.111   .     S
C1026  H1042   1.110   .     S
C1026  H1040   1.111   .     S
C1027  C1028   1.534   .     S
C1027  H1051   1.117   .     S
C1027  H1050   1.111   .     S
C1027  O1080   1.419   .     S
C1028  H1053   1.110   .     S
C1028  H1052   1.112   .     S
C1028  C847    1.526   1_655 S
C1029  H1056   1.111   .     S
C1029  H1055   1.110   .     S
C1029  H1054   1.111   .     S
C1030  C1031   1.417   .     A
C1030  C1032   1.424   .     A
C1031  C216    1.398   1_556 S
C1032  C214    1.418   1_556 S
C1033  C1034   1.414   .     A
C1034  C1035   1.389   .     A
C1034  H1063   1.075   .     S
C1035  H1036   1.083   .     S
H1043  N1069   1.046   .     S
H1044  N1069   1.046   .     S
H1045  N1070   1.045   .     S
H1046  N1070   1.046   .     S
H1047  C1560   1.088   1_545 S
H1048  N1071   1.046   .     S
H1049  N1071   1.046   .     S
H1057  N1072   1.046   .     S
H1058  C1288   1.086   .     S
H1059  N1072   1.046   .     S
H1060  N1073   1.043   .     S
H1061  N1073   1.046   .     S
H1065  N1068   1.043   .     S
H1066  N1068   1.045   .     S
N1069  C830    1.437   1_655 S
O1074  Zn1091  1.936   .     S
O1074  Zn1092  1.931   .     S
O1074  Zn1089  1.963   .     S
O1074  Zn1090  1.949   .     S
O1075  Zn1090  1.937   .     S
O1076  Zn1092  1.949   .     S
O1077  Zn1091  1.943   .     S
O1078  Zn1089  1.932   .     S
O1081  Zn1089  1.925   .     S
O1082  Zn1092  1.928   .     S
O1083  Zn1090  1.930   .     S
O1084  Zn1091  1.942   .     S
O1085  Zn1092  1.939   .     S
O1086  Zn1089  1.929   .     S
O1087  Zn1090  1.932   .     S
O1088  Zn1091  1.926   .     S
C1093  C1103   1.435   .     S
C1093  O1176   1.265   .     A
C1093  O1174   1.270   .     A
C1094  C1123   1.404   .     A
C1094  H1155   1.078   .     S
C1094  C1095   1.387   .     A
C1095  O1171   1.384   .     S
C1095  C278    1.412   1_556 S
C1096  O1177   1.275   .     A
C1096  C1102   1.464   .     S
C1096  O1175   1.288   .     A
C1097  C1099   1.423   .     A
C1097  C1098   1.428   .     A
C1098  C1124   1.432   .     A
C1098  C1101   1.415   .     A
C1099  C1100   1.401   .     A
C1099  N1159   1.436   .     S
C1100  C1112   1.399   .     A
C1100  N1162   1.436   .     S
C1101  N1161   1.437   .     S
C1101  C1112   1.404   .     A
C1102  C1194   1.353   .     S
C1102  O1261   1.388   .     S
C1103  C1284   1.353   1_455 S
C1103  N1342   1.437   1_455 S
C1104  C1113   1.400   .     A
C1104  H1153   1.083   .     S
C1104  C1111   1.402   .     A
C1105  C1108   1.450   .     S
C1105  C1379   1.331   .     S
C1105  H1411   1.088   .     S
C1106  C1107   1.434   .     S
C1107  O1172   1.280   .     A
C1107  O1178   1.281   .     A
C1108  O1179   1.271   .     A
C1108  O1173   1.272   .     A
C1109  C1112   1.457   .     S
C1109  O1168   1.274   .     A
C1109  O1166   1.274   .     A
C1110  O1167   1.284   .     A
C1110  C1111   1.474   .     S
C1110  O1169   1.282   .     A
C1111  C1115   1.412   .     A
C1113  N1163   1.438   .     S
C1113  C1122   1.411   .     A
C1114  H1158   1.117   .     S
C1114  O1170   1.413   .     S
C1114  C1116   1.529   .     S
C1114  H1128   1.113   .     S
C1115  C1121   1.413   .     A
C1115  N1164   1.440   .     S
C1116  H1130   1.112   .     S
C1116  C1117   1.526   .     S
C1116  H1129   1.112   .     S
C1117  H1132   1.111   .     S
C1117  H1133   1.110   .     S
C1117  H1131   1.111   .     S
C1118  C1119   1.534   .     S
C1118  H1142   1.117   .     S
C1118  H1141   1.111   .     S
C1118  O1171   1.419   .     S
C1119  H1144   1.110   .     S
C1119  H1143   1.112   .     S
C1119  C1211   1.526   .     S
C1120  H1147   1.111   .     S
C1120  H1146   1.110   .     S
C1120  H1145   1.111   .     S
C1120  C1301   1.526   1_455 S
C1121  C1122   1.417   .     A
C1121  C1123   1.424   .     A
C1122  C307    1.398   1_556 S
C1123  C305    1.418   1_556 S
C1124  C1125   1.414   .     A
C1125  C1126   1.389   .     A
C1125  H1154   1.075   .     S
C1126  H1127   1.083   .     S
H1134  N1160   1.046   .     S
H1135  N1160   1.046   .     S
H1136  N1161   1.045   .     S
H1137  N1161   1.046   .     S
H1139  N1162   1.046   .     S
H1140  N1162   1.046   .     S
H1148  N1163   1.046   .     S
H1149  C1379   1.086   .     S
H1150  N1163   1.046   .     S
H1151  N1164   1.043   .     S
H1152  N1164   1.046   .     S
H1156  N1159   1.043   .     S
H1157  N1159   1.045   .     S
N1160  C1194   1.437   .     S
O1165  Zn1182  1.936   .     S
O1165  Zn1183  1.931   .     S
O1165  Zn1180  1.963   .     S
O1165  Zn1181  1.949   .     S
O1166  Zn1181  1.937   .     S
O1167  Zn1183  1.949   .     S
O1168  Zn1182  1.943   .     S
O1169  Zn1180  1.932   .     S
O1170  C1284   1.388   1_455 S
O1172  Zn1180  1.925   .     S
O1173  Zn1183  1.928   .     S
O1174  Zn1181  1.930   .     S
O1175  Zn1182  1.942   .     S
O1176  Zn1183  1.939   .     S
O1177  Zn1180  1.929   .     S
O1178  Zn1181  1.932   .     S
O1179  Zn1182  1.926   .     S
C1184  C1194   1.435   .     S
C1184  O1267   1.265   .     A
C1184  O1265   1.270   .     A
C1185  C1214   1.404   .     A
C1185  H1246   1.078   .     S
C1185  C1186   1.387   .     A
C1186  O1262   1.384   .     S
C1186  C369    1.412   1_556 S
C1187  O1268   1.275   .     A
C1187  C1193   1.464   .     S
C1187  O1266   1.288   .     A
C1188  C1190   1.423   .     A
C1188  C1189   1.428   .     A
C1189  C1215   1.432   .     A
C1189  C1192   1.415   .     A
C1190  C1191   1.401   .     A
C1190  N1250   1.436   .     S
C1191  C1203   1.399   .     A
C1191  N1253   1.436   .     S
C1192  N1252   1.437   .     S
C1192  C1203   1.404   .     A
C1193  C1285   1.353   .     S
C1193  O1352   1.388   .     S
C1195  C1204   1.400   .     A
C1195  H1244   1.083   .     S
C1195  C1202   1.402   .     A
C1196  C1199   1.450   .     S
C1196  C1470   1.331   .     S
C1196  H1502   1.088   .     S
C1197  C1198   1.434   .     S
C1198  O1263   1.280   .     A
C1198  O1269   1.281   .     A
C1199  O1270   1.271   .     A
C1199  O1264   1.272   .     A
C1200  C1203   1.457   .     S
C1200  O1259   1.274   .     A
C1200  O1257   1.274   .     A
C1201  O1258   1.284   .     A
C1201  C1202   1.474   .     S
C1201  O1260   1.282   .     A
C1202  C1206   1.412   .     A
C1204  N1254   1.438   .     S
C1204  C1213   1.411   .     A
C1205  H1249   1.117   .     S
C1205  O1261   1.413   .     S
C1205  C1207   1.529   .     S
C1205  H1219   1.113   .     S
C1206  C1212   1.413   .     A
C1206  N1255   1.440   .     S
C1207  H1221   1.112   .     S
C1207  C1208   1.526   .     S
C1207  H1220   1.112   .     S
C1208  H1223   1.111   .     S
C1208  H1224   1.110   .     S
C1208  H1222   1.111   .     S
C1209  C1210   1.534   .     S
C1209  H1233   1.117   .     S
C1209  H1232   1.111   .     S
C1209  O1262   1.419   .     S
C1210  H1235   1.110   .     S
C1210  H1234   1.112   .     S
C1210  C1302   1.526   .     S
C1211  H1238   1.111   .     S
C1211  H1237   1.110   .     S
C1211  H1236   1.111   .     S
C1212  C1213   1.417   .     A
C1212  C1214   1.424   .     A
C1213  C398    1.398   1_556 S
C1214  C396    1.418   1_556 S
C1215  C1216   1.414   .     A
C1216  C1217   1.389   .     A
C1216  H1245   1.075   .     S
C1217  H1218   1.083   .     S
H1225  N1251   1.046   .     S
H1226  N1251   1.046   .     S
H1227  N1252   1.045   .     S
H1228  N1252   1.046   .     S
H1230  N1253   1.046   .     S
H1231  N1253   1.046   .     S
H1239  N1254   1.046   .     S
H1240  C1470   1.086   .     S
H1241  N1254   1.046   .     S
H1242  N1255   1.043   .     S
H1243  N1255   1.046   .     S
H1247  N1250   1.043   .     S
H1248  N1250   1.045   .     S
N1251  C1285   1.437   .     S
O1256  Zn1273  1.936   .     S
O1256  Zn1274  1.931   .     S
O1256  Zn1271  1.963   .     S
O1256  Zn1272  1.949   .     S
O1257  Zn1272  1.937   .     S
O1258  Zn1274  1.949   .     S
O1259  Zn1273  1.943   .     S
O1260  Zn1271  1.932   .     S
O1263  Zn1271  1.925   .     S
O1264  Zn1274  1.928   .     S
O1265  Zn1272  1.930   .     S
O1266  Zn1273  1.942   .     S
O1267  Zn1274  1.939   .     S
O1268  Zn1271  1.929   .     S
O1269  Zn1272  1.932   .     S
O1270  Zn1273  1.926   .     S
C1275  C1285   1.435   .     S
C1275  O1358   1.265   .     A
C1275  O1356   1.270   .     A
C1276  C1305   1.404   .     A
C1276  H1337   1.078   .     S
C1276  C1277   1.387   .     A
C1277  O1353   1.384   .     S
C1277  C460    1.412   1_556 S
C1278  O1359   1.275   .     A
C1278  C1284   1.464   .     S
C1278  O1357   1.288   .     A
C1279  C1281   1.423   .     A
C1279  C1280   1.428   .     A
C1280  C1306   1.432   .     A
C1280  C1283   1.415   .     A
C1281  C1282   1.401   .     A
C1281  N1341   1.436   .     S
C1282  C1294   1.399   .     A
C1282  N1344   1.436   .     S
C1283  N1343   1.437   .     S
C1283  C1294   1.404   .     A
C1284  C1103   1.353   1_655 S
C1284  O1170   1.388   1_655 S
C1286  C1295   1.400   .     A
C1286  H1335   1.083   .     S
C1286  C1293   1.402   .     A
C1287  C1290   1.450   .     S
C1287  C1561   1.331   .     S
C1287  H1593   1.088   .     S
C1288  C1289   1.434   .     S
C1289  O1354   1.280   .     A
C1289  O1360   1.281   .     A
C1290  O1361   1.271   .     A
C1290  O1355   1.272   .     A
C1291  C1294   1.457   .     S
C1291  O1350   1.274   .     A
C1291  O1348   1.274   .     A
C1292  O1349   1.284   .     A
C1292  C1293   1.474   .     S
C1292  O1351   1.282   .     A
C1293  C1297   1.412   .     A
C1295  N1345   1.438   .     S
C1295  C1304   1.411   .     A
C1296  H1340   1.117   .     S
C1296  O1352   1.413   .     S
C1296  C1298   1.529   .     S
C1296  H1310   1.113   .     S
C1297  C1303   1.413   .     A
C1297  N1346   1.440   .     S
C1298  H1312   1.112   .     S
C1298  C1299   1.526   .     S
C1298  H1311   1.112   .     S
C1299  H1314   1.111   .     S
C1299  H1315   1.110   .     S
C1299  H1313   1.111   .     S
C1300  C1301   1.534   .     S
C1300  H1324   1.117   .     S
C1300  H1323   1.111   .     S
C1300  O1353   1.419   .     S
C1301  H1326   1.110   .     S
C1301  H1325   1.112   .     S
C1301  C1120   1.526   1_655 S
C1302  H1329   1.111   .     S
C1302  H1328   1.110   .     S
C1302  H1327   1.111   .     S
C1303  C1304   1.417   .     A
C1303  C1305   1.424   .     A
C1304  C489    1.398   1_556 S
C1305  C487    1.418   1_556 S
C1306  C1307   1.414   .     A
C1307  C1308   1.389   .     A
C1307  H1336   1.075   .     S
C1308  H1309   1.083   .     S
H1316  N1342   1.046   .     S
H1317  N1342   1.046   .     S
H1318  N1343   1.045   .     S
H1319  N1343   1.046   .     S
H1321  N1344   1.046   .     S
H1322  N1344   1.046   .     S
H1330  N1345   1.046   .     S
H1331  C1561   1.086   .     S
H1332  N1345   1.046   .     S
H1333  N1346   1.043   .     S
H1334  N1346   1.046   .     S
H1338  N1341   1.043   .     S
H1339  N1341   1.045   .     S
N1342  C1103   1.437   1_655 S
O1347  Zn1364  1.936   .     S
O1347  Zn1365  1.931   .     S
O1347  Zn1362  1.963   .     S
O1347  Zn1363  1.949   .     S
O1348  Zn1363  1.937   .     S
O1349  Zn1365  1.949   .     S
O1350  Zn1364  1.943   .     S
O1351  Zn1362  1.932   .     S
O1354  Zn1362  1.925   .     S
O1355  Zn1365  1.928   .     S
O1356  Zn1363  1.930   .     S
O1357  Zn1364  1.942   .     S
O1358  Zn1365  1.939   .     S
O1359  Zn1362  1.929   .     S
O1360  Zn1363  1.932   .     S
O1361  Zn1364  1.926   .     S
C1366  C1376   1.435   .     S
C1366  O1449   1.265   .     A
C1366  O1447   1.270   .     A
C1367  C1396   1.404   .     A
C1367  H1428   1.078   .     S
C1367  C1368   1.387   .     A
C1368  O1444   1.384   .     S
C1368  C551    1.412   1_556 S
C1369  O1450   1.275   .     A
C1369  C1375   1.464   .     S
C1369  O1448   1.288   .     A
C1370  C1372   1.423   .     A
C1370  C1371   1.428   .     A
C1371  C1397   1.432   .     A
C1371  C1374   1.415   .     A
C1372  C1373   1.401   .     A
C1372  N1432   1.436   .     S
C1373  C1385   1.399   .     A
C1373  N1435   1.436   .     S
C1374  N1434   1.437   .     S
C1374  C1385   1.404   .     A
C1375  C1467   1.353   .     S
C1375  O1534   1.388   .     S
C1376  C1557   1.353   1_455 S
C1376  N1615   1.437   1_455 S
C1377  C1386   1.400   .     A
C1377  H1426   1.083   .     S
C1377  C1384   1.402   .     A
C1378  C1381   1.450   .     S
C1378  C833    1.331   1_565 S
C1378  H865    1.088   1_565 S
C1379  C1380   1.434   .     S
C1380  O1445   1.280   .     A
C1380  O1451   1.281   .     A
C1381  O1452   1.271   .     A
C1381  O1446   1.272   .     A
C1382  C1385   1.457   .     S
C1382  O1441   1.274   .     A
C1382  O1439   1.274   .     A
C1383  O1440   1.284   .     A
C1383  C1384   1.474   .     S
C1383  O1442   1.282   .     A
C1384  C1388   1.412   .     A
C1386  N1436   1.438   .     S
C1386  C1395   1.411   .     A
C1387  H1431   1.117   .     S
C1387  O1443   1.413   .     S
C1387  C1389   1.529   .     S
C1387  H1401   1.113   .     S
C1388  C1394   1.413   .     A
C1388  N1437   1.440   .     S
C1389  H1403   1.112   .     S
C1389  C1390   1.526   .     S
C1389  H1402   1.112   .     S
C1390  H1405   1.111   .     S
C1390  H1406   1.110   .     S
C1390  H1404   1.111   .     S
C1391  C1392   1.534   .     S
C1391  H1415   1.117   .     S
C1391  H1414   1.111   .     S
C1391  O1444   1.419   .     S
C1392  H1417   1.110   .     S
C1392  H1416   1.112   .     S
C1392  C1484   1.526   .     S
C1393  H1420   1.111   .     S
C1393  H1419   1.110   .     S
C1393  H1418   1.111   .     S
C1393  C1574   1.526   1_455 S
C1394  C1395   1.417   .     A
C1394  C1396   1.424   .     A
C1395  C580    1.398   1_556 S
C1396  C578    1.418   1_556 S
C1397  C1398   1.414   .     A
C1398  C1399   1.389   .     A
C1398  H1427   1.075   .     S
C1399  H1400   1.083   .     S
H1407  N1433   1.046   .     S
H1408  N1433   1.046   .     S
H1409  N1434   1.045   .     S
H1410  N1434   1.046   .     S
H1412  N1435   1.046   .     S
H1413  N1435   1.046   .     S
H1421  N1436   1.046   .     S
H1422  C833    1.086   1_565 S
H1423  N1436   1.046   .     S
H1424  N1437   1.043   .     S
H1425  N1437   1.046   .     S
H1429  N1432   1.043   .     S
H1430  N1432   1.045   .     S
N1433  C1467   1.437   .     S
O1438  Zn1455  1.936   .     S
O1438  Zn1456  1.931   .     S
O1438  Zn1453  1.963   .     S
O1438  Zn1454  1.949   .     S
O1439  Zn1454  1.937   .     S
O1440  Zn1456  1.949   .     S
O1441  Zn1455  1.943   .     S
O1442  Zn1453  1.932   .     S
O1443  C1557   1.388   1_455 S
O1445  Zn1453  1.925   .     S
O1446  Zn1456  1.928   .     S
O1447  Zn1454  1.930   .     S
O1448  Zn1455  1.942   .     S
O1449  Zn1456  1.939   .     S
O1450  Zn1453  1.929   .     S
O1451  Zn1454  1.932   .     S
O1452  Zn1455  1.926   .     S
C1457  C1467   1.435   .     S
C1457  O1540   1.265   .     A
C1457  O1538   1.270   .     A
C1458  C1487   1.404   .     A
C1458  H1519   1.078   .     S
C1458  C1459   1.387   .     A
C1459  O1535   1.384   .     S
C1459  C642    1.412   1_556 S
C1460  O1541   1.275   .     A
C1460  C1466   1.464   .     S
C1460  O1539   1.288   .     A
C1461  C1463   1.423   .     A
C1461  C1462   1.428   .     A
C1462  C1488   1.432   .     A
C1462  C1465   1.415   .     A
C1463  C1464   1.401   .     A
C1463  N1523   1.436   .     S
C1464  C1476   1.399   .     A
C1464  N1526   1.436   .     S
C1465  N1525   1.437   .     S
C1465  C1476   1.404   .     A
C1466  C1558   1.353   .     S
C1466  O1625   1.388   .     S
C1468  C1477   1.400   .     A
C1468  H1517   1.083   .     S
C1468  C1475   1.402   .     A
C1469  C1472   1.450   .     S
C1469  C924    1.331   1_565 S
C1469  H956    1.088   1_565 S
C1470  C1471   1.434   .     S
C1471  O1536   1.280   .     A
C1471  O1542   1.281   .     A
C1472  O1543   1.271   .     A
C1472  O1537   1.272   .     A
C1473  C1476   1.457   .     S
C1473  O1532   1.274   .     A
C1473  O1530   1.274   .     A
C1474  O1531   1.284   .     A
C1474  C1475   1.474   .     S
C1474  O1533   1.282   .     A
C1475  C1479   1.412   .     A
C1477  N1527   1.438   .     S
C1477  C1486   1.411   .     A
C1478  H1522   1.117   .     S
C1478  O1534   1.413   .     S
C1478  C1480   1.529   .     S
C1478  H1492   1.113   .     S
C1479  C1485   1.413   .     A
C1479  N1528   1.440   .     S
C1480  H1494   1.112   .     S
C1480  C1481   1.526   .     S
C1480  H1493   1.112   .     S
C1481  H1496   1.111   .     S
C1481  H1497   1.110   .     S
C1481  H1495   1.111   .     S
C1482  C1483   1.534   .     S
C1482  H1506   1.117   .     S
C1482  H1505   1.111   .     S
C1482  O1535   1.419   .     S
C1483  H1508   1.110   .     S
C1483  H1507   1.112   .     S
C1483  C1575   1.526   .     S
C1484  H1511   1.111   .     S
C1484  H1510   1.110   .     S
C1484  H1509   1.111   .     S
C1485  C1486   1.417   .     A
C1485  C1487   1.424   .     A
C1486  C671    1.398   1_556 S
C1487  C669    1.418   1_556 S
C1488  C1489   1.414   .     A
C1489  C1490   1.389   .     A
C1489  H1518   1.075   .     S
C1490  H1491   1.083   .     S
H1498  N1524   1.046   .     S
H1499  N1524   1.046   .     S
H1500  N1525   1.045   .     S
H1501  N1525   1.046   .     S
H1503  N1526   1.046   .     S
H1504  N1526   1.046   .     S
H1512  N1527   1.046   .     S
H1513  C924    1.086   1_565 S
H1514  N1527   1.046   .     S
H1515  N1528   1.043   .     S
H1516  N1528   1.046   .     S
H1520  N1523   1.043   .     S
H1521  N1523   1.045   .     S
N1524  C1558   1.437   .     S
O1529  Zn1546  1.936   .     S
O1529  Zn1547  1.931   .     S
O1529  Zn1544  1.963   .     S
O1529  Zn1545  1.949   .     S
O1530  Zn1545  1.937   .     S
O1531  Zn1547  1.949   .     S
O1532  Zn1546  1.943   .     S
O1533  Zn1544  1.932   .     S
O1536  Zn1544  1.925   .     S
O1537  Zn1547  1.928   .     S
O1538  Zn1545  1.930   .     S
O1539  Zn1546  1.942   .     S
O1540  Zn1547  1.939   .     S
O1541  Zn1544  1.929   .     S
O1542  Zn1545  1.932   .     S
O1543  Zn1546  1.926   .     S
C1548  C1558   1.435   .     S
C1548  O1631   1.265   .     A
C1548  O1629   1.270   .     A
C1549  C1578   1.404   .     A
C1549  H1610   1.078   .     S
C1549  C1550   1.387   .     A
C1550  O1626   1.384   .     S
C1550  C733    1.412   1_556 S
C1551  O1632   1.275   .     A
C1551  C1557   1.464   .     S
C1551  O1630   1.288   .     A
C1552  C1554   1.423   .     A
C1552  C1553   1.428   .     A
C1553  C1579   1.432   .     A
C1553  C1556   1.415   .     A
C1554  C1555   1.401   .     A
C1554  N1614   1.436   .     S
C1555  C1567   1.399   .     A
C1555  N1617   1.436   .     S
C1556  N1616   1.437   .     S
C1556  C1567   1.404   .     A
C1557  C1376   1.353   1_655 S
C1557  O1443   1.388   1_655 S
C1559  C1568   1.400   .     A
C1559  H1608   1.083   .     S
C1559  C1566   1.402   .     A
C1560  C1563   1.450   .     S
C1560  C1015   1.331   1_565 S
C1560  H1047   1.088   1_565 S
C1561  C1562   1.434   .     S
C1562  O1627   1.280   .     A
C1562  O1633   1.281   .     A
C1563  O1634   1.271   .     A
C1563  O1628   1.272   .     A
C1564  C1567   1.457   .     S
C1564  O1623   1.274   .     A
C1564  O1621   1.274   .     A
C1565  O1622   1.284   .     A
C1565  C1566   1.474   .     S
C1565  O1624   1.282   .     A
C1566  C1570   1.412   .     A
C1568  N1618   1.438   .     S
C1568  C1577   1.411   .     A
C1569  H1613   1.117   .     S
C1569  O1625   1.413   .     S
C1569  C1571   1.529   .     S
C1569  H1583   1.113   .     S
C1570  C1576   1.413   .     A
C1570  N1619   1.440   .     S
C1571  H1585   1.112   .     S
C1571  C1572   1.526   .     S
C1571  H1584   1.112   .     S
C1572  H1587   1.111   .     S
C1572  H1588   1.110   .     S
C1572  H1586   1.111   .     S
C1573  C1574   1.534   .     S
C1573  H1597   1.117   .     S
C1573  H1596   1.111   .     S
C1573  O1626   1.419   .     S
C1574  H1599   1.110   .     S
C1574  H1598   1.112   .     S
C1574  C1393   1.526   1_655 S
C1575  H1602   1.111   .     S
C1575  H1601   1.110   .     S
C1575  H1600   1.111   .     S
C1576  C1577   1.417   .     A
C1576  C1578   1.424   .     A
C1577  C762    1.398   1_556 S
C1578  C760    1.418   1_556 S
C1579  C1580   1.414   .     A
C1580  C1581   1.389   .     A
C1580  H1609   1.075   .     S
C1581  H1582   1.083   .     S
H1589  N1615   1.046   .     S
H1590  N1615   1.046   .     S
H1591  N1616   1.045   .     S
H1592  N1616   1.046   .     S
H1594  N1617   1.046   .     S
H1595  N1617   1.046   .     S
H1603  N1618   1.046   .     S
H1604  C1015   1.086   1_565 S
H1605  N1618   1.046   .     S
H1606  N1619   1.043   .     S
H1607  N1619   1.046   .     S
H1611  N1614   1.043   .     S
H1612  N1614   1.045   .     S
N1615  C1376   1.437   1_655 S
O1620  Zn1637  1.936   .     S
O1620  Zn1638  1.931   .     S
O1620  Zn1635  1.963   .     S
O1620  Zn1636  1.949   .     S
O1621  Zn1636  1.937   .     S
O1622  Zn1638  1.949   .     S
O1623  Zn1637  1.943   .     S
O1624  Zn1635  1.932   .     S
O1627  Zn1635  1.925   .     S
O1628  Zn1638  1.928   .     S
O1629  Zn1636  1.930   .     S
O1630  Zn1637  1.942   .     S
O1631  Zn1638  1.939   .     S
O1632  Zn1635  1.929   .     S
O1633  Zn1636  1.932   .     S
O1634  Zn1637  1.926   .     S
