data_str_m1_o10_o16_pcu_sym.2
_audit_creation_date              2020-01-03
_audit_creation_method            'Materials Studio'
_symmetry_space_group_name_H-M    'P1'
_symmetry_Int_Tables_number       1
_symmetry_cell_setting            triclinic
loop_
_symmetry_equiv_pos_as_xyz
  x,y,z
_cell_length_a                    32.6626
_cell_length_b                    32.6878
_cell_length_c                    30.8081
_cell_angle_alpha                 96.8582
_cell_angle_beta                  74.7783
_cell_angle_gamma                 98.2338
loop_
_atom_site_label
_atom_site_type_symbol
_atom_site_fract_x
_atom_site_fract_y
_atom_site_fract_z
_atom_site_U_iso_or_equiv
_atom_site_adp_type
_atom_site_occupancy
Br1    Br    0.30867   0.12827   0.31726   0.00000  Uiso   1.00
Br2    Br    0.22656   0.01285   0.19124   0.00000  Uiso   1.00
Br3    Br    0.17881   0.04298   0.42743   0.00000  Uiso   1.00
Br4    Br    0.25303   0.05516   0.47918   0.00000  Uiso   1.00
Br5    Br    0.11298   0.09578   0.40111   0.00000  Uiso   1.00
C6     C     0.05305   0.16016   0.25946   0.00000  Uiso   1.00
C7     C     0.17655   0.16413   0.05750   0.00000  Uiso   1.00
C8     C     0.21399   0.10562   0.05746   0.00000  Uiso   1.00
C9     C     0.28061   0.17362   0.24035   0.00000  Uiso   1.00
C10    C     0.14248   0.19479   0.42081   0.00000  Uiso   1.00
C11    C     0.32606   0.17513   0.23684   0.00000  Uiso   1.00
C12    C     0.00788   0.15692   0.26546   0.00000  Uiso   1.00
C13    C     0.17961   0.32232   0.23711   0.00000  Uiso   1.00
C14    C     0.15121   0.01267   0.26477   0.00000  Uiso   1.00
C15    C     0.15620   0.05613   0.26019   0.00000  Uiso   1.00
C16    C     0.17633   0.27789   0.24040   0.00000  Uiso   1.00
C17    C     0.14415   0.25017   0.48099   0.00000  Uiso   1.00
C18    C     0.18535   0.14786   0.12929   0.00000  Uiso   1.00
C19    C     0.14826   0.18477   0.37133   0.00000  Uiso   1.00
C20    C     0.21470   0.09465   0.01164   0.00000  Uiso   1.00
C21    C     0.19283   0.13921   0.08056   0.00000  Uiso   1.00
C22    C     0.13285   0.23483   0.44082   0.00000  Uiso   1.00
C23    C     0.16515   0.22627   0.00101   0.00000  Uiso   1.00
C24    C     0.16629   0.18328   0.48692   0.00000  Uiso   1.00
C25    C     0.15416   0.16732   0.44673   0.00000  Uiso   1.00
C26    C     0.17961   0.15570   0.01122   0.00000  Uiso   1.00
C27    C     0.19213   0.11677   0.49004   0.00000  Uiso   1.00
C28    C     0.17710   0.10025   0.45152   0.00000  Uiso   1.00
C29    C     0.15376   0.12419   0.43383   0.00000  Uiso   1.00
Cl30   Cl    0.23846   0.07679   0.08657   0.00000  Uiso   1.00
Cl31   Cl    0.10686   0.32878   0.30820   0.00000  Uiso   1.00
Cl32   Cl    0.10972   0.26814   0.41510   0.00000  Uiso   1.00
Cl33   Cl    0.19619   0.25334   0.03719   0.00000  Uiso   1.00
Cl34   Cl    0.13454   0.30083   0.00518   0.00000  Uiso   1.00
H35    H     0.15862   0.18852   0.07688   0.00000  Uiso   1.00
H36    H     0.01486   0.19148   0.20974   0.00000  Uiso   1.00
O37    O     0.16667   0.16667   0.25000   0.00000  Uiso   1.00
O38    O     0.15451   0.12637   0.15459   0.00000  Uiso   1.00
O39    O     0.12940   0.20391   0.34968   0.00000  Uiso   1.00
O40    O     0.20824   0.17759   0.14606   0.00000  Uiso   1.00
O41    O     0.17451   0.15880   0.34968   0.00000  Uiso   1.00
O42    O     0.17930   0.08019   0.28213   0.00000  Uiso   1.00
O43    O     0.14632   0.26085   0.27014   0.00000  Uiso   1.00
O44    O     0.07412   0.13291   0.23413   0.00000  Uiso   1.00
O45    O     0.26693   0.19272   0.21361   0.00000  Uiso   1.00
O46    O     0.07071   0.18878   0.28213   0.00000  Uiso   1.00
O47    O     0.25491   0.15226   0.27014   0.00000  Uiso   1.00
O48    O     0.13760   0.06944   0.23413   0.00000  Uiso   1.00
O49    O     0.20345   0.25620   0.21361   0.00000  Uiso   1.00
Zn50   Zn    0.19338   0.13994   0.28734   0.00000  Uiso   1.00
Zn51   Zn    0.13379   0.12458   0.21876   0.00000  Uiso   1.00
Zn52   Zn    0.21056   0.19775   0.20657   0.00000  Uiso   1.00
Zn53   Zn    0.12893   0.20439   0.28734   0.00000  Uiso   1.00
Br54   Br    0.64200   0.12827   0.31726   0.00000  Uiso   1.00
Br55   Br    0.55990   0.01285   0.19124   0.00000  Uiso   1.00
Br56   Br    0.51215   0.04298   0.42743   0.00000  Uiso   1.00
Br57   Br    0.58637   0.05516   0.47918   0.00000  Uiso   1.00
Br58   Br    0.44631   0.09578   0.40111   0.00000  Uiso   1.00
C59    C     0.38639   0.16016   0.25946   0.00000  Uiso   1.00
C60    C     0.50988   0.16413   0.05750   0.00000  Uiso   1.00
C61    C     0.54732   0.10562   0.05746   0.00000  Uiso   1.00
C62    C     0.61394   0.17362   0.24035   0.00000  Uiso   1.00
C63    C     0.47581   0.19479   0.42081   0.00000  Uiso   1.00
C64    C     0.65940   0.17513   0.23684   0.00000  Uiso   1.00
C65    C     0.34121   0.15692   0.26546   0.00000  Uiso   1.00
C66    C     0.51294   0.32232   0.23711   0.00000  Uiso   1.00
C67    C     0.48454   0.01267   0.26477   0.00000  Uiso   1.00
C68    C     0.48953   0.05613   0.26019   0.00000  Uiso   1.00
C69    C     0.50966   0.27789   0.24040   0.00000  Uiso   1.00
C70    C     0.47749   0.25017   0.48099   0.00000  Uiso   1.00
C71    C     0.51868   0.14786   0.12929   0.00000  Uiso   1.00
C72    C     0.48160   0.18477   0.37133   0.00000  Uiso   1.00
C73    C     0.54804   0.09465   0.01164   0.00000  Uiso   1.00
C74    C     0.52616   0.13921   0.08056   0.00000  Uiso   1.00
C75    C     0.46618   0.23483   0.44082   0.00000  Uiso   1.00
C76    C     0.49849   0.22627   0.00101   0.00000  Uiso   1.00
C77    C     0.49962   0.18328   0.48692   0.00000  Uiso   1.00
C78    C     0.48749   0.16732   0.44673   0.00000  Uiso   1.00
C79    C     0.51294   0.15570   0.01122   0.00000  Uiso   1.00
C80    C     0.52546   0.11677   0.49004   0.00000  Uiso   1.00
C81    C     0.51043   0.10025   0.45152   0.00000  Uiso   1.00
C82    C     0.48709   0.12419   0.43383   0.00000  Uiso   1.00
Cl83   Cl    0.57180   0.07679   0.08657   0.00000  Uiso   1.00
Cl84   Cl    0.44019   0.32878   0.30820   0.00000  Uiso   1.00
Cl85   Cl    0.44305   0.26814   0.41510   0.00000  Uiso   1.00
Cl86   Cl    0.52952   0.25334   0.03719   0.00000  Uiso   1.00
Cl87   Cl    0.46787   0.30083   0.00518   0.00000  Uiso   1.00
H88    H     0.49196   0.18852   0.07688   0.00000  Uiso   1.00
H89    H     0.34820   0.19148   0.20974   0.00000  Uiso   1.00
O90    O     0.50000   0.16667   0.25000   0.00000  Uiso   1.00
O91    O     0.48784   0.12637   0.15459   0.00000  Uiso   1.00
O92    O     0.46274   0.20391   0.34968   0.00000  Uiso   1.00
O93    O     0.54157   0.17759   0.14606   0.00000  Uiso   1.00
O94    O     0.50785   0.15880   0.34968   0.00000  Uiso   1.00
O95    O     0.51264   0.08019   0.28213   0.00000  Uiso   1.00
O96    O     0.47965   0.26085   0.27014   0.00000  Uiso   1.00
O97    O     0.40745   0.13291   0.23413   0.00000  Uiso   1.00
O98    O     0.60026   0.19272   0.21361   0.00000  Uiso   1.00
O99    O     0.40405   0.18878   0.28213   0.00000  Uiso   1.00
O100   O     0.58824   0.15226   0.27014   0.00000  Uiso   1.00
O101   O     0.47093   0.06944   0.23413   0.00000  Uiso   1.00
O102   O     0.53678   0.25620   0.21361   0.00000  Uiso   1.00
Zn103  Zn    0.52672   0.13994   0.28734   0.00000  Uiso   1.00
Zn104  Zn    0.46713   0.12458   0.21876   0.00000  Uiso   1.00
Zn105  Zn    0.54389   0.19775   0.20657   0.00000  Uiso   1.00
Zn106  Zn    0.46226   0.20439   0.28734   0.00000  Uiso   1.00
Br107  Br    0.97534   0.12827   0.31726   0.00000  Uiso   1.00
Br108  Br    0.89323   0.01285   0.19124   0.00000  Uiso   1.00
Br109  Br    0.84548   0.04298   0.42743   0.00000  Uiso   1.00
Br110  Br    0.91970   0.05516   0.47918   0.00000  Uiso   1.00
Br111  Br    0.77964   0.09578   0.40111   0.00000  Uiso   1.00
C112   C     0.71972   0.16016   0.25946   0.00000  Uiso   1.00
C113   C     0.84321   0.16413   0.05750   0.00000  Uiso   1.00
C114   C     0.88065   0.10562   0.05746   0.00000  Uiso   1.00
C115   C     0.94728   0.17362   0.24035   0.00000  Uiso   1.00
C116   C     0.80915   0.19479   0.42081   0.00000  Uiso   1.00
C117   C     0.99273   0.17513   0.23684   0.00000  Uiso   1.00
C118   C     0.67455   0.15692   0.26546   0.00000  Uiso   1.00
C119   C     0.84627   0.32232   0.23711   0.00000  Uiso   1.00
C120   C     0.81787   0.01267   0.26477   0.00000  Uiso   1.00
C121   C     0.82286   0.05613   0.26019   0.00000  Uiso   1.00
C122   C     0.84300   0.27789   0.24040   0.00000  Uiso   1.00
C123   C     0.81082   0.25017   0.48099   0.00000  Uiso   1.00
C124   C     0.85202   0.14786   0.12929   0.00000  Uiso   1.00
C125   C     0.81493   0.18477   0.37133   0.00000  Uiso   1.00
C126   C     0.88137   0.09465   0.01164   0.00000  Uiso   1.00
C127   C     0.85950   0.13921   0.08056   0.00000  Uiso   1.00
C128   C     0.79952   0.23483   0.44082   0.00000  Uiso   1.00
C129   C     0.83182   0.22627   0.00101   0.00000  Uiso   1.00
C130   C     0.83295   0.18328   0.48692   0.00000  Uiso   1.00
C131   C     0.82083   0.16732   0.44673   0.00000  Uiso   1.00
C132   C     0.84627   0.15570   0.01122   0.00000  Uiso   1.00
C133   C     0.85880   0.11677   0.49004   0.00000  Uiso   1.00
C134   C     0.84377   0.10025   0.45152   0.00000  Uiso   1.00
C135   C     0.82043   0.12419   0.43383   0.00000  Uiso   1.00
Cl136  Cl    0.90513   0.07679   0.08657   0.00000  Uiso   1.00
Cl137  Cl    0.77353   0.32878   0.30820   0.00000  Uiso   1.00
Cl138  Cl    0.77638   0.26814   0.41510   0.00000  Uiso   1.00
Cl139  Cl    0.86286   0.25334   0.03719   0.00000  Uiso   1.00
Cl140  Cl    0.80120   0.30083   0.00518   0.00000  Uiso   1.00
H141   H     0.82529   0.18852   0.07688   0.00000  Uiso   1.00
H142   H     0.68153   0.19148   0.20974   0.00000  Uiso   1.00
O143   O     0.83333   0.16667   0.25000   0.00000  Uiso   1.00
O144   O     0.82118   0.12637   0.15459   0.00000  Uiso   1.00
O145   O     0.79607   0.20391   0.34968   0.00000  Uiso   1.00
O146   O     0.87491   0.17759   0.14606   0.00000  Uiso   1.00
O147   O     0.84118   0.15880   0.34968   0.00000  Uiso   1.00
O148   O     0.84597   0.08019   0.28213   0.00000  Uiso   1.00
O149   O     0.81298   0.26085   0.27014   0.00000  Uiso   1.00
O150   O     0.74078   0.13291   0.23413   0.00000  Uiso   1.00
O151   O     0.93360   0.19272   0.21361   0.00000  Uiso   1.00
O152   O     0.73738   0.18878   0.28213   0.00000  Uiso   1.00
O153   O     0.92158   0.15226   0.27014   0.00000  Uiso   1.00
O154   O     0.80426   0.06944   0.23413   0.00000  Uiso   1.00
O155   O     0.87012   0.25620   0.21361   0.00000  Uiso   1.00
Zn156  Zn    0.86005   0.13994   0.28734   0.00000  Uiso   1.00
Zn157  Zn    0.80046   0.12458   0.21876   0.00000  Uiso   1.00
Zn158  Zn    0.87723   0.19775   0.20657   0.00000  Uiso   1.00
Zn159  Zn    0.79560   0.20439   0.28734   0.00000  Uiso   1.00
Br160  Br    0.30867   0.46160   0.31726   0.00000  Uiso   1.00
Br161  Br    0.22656   0.34618   0.19124   0.00000  Uiso   1.00
Br162  Br    0.17881   0.37631   0.42743   0.00000  Uiso   1.00
Br163  Br    0.25303   0.38849   0.47918   0.00000  Uiso   1.00
Br164  Br    0.11298   0.42911   0.40111   0.00000  Uiso   1.00
C165   C     0.05305   0.49350   0.25946   0.00000  Uiso   1.00
C166   C     0.17655   0.49747   0.05750   0.00000  Uiso   1.00
C167   C     0.21399   0.43895   0.05746   0.00000  Uiso   1.00
C168   C     0.28061   0.50695   0.24035   0.00000  Uiso   1.00
C169   C     0.14248   0.52812   0.42081   0.00000  Uiso   1.00
C170   C     0.32606   0.50847   0.23684   0.00000  Uiso   1.00
C171   C     0.00788   0.49025   0.26546   0.00000  Uiso   1.00
C172   C     0.17961   0.65566   0.23711   0.00000  Uiso   1.00
C173   C     0.15121   0.34601   0.26477   0.00000  Uiso   1.00
C174   C     0.15620   0.38947   0.26019   0.00000  Uiso   1.00
C175   C     0.17633   0.61122   0.24040   0.00000  Uiso   1.00
C176   C     0.14415   0.58350   0.48099   0.00000  Uiso   1.00
C177   C     0.18535   0.48119   0.12929   0.00000  Uiso   1.00
C178   C     0.14826   0.51810   0.37133   0.00000  Uiso   1.00
C179   C     0.21470   0.42799   0.01164   0.00000  Uiso   1.00
C180   C     0.19283   0.47255   0.08056   0.00000  Uiso   1.00
C181   C     0.13285   0.56817   0.44082   0.00000  Uiso   1.00
C182   C     0.16515   0.55961   0.00101   0.00000  Uiso   1.00
C183   C     0.16629   0.51661   0.48692   0.00000  Uiso   1.00
C184   C     0.15416   0.50065   0.44673   0.00000  Uiso   1.00
C185   C     0.17961   0.48903   0.01122   0.00000  Uiso   1.00
C186   C     0.19213   0.45011   0.49004   0.00000  Uiso   1.00
C187   C     0.17710   0.43358   0.45152   0.00000  Uiso   1.00
C188   C     0.15376   0.45752   0.43383   0.00000  Uiso   1.00
Cl189  Cl    0.23846   0.41012   0.08657   0.00000  Uiso   1.00
Cl190  Cl    0.10686   0.66212   0.30820   0.00000  Uiso   1.00
Cl191  Cl    0.10972   0.60148   0.41510   0.00000  Uiso   1.00
Cl192  Cl    0.19619   0.58667   0.03719   0.00000  Uiso   1.00
Cl193  Cl    0.13454   0.63417   0.00518   0.00000  Uiso   1.00
H194   H     0.15862   0.52185   0.07688   0.00000  Uiso   1.00
H195   H     0.01486   0.52481   0.20974   0.00000  Uiso   1.00
O196   O     0.16667   0.50000   0.25000   0.00000  Uiso   1.00
O197   O     0.15451   0.45970   0.15459   0.00000  Uiso   1.00
O198   O     0.12940   0.53724   0.34968   0.00000  Uiso   1.00
O199   O     0.20824   0.51092   0.14606   0.00000  Uiso   1.00
O200   O     0.17451   0.49213   0.34968   0.00000  Uiso   1.00
O201   O     0.17930   0.41352   0.28213   0.00000  Uiso   1.00
O202   O     0.14632   0.59418   0.27014   0.00000  Uiso   1.00
O203   O     0.07412   0.46625   0.23413   0.00000  Uiso   1.00
O204   O     0.26693   0.52605   0.21361   0.00000  Uiso   1.00
O205   O     0.07071   0.52211   0.28213   0.00000  Uiso   1.00
O206   O     0.25491   0.48559   0.27014   0.00000  Uiso   1.00
O207   O     0.13760   0.40277   0.23413   0.00000  Uiso   1.00
O208   O     0.20345   0.58953   0.21361   0.00000  Uiso   1.00
Zn209  Zn    0.19338   0.47327   0.28734   0.00000  Uiso   1.00
Zn210  Zn    0.13379   0.45791   0.21876   0.00000  Uiso   1.00
Zn211  Zn    0.21056   0.53109   0.20657   0.00000  Uiso   1.00
Zn212  Zn    0.12893   0.53773   0.28734   0.00000  Uiso   1.00
Br213  Br    0.64200   0.46160   0.31726   0.00000  Uiso   1.00
Br214  Br    0.55990   0.34618   0.19124   0.00000  Uiso   1.00
Br215  Br    0.51215   0.37631   0.42743   0.00000  Uiso   1.00
Br216  Br    0.58637   0.38849   0.47918   0.00000  Uiso   1.00
Br217  Br    0.44631   0.42911   0.40111   0.00000  Uiso   1.00
C218   C     0.38639   0.49350   0.25946   0.00000  Uiso   1.00
C219   C     0.50988   0.49747   0.05750   0.00000  Uiso   1.00
C220   C     0.54732   0.43895   0.05746   0.00000  Uiso   1.00
C221   C     0.61394   0.50695   0.24035   0.00000  Uiso   1.00
C222   C     0.47581   0.52812   0.42081   0.00000  Uiso   1.00
C223   C     0.65940   0.50847   0.23684   0.00000  Uiso   1.00
C224   C     0.34121   0.49025   0.26546   0.00000  Uiso   1.00
C225   C     0.51294   0.65566   0.23711   0.00000  Uiso   1.00
C226   C     0.48454   0.34601   0.26477   0.00000  Uiso   1.00
C227   C     0.48953   0.38947   0.26019   0.00000  Uiso   1.00
C228   C     0.50966   0.61122   0.24040   0.00000  Uiso   1.00
C229   C     0.47749   0.58350   0.48099   0.00000  Uiso   1.00
C230   C     0.51868   0.48119   0.12929   0.00000  Uiso   1.00
C231   C     0.48160   0.51810   0.37133   0.00000  Uiso   1.00
C232   C     0.54804   0.42799   0.01164   0.00000  Uiso   1.00
C233   C     0.52616   0.47255   0.08056   0.00000  Uiso   1.00
C234   C     0.46618   0.56817   0.44082   0.00000  Uiso   1.00
C235   C     0.49849   0.55961   0.00101   0.00000  Uiso   1.00
C236   C     0.49962   0.51661   0.48692   0.00000  Uiso   1.00
C237   C     0.48749   0.50065   0.44673   0.00000  Uiso   1.00
C238   C     0.51294   0.48903   0.01122   0.00000  Uiso   1.00
C239   C     0.52546   0.45011   0.49004   0.00000  Uiso   1.00
C240   C     0.51043   0.43358   0.45152   0.00000  Uiso   1.00
C241   C     0.48709   0.45752   0.43383   0.00000  Uiso   1.00
Cl242  Cl    0.57180   0.41012   0.08657   0.00000  Uiso   1.00
Cl243  Cl    0.44019   0.66212   0.30820   0.00000  Uiso   1.00
Cl244  Cl    0.44305   0.60148   0.41510   0.00000  Uiso   1.00
Cl245  Cl    0.52952   0.58667   0.03719   0.00000  Uiso   1.00
Cl246  Cl    0.46787   0.63417   0.00518   0.00000  Uiso   1.00
H247   H     0.49196   0.52185   0.07688   0.00000  Uiso   1.00
H248   H     0.34820   0.52481   0.20974   0.00000  Uiso   1.00
O249   O     0.50000   0.50000   0.25000   0.00000  Uiso   1.00
O250   O     0.48784   0.45970   0.15459   0.00000  Uiso   1.00
O251   O     0.46274   0.53724   0.34968   0.00000  Uiso   1.00
O252   O     0.54157   0.51092   0.14606   0.00000  Uiso   1.00
O253   O     0.50785   0.49213   0.34968   0.00000  Uiso   1.00
O254   O     0.51264   0.41352   0.28213   0.00000  Uiso   1.00
O255   O     0.47965   0.59418   0.27014   0.00000  Uiso   1.00
O256   O     0.40745   0.46625   0.23413   0.00000  Uiso   1.00
O257   O     0.60026   0.52605   0.21361   0.00000  Uiso   1.00
O258   O     0.40405   0.52211   0.28213   0.00000  Uiso   1.00
O259   O     0.58824   0.48559   0.27014   0.00000  Uiso   1.00
O260   O     0.47093   0.40277   0.23413   0.00000  Uiso   1.00
O261   O     0.53678   0.58953   0.21361   0.00000  Uiso   1.00
Zn262  Zn    0.52672   0.47327   0.28734   0.00000  Uiso   1.00
Zn263  Zn    0.46713   0.45791   0.21876   0.00000  Uiso   1.00
Zn264  Zn    0.54389   0.53109   0.20657   0.00000  Uiso   1.00
Zn265  Zn    0.46226   0.53773   0.28734   0.00000  Uiso   1.00
Br266  Br    0.97534   0.46160   0.31726   0.00000  Uiso   1.00
Br267  Br    0.89323   0.34618   0.19124   0.00000  Uiso   1.00
Br268  Br    0.84548   0.37631   0.42743   0.00000  Uiso   1.00
Br269  Br    0.91970   0.38849   0.47918   0.00000  Uiso   1.00
Br270  Br    0.77964   0.42911   0.40111   0.00000  Uiso   1.00
C271   C     0.71972   0.49350   0.25946   0.00000  Uiso   1.00
C272   C     0.84321   0.49747   0.05750   0.00000  Uiso   1.00
C273   C     0.88065   0.43895   0.05746   0.00000  Uiso   1.00
C274   C     0.94728   0.50695   0.24035   0.00000  Uiso   1.00
C275   C     0.80915   0.52812   0.42081   0.00000  Uiso   1.00
C276   C     0.99273   0.50847   0.23684   0.00000  Uiso   1.00
C277   C     0.67455   0.49025   0.26546   0.00000  Uiso   1.00
C278   C     0.84627   0.65566   0.23711   0.00000  Uiso   1.00
C279   C     0.81787   0.34601   0.26477   0.00000  Uiso   1.00
C280   C     0.82286   0.38947   0.26019   0.00000  Uiso   1.00
C281   C     0.84300   0.61122   0.24040   0.00000  Uiso   1.00
C282   C     0.81082   0.58350   0.48099   0.00000  Uiso   1.00
C283   C     0.85202   0.48119   0.12929   0.00000  Uiso   1.00
C284   C     0.81493   0.51810   0.37133   0.00000  Uiso   1.00
C285   C     0.88137   0.42799   0.01164   0.00000  Uiso   1.00
C286   C     0.85950   0.47255   0.08056   0.00000  Uiso   1.00
C287   C     0.79952   0.56817   0.44082   0.00000  Uiso   1.00
C288   C     0.83182   0.55961   0.00101   0.00000  Uiso   1.00
C289   C     0.83295   0.51661   0.48692   0.00000  Uiso   1.00
C290   C     0.82083   0.50065   0.44673   0.00000  Uiso   1.00
C291   C     0.84627   0.48903   0.01122   0.00000  Uiso   1.00
C292   C     0.85880   0.45011   0.49004   0.00000  Uiso   1.00
C293   C     0.84377   0.43358   0.45152   0.00000  Uiso   1.00
C294   C     0.82043   0.45752   0.43383   0.00000  Uiso   1.00
Cl295  Cl    0.90513   0.41012   0.08657   0.00000  Uiso   1.00
Cl296  Cl    0.77353   0.66212   0.30820   0.00000  Uiso   1.00
Cl297  Cl    0.77638   0.60148   0.41510   0.00000  Uiso   1.00
Cl298  Cl    0.86286   0.58667   0.03719   0.00000  Uiso   1.00
Cl299  Cl    0.80120   0.63417   0.00518   0.00000  Uiso   1.00
H300   H     0.82529   0.52185   0.07688   0.00000  Uiso   1.00
H301   H     0.68153   0.52481   0.20974   0.00000  Uiso   1.00
O302   O     0.83333   0.50000   0.25000   0.00000  Uiso   1.00
O303   O     0.82118   0.45970   0.15459   0.00000  Uiso   1.00
O304   O     0.79607   0.53724   0.34968   0.00000  Uiso   1.00
O305   O     0.87491   0.51092   0.14606   0.00000  Uiso   1.00
O306   O     0.84118   0.49213   0.34968   0.00000  Uiso   1.00
O307   O     0.84597   0.41352   0.28213   0.00000  Uiso   1.00
O308   O     0.81298   0.59418   0.27014   0.00000  Uiso   1.00
O309   O     0.74078   0.46625   0.23413   0.00000  Uiso   1.00
O310   O     0.93360   0.52605   0.21361   0.00000  Uiso   1.00
O311   O     0.73738   0.52211   0.28213   0.00000  Uiso   1.00
O312   O     0.92158   0.48559   0.27014   0.00000  Uiso   1.00
O313   O     0.80426   0.40277   0.23413   0.00000  Uiso   1.00
O314   O     0.87012   0.58953   0.21361   0.00000  Uiso   1.00
Zn315  Zn    0.86005   0.47327   0.28734   0.00000  Uiso   1.00
Zn316  Zn    0.80046   0.45791   0.21876   0.00000  Uiso   1.00
Zn317  Zn    0.87723   0.53109   0.20657   0.00000  Uiso   1.00
Zn318  Zn    0.79560   0.53773   0.28734   0.00000  Uiso   1.00
Br319  Br    0.30867   0.79493   0.31726   0.00000  Uiso   1.00
Br320  Br    0.22656   0.67952   0.19124   0.00000  Uiso   1.00
Br321  Br    0.17881   0.70965   0.42743   0.00000  Uiso   1.00
Br322  Br    0.25303   0.72182   0.47918   0.00000  Uiso   1.00
Br323  Br    0.11298   0.76245   0.40111   0.00000  Uiso   1.00
C324   C     0.05305   0.82683   0.25946   0.00000  Uiso   1.00
C325   C     0.17655   0.83080   0.05750   0.00000  Uiso   1.00
C326   C     0.21399   0.77229   0.05746   0.00000  Uiso   1.00
C327   C     0.28061   0.84028   0.24035   0.00000  Uiso   1.00
C328   C     0.14248   0.86146   0.42081   0.00000  Uiso   1.00
C329   C     0.32606   0.84180   0.23684   0.00000  Uiso   1.00
C330   C     0.00788   0.82359   0.26546   0.00000  Uiso   1.00
C331   C     0.17961   0.98899   0.23711   0.00000  Uiso   1.00
C332   C     0.15121   0.67934   0.26477   0.00000  Uiso   1.00
C333   C     0.15620   0.72280   0.26019   0.00000  Uiso   1.00
C334   C     0.17633   0.94456   0.24040   0.00000  Uiso   1.00
C335   C     0.14415   0.91683   0.48099   0.00000  Uiso   1.00
C336   C     0.18535   0.81453   0.12929   0.00000  Uiso   1.00
C337   C     0.14826   0.85143   0.37133   0.00000  Uiso   1.00
C338   C     0.21470   0.76132   0.01164   0.00000  Uiso   1.00
C339   C     0.19283   0.80588   0.08056   0.00000  Uiso   1.00
C340   C     0.13285   0.90150   0.44082   0.00000  Uiso   1.00
C341   C     0.16515   0.89294   0.00101   0.00000  Uiso   1.00
C342   C     0.16629   0.84994   0.48692   0.00000  Uiso   1.00
C343   C     0.15416   0.83398   0.44673   0.00000  Uiso   1.00
C344   C     0.17961   0.82236   0.01122   0.00000  Uiso   1.00
C345   C     0.19213   0.78344   0.49004   0.00000  Uiso   1.00
C346   C     0.17710   0.76692   0.45152   0.00000  Uiso   1.00
C347   C     0.15376   0.79085   0.43383   0.00000  Uiso   1.00
Cl348  Cl    0.23846   0.74345   0.08657   0.00000  Uiso   1.00
Cl349  Cl    0.10686   0.99545   0.30820   0.00000  Uiso   1.00
Cl350  Cl    0.10972   0.93481   0.41510   0.00000  Uiso   1.00
Cl351  Cl    0.19619   0.92001   0.03719   0.00000  Uiso   1.00
Cl352  Cl    0.13454   0.96750   0.00518   0.00000  Uiso   1.00
H353   H     0.15862   0.85518   0.07688   0.00000  Uiso   1.00
H354   H     0.01486   0.85815   0.20974   0.00000  Uiso   1.00
O355   O     0.16667   0.83333   0.25000   0.00000  Uiso   1.00
O356   O     0.15451   0.79304   0.15459   0.00000  Uiso   1.00
O357   O     0.12940   0.87058   0.34968   0.00000  Uiso   1.00
O358   O     0.20824   0.84425   0.14606   0.00000  Uiso   1.00
O359   O     0.17451   0.82546   0.34968   0.00000  Uiso   1.00
O360   O     0.17930   0.74686   0.28213   0.00000  Uiso   1.00
O361   O     0.14632   0.92751   0.27014   0.00000  Uiso   1.00
O362   O     0.07412   0.79958   0.23413   0.00000  Uiso   1.00
O363   O     0.26693   0.85939   0.21361   0.00000  Uiso   1.00
O364   O     0.07071   0.85544   0.28213   0.00000  Uiso   1.00
O365   O     0.25491   0.81892   0.27014   0.00000  Uiso   1.00
O366   O     0.13760   0.73610   0.23413   0.00000  Uiso   1.00
O367   O     0.20345   0.92286   0.21361   0.00000  Uiso   1.00
Zn368  Zn    0.19338   0.80661   0.28734   0.00000  Uiso   1.00
Zn369  Zn    0.13379   0.79124   0.21876   0.00000  Uiso   1.00
Zn370  Zn    0.21056   0.86442   0.20657   0.00000  Uiso   1.00
Zn371  Zn    0.12893   0.87106   0.28734   0.00000  Uiso   1.00
Br372  Br    0.64200   0.79493   0.31726   0.00000  Uiso   1.00
Br373  Br    0.55990   0.67952   0.19124   0.00000  Uiso   1.00
Br374  Br    0.51215   0.70965   0.42743   0.00000  Uiso   1.00
Br375  Br    0.58637   0.72182   0.47918   0.00000  Uiso   1.00
Br376  Br    0.44631   0.76245   0.40111   0.00000  Uiso   1.00
C377   C     0.38639   0.82683   0.25946   0.00000  Uiso   1.00
C378   C     0.50988   0.83080   0.05750   0.00000  Uiso   1.00
C379   C     0.54732   0.77229   0.05746   0.00000  Uiso   1.00
C380   C     0.61394   0.84028   0.24035   0.00000  Uiso   1.00
C381   C     0.47581   0.86146   0.42081   0.00000  Uiso   1.00
C382   C     0.65940   0.84180   0.23684   0.00000  Uiso   1.00
C383   C     0.34121   0.82359   0.26546   0.00000  Uiso   1.00
C384   C     0.51294   0.98899   0.23711   0.00000  Uiso   1.00
C385   C     0.48454   0.67934   0.26477   0.00000  Uiso   1.00
C386   C     0.48953   0.72280   0.26019   0.00000  Uiso   1.00
C387   C     0.50966   0.94456   0.24040   0.00000  Uiso   1.00
C388   C     0.47749   0.91683   0.48099   0.00000  Uiso   1.00
C389   C     0.51868   0.81453   0.12929   0.00000  Uiso   1.00
C390   C     0.48160   0.85143   0.37133   0.00000  Uiso   1.00
C391   C     0.54804   0.76132   0.01164   0.00000  Uiso   1.00
C392   C     0.52616   0.80588   0.08056   0.00000  Uiso   1.00
C393   C     0.46618   0.90150   0.44082   0.00000  Uiso   1.00
C394   C     0.49849   0.89294   0.00101   0.00000  Uiso   1.00
C395   C     0.49962   0.84994   0.48692   0.00000  Uiso   1.00
C396   C     0.48749   0.83398   0.44673   0.00000  Uiso   1.00
C397   C     0.51294   0.82236   0.01122   0.00000  Uiso   1.00
C398   C     0.52546   0.78344   0.49004   0.00000  Uiso   1.00
C399   C     0.51043   0.76692   0.45152   0.00000  Uiso   1.00
C400   C     0.48709   0.79085   0.43383   0.00000  Uiso   1.00
Cl401  Cl    0.57180   0.74345   0.08657   0.00000  Uiso   1.00
Cl402  Cl    0.44019   0.99545   0.30820   0.00000  Uiso   1.00
Cl403  Cl    0.44305   0.93481   0.41510   0.00000  Uiso   1.00
Cl404  Cl    0.52952   0.92001   0.03719   0.00000  Uiso   1.00
Cl405  Cl    0.46787   0.96750   0.00518   0.00000  Uiso   1.00
H406   H     0.49196   0.85518   0.07688   0.00000  Uiso   1.00
H407   H     0.34820   0.85815   0.20974   0.00000  Uiso   1.00
O408   O     0.50000   0.83333   0.25000   0.00000  Uiso   1.00
O409   O     0.48784   0.79304   0.15459   0.00000  Uiso   1.00
O410   O     0.46274   0.87058   0.34968   0.00000  Uiso   1.00
O411   O     0.54157   0.84425   0.14606   0.00000  Uiso   1.00
O412   O     0.50785   0.82546   0.34968   0.00000  Uiso   1.00
O413   O     0.51264   0.74686   0.28213   0.00000  Uiso   1.00
O414   O     0.47965   0.92751   0.27014   0.00000  Uiso   1.00
O415   O     0.40745   0.79958   0.23413   0.00000  Uiso   1.00
O416   O     0.60026   0.85939   0.21361   0.00000  Uiso   1.00
O417   O     0.40405   0.85544   0.28213   0.00000  Uiso   1.00
O418   O     0.58824   0.81892   0.27014   0.00000  Uiso   1.00
O419   O     0.47093   0.73610   0.23413   0.00000  Uiso   1.00
O420   O     0.53678   0.92286   0.21361   0.00000  Uiso   1.00
Zn421  Zn    0.52672   0.80661   0.28734   0.00000  Uiso   1.00
Zn422  Zn    0.46713   0.79124   0.21876   0.00000  Uiso   1.00
Zn423  Zn    0.54389   0.86442   0.20657   0.00000  Uiso   1.00
Zn424  Zn    0.46226   0.87106   0.28734   0.00000  Uiso   1.00
Br425  Br    0.97534   0.79493   0.31726   0.00000  Uiso   1.00
Br426  Br    0.89323   0.67952   0.19124   0.00000  Uiso   1.00
Br427  Br    0.84548   0.70965   0.42743   0.00000  Uiso   1.00
Br428  Br    0.91970   0.72182   0.47918   0.00000  Uiso   1.00
Br429  Br    0.77964   0.76245   0.40111   0.00000  Uiso   1.00
C430   C     0.71972   0.82683   0.25946   0.00000  Uiso   1.00
C431   C     0.84321   0.83080   0.05750   0.00000  Uiso   1.00
C432   C     0.88065   0.77229   0.05746   0.00000  Uiso   1.00
C433   C     0.94728   0.84028   0.24035   0.00000  Uiso   1.00
C434   C     0.80915   0.86146   0.42081   0.00000  Uiso   1.00
C435   C     0.99273   0.84180   0.23684   0.00000  Uiso   1.00
C436   C     0.67455   0.82359   0.26546   0.00000  Uiso   1.00
C437   C     0.84627   0.98899   0.23711   0.00000  Uiso   1.00
C438   C     0.81787   0.67934   0.26477   0.00000  Uiso   1.00
C439   C     0.82286   0.72280   0.26019   0.00000  Uiso   1.00
C440   C     0.84300   0.94456   0.24040   0.00000  Uiso   1.00
C441   C     0.81082   0.91683   0.48099   0.00000  Uiso   1.00
C442   C     0.85202   0.81453   0.12929   0.00000  Uiso   1.00
C443   C     0.81493   0.85143   0.37133   0.00000  Uiso   1.00
C444   C     0.88137   0.76132   0.01164   0.00000  Uiso   1.00
C445   C     0.85950   0.80588   0.08056   0.00000  Uiso   1.00
C446   C     0.79952   0.90150   0.44082   0.00000  Uiso   1.00
C447   C     0.83182   0.89294   0.00101   0.00000  Uiso   1.00
C448   C     0.83295   0.84994   0.48692   0.00000  Uiso   1.00
C449   C     0.82083   0.83398   0.44673   0.00000  Uiso   1.00
C450   C     0.84627   0.82236   0.01122   0.00000  Uiso   1.00
C451   C     0.85880   0.78344   0.49004   0.00000  Uiso   1.00
C452   C     0.84377   0.76692   0.45152   0.00000  Uiso   1.00
C453   C     0.82043   0.79085   0.43383   0.00000  Uiso   1.00
Cl454  Cl    0.90513   0.74345   0.08657   0.00000  Uiso   1.00
Cl455  Cl    0.77353   0.99545   0.30820   0.00000  Uiso   1.00
Cl456  Cl    0.77638   0.93481   0.41510   0.00000  Uiso   1.00
Cl457  Cl    0.86286   0.92001   0.03719   0.00000  Uiso   1.00
Cl458  Cl    0.80120   0.96750   0.00518   0.00000  Uiso   1.00
H459   H     0.82529   0.85518   0.07688   0.00000  Uiso   1.00
H460   H     0.68153   0.85815   0.20974   0.00000  Uiso   1.00
O461   O     0.83333   0.83333   0.25000   0.00000  Uiso   1.00
O462   O     0.82118   0.79304   0.15459   0.00000  Uiso   1.00
O463   O     0.79607   0.87058   0.34968   0.00000  Uiso   1.00
O464   O     0.87491   0.84425   0.14606   0.00000  Uiso   1.00
O465   O     0.84118   0.82546   0.34968   0.00000  Uiso   1.00
O466   O     0.84597   0.74686   0.28213   0.00000  Uiso   1.00
O467   O     0.81298   0.92751   0.27014   0.00000  Uiso   1.00
O468   O     0.74078   0.79958   0.23413   0.00000  Uiso   1.00
O469   O     0.93360   0.85939   0.21361   0.00000  Uiso   1.00
O470   O     0.73738   0.85544   0.28213   0.00000  Uiso   1.00
O471   O     0.92158   0.81892   0.27014   0.00000  Uiso   1.00
O472   O     0.80426   0.73610   0.23413   0.00000  Uiso   1.00
O473   O     0.87012   0.92286   0.21361   0.00000  Uiso   1.00
Zn474  Zn    0.86005   0.80661   0.28734   0.00000  Uiso   1.00
Zn475  Zn    0.80046   0.79124   0.21876   0.00000  Uiso   1.00
Zn476  Zn    0.87723   0.86442   0.20657   0.00000  Uiso   1.00
Zn477  Zn    0.79560   0.87106   0.28734   0.00000  Uiso   1.00
Br478  Br    0.30867   0.12827   0.81726   0.00000  Uiso   1.00
Br479  Br    0.22656   0.01285   0.69124   0.00000  Uiso   1.00
Br480  Br    0.17881   0.04298   0.92743   0.00000  Uiso   1.00
Br481  Br    0.25303   0.05516   0.97918   0.00000  Uiso   1.00
Br482  Br    0.11298   0.09578   0.90111   0.00000  Uiso   1.00
C483   C     0.05305   0.16016   0.75946   0.00000  Uiso   1.00
C484   C     0.17655   0.16413   0.55750   0.00000  Uiso   1.00
C485   C     0.21399   0.10562   0.55746   0.00000  Uiso   1.00
C486   C     0.28061   0.17362   0.74035   0.00000  Uiso   1.00
C487   C     0.14248   0.19479   0.92081   0.00000  Uiso   1.00
C488   C     0.32606   0.17513   0.73684   0.00000  Uiso   1.00
C489   C     0.00788   0.15692   0.76546   0.00000  Uiso   1.00
C490   C     0.17961   0.32232   0.73711   0.00000  Uiso   1.00
C491   C     0.15121   0.01267   0.76477   0.00000  Uiso   1.00
C492   C     0.15620   0.05613   0.76019   0.00000  Uiso   1.00
C493   C     0.17633   0.27789   0.74040   0.00000  Uiso   1.00
C494   C     0.14415   0.25017   0.98099   0.00000  Uiso   1.00
C495   C     0.18535   0.14786   0.62929   0.00000  Uiso   1.00
C496   C     0.14826   0.18477   0.87133   0.00000  Uiso   1.00
C497   C     0.21470   0.09465   0.51164   0.00000  Uiso   1.00
C498   C     0.19283   0.13921   0.58056   0.00000  Uiso   1.00
C499   C     0.13285   0.23483   0.94082   0.00000  Uiso   1.00
C500   C     0.16515   0.22627   0.50101   0.00000  Uiso   1.00
C501   C     0.16629   0.18328   0.98692   0.00000  Uiso   1.00
C502   C     0.15416   0.16732   0.94673   0.00000  Uiso   1.00
C503   C     0.17961   0.15570   0.51122   0.00000  Uiso   1.00
C504   C     0.19213   0.11677   0.99004   0.00000  Uiso   1.00
C505   C     0.17710   0.10025   0.95152   0.00000  Uiso   1.00
C506   C     0.15376   0.12419   0.93383   0.00000  Uiso   1.00
Cl507  Cl    0.23846   0.07679   0.58657   0.00000  Uiso   1.00
Cl508  Cl    0.10686   0.32878   0.80820   0.00000  Uiso   1.00
Cl509  Cl    0.10972   0.26814   0.91510   0.00000  Uiso   1.00
Cl510  Cl    0.19619   0.25334   0.53719   0.00000  Uiso   1.00
Cl511  Cl    0.13454   0.30083   0.50518   0.00000  Uiso   1.00
H512   H     0.15862   0.18852   0.57688   0.00000  Uiso   1.00
H513   H     0.01486   0.19148   0.70974   0.00000  Uiso   1.00
O514   O     0.16667   0.16667   0.75000   0.00000  Uiso   1.00
O515   O     0.15451   0.12637   0.65459   0.00000  Uiso   1.00
O516   O     0.12940   0.20391   0.84968   0.00000  Uiso   1.00
O517   O     0.20824   0.17759   0.64606   0.00000  Uiso   1.00
O518   O     0.17451   0.15880   0.84968   0.00000  Uiso   1.00
O519   O     0.17930   0.08019   0.78213   0.00000  Uiso   1.00
O520   O     0.14632   0.26085   0.77014   0.00000  Uiso   1.00
O521   O     0.07412   0.13291   0.73413   0.00000  Uiso   1.00
O522   O     0.26693   0.19272   0.71361   0.00000  Uiso   1.00
O523   O     0.07071   0.18878   0.78213   0.00000  Uiso   1.00
O524   O     0.25491   0.15226   0.77014   0.00000  Uiso   1.00
O525   O     0.13760   0.06944   0.73413   0.00000  Uiso   1.00
O526   O     0.20345   0.25620   0.71361   0.00000  Uiso   1.00
Zn527  Zn    0.19338   0.13994   0.78734   0.00000  Uiso   1.00
Zn528  Zn    0.13379   0.12458   0.71876   0.00000  Uiso   1.00
Zn529  Zn    0.21056   0.19775   0.70657   0.00000  Uiso   1.00
Zn530  Zn    0.12893   0.20439   0.78734   0.00000  Uiso   1.00
Br531  Br    0.64200   0.12827   0.81726   0.00000  Uiso   1.00
Br532  Br    0.55990   0.01285   0.69124   0.00000  Uiso   1.00
Br533  Br    0.51215   0.04298   0.92743   0.00000  Uiso   1.00
Br534  Br    0.58637   0.05516   0.97918   0.00000  Uiso   1.00
Br535  Br    0.44631   0.09578   0.90111   0.00000  Uiso   1.00
C536   C     0.38639   0.16016   0.75946   0.00000  Uiso   1.00
C537   C     0.50988   0.16413   0.55750   0.00000  Uiso   1.00
C538   C     0.54732   0.10562   0.55746   0.00000  Uiso   1.00
C539   C     0.61394   0.17362   0.74035   0.00000  Uiso   1.00
C540   C     0.47581   0.19479   0.92081   0.00000  Uiso   1.00
C541   C     0.65940   0.17513   0.73684   0.00000  Uiso   1.00
C542   C     0.34121   0.15692   0.76546   0.00000  Uiso   1.00
C543   C     0.51294   0.32232   0.73711   0.00000  Uiso   1.00
C544   C     0.48454   0.01267   0.76477   0.00000  Uiso   1.00
C545   C     0.48953   0.05613   0.76019   0.00000  Uiso   1.00
C546   C     0.50966   0.27789   0.74040   0.00000  Uiso   1.00
C547   C     0.47749   0.25017   0.98099   0.00000  Uiso   1.00
C548   C     0.51868   0.14786   0.62929   0.00000  Uiso   1.00
C549   C     0.48160   0.18477   0.87133   0.00000  Uiso   1.00
C550   C     0.54804   0.09465   0.51164   0.00000  Uiso   1.00
C551   C     0.52616   0.13921   0.58056   0.00000  Uiso   1.00
C552   C     0.46618   0.23483   0.94082   0.00000  Uiso   1.00
C553   C     0.49849   0.22627   0.50101   0.00000  Uiso   1.00
C554   C     0.49962   0.18328   0.98692   0.00000  Uiso   1.00
C555   C     0.48749   0.16732   0.94673   0.00000  Uiso   1.00
C556   C     0.51294   0.15570   0.51122   0.00000  Uiso   1.00
C557   C     0.52546   0.11677   0.99004   0.00000  Uiso   1.00
C558   C     0.51043   0.10025   0.95152   0.00000  Uiso   1.00
C559   C     0.48709   0.12419   0.93383   0.00000  Uiso   1.00
Cl560  Cl    0.57180   0.07679   0.58657   0.00000  Uiso   1.00
Cl561  Cl    0.44019   0.32878   0.80820   0.00000  Uiso   1.00
Cl562  Cl    0.44305   0.26814   0.91510   0.00000  Uiso   1.00
Cl563  Cl    0.52952   0.25334   0.53719   0.00000  Uiso   1.00
Cl564  Cl    0.46787   0.30083   0.50518   0.00000  Uiso   1.00
H565   H     0.49196   0.18852   0.57688   0.00000  Uiso   1.00
H566   H     0.34820   0.19148   0.70974   0.00000  Uiso   1.00
O567   O     0.50000   0.16667   0.75000   0.00000  Uiso   1.00
O568   O     0.48784   0.12637   0.65459   0.00000  Uiso   1.00
O569   O     0.46274   0.20391   0.84968   0.00000  Uiso   1.00
O570   O     0.54157   0.17759   0.64606   0.00000  Uiso   1.00
O571   O     0.50785   0.15880   0.84968   0.00000  Uiso   1.00
O572   O     0.51264   0.08019   0.78213   0.00000  Uiso   1.00
O573   O     0.47965   0.26085   0.77014   0.00000  Uiso   1.00
O574   O     0.40745   0.13291   0.73413   0.00000  Uiso   1.00
O575   O     0.60026   0.19272   0.71361   0.00000  Uiso   1.00
O576   O     0.40405   0.18878   0.78213   0.00000  Uiso   1.00
O577   O     0.58824   0.15226   0.77014   0.00000  Uiso   1.00
O578   O     0.47093   0.06944   0.73413   0.00000  Uiso   1.00
O579   O     0.53678   0.25620   0.71361   0.00000  Uiso   1.00
Zn580  Zn    0.52672   0.13994   0.78734   0.00000  Uiso   1.00
Zn581  Zn    0.46713   0.12458   0.71876   0.00000  Uiso   1.00
Zn582  Zn    0.54389   0.19775   0.70657   0.00000  Uiso   1.00
Zn583  Zn    0.46226   0.20439   0.78734   0.00000  Uiso   1.00
Br584  Br    0.97534   0.12827   0.81726   0.00000  Uiso   1.00
Br585  Br    0.89323   0.01285   0.69124   0.00000  Uiso   1.00
Br586  Br    0.84548   0.04298   0.92743   0.00000  Uiso   1.00
Br587  Br    0.91970   0.05516   0.97918   0.00000  Uiso   1.00
Br588  Br    0.77964   0.09578   0.90111   0.00000  Uiso   1.00
C589   C     0.71972   0.16016   0.75946   0.00000  Uiso   1.00
C590   C     0.84321   0.16413   0.55750   0.00000  Uiso   1.00
C591   C     0.88065   0.10562   0.55746   0.00000  Uiso   1.00
C592   C     0.94728   0.17362   0.74035   0.00000  Uiso   1.00
C593   C     0.80915   0.19479   0.92081   0.00000  Uiso   1.00
C594   C     0.99273   0.17513   0.73684   0.00000  Uiso   1.00
C595   C     0.67455   0.15692   0.76546   0.00000  Uiso   1.00
C596   C     0.84627   0.32232   0.73711   0.00000  Uiso   1.00
C597   C     0.81787   0.01267   0.76477   0.00000  Uiso   1.00
C598   C     0.82286   0.05613   0.76019   0.00000  Uiso   1.00
C599   C     0.84300   0.27789   0.74040   0.00000  Uiso   1.00
C600   C     0.81082   0.25017   0.98099   0.00000  Uiso   1.00
C601   C     0.85202   0.14786   0.62929   0.00000  Uiso   1.00
C602   C     0.81493   0.18477   0.87133   0.00000  Uiso   1.00
C603   C     0.88137   0.09465   0.51164   0.00000  Uiso   1.00
C604   C     0.85950   0.13921   0.58056   0.00000  Uiso   1.00
C605   C     0.79952   0.23483   0.94082   0.00000  Uiso   1.00
C606   C     0.83182   0.22627   0.50101   0.00000  Uiso   1.00
C607   C     0.83295   0.18328   0.98692   0.00000  Uiso   1.00
C608   C     0.82083   0.16732   0.94673   0.00000  Uiso   1.00
C609   C     0.84627   0.15570   0.51122   0.00000  Uiso   1.00
C610   C     0.85880   0.11677   0.99004   0.00000  Uiso   1.00
C611   C     0.84377   0.10025   0.95152   0.00000  Uiso   1.00
C612   C     0.82043   0.12419   0.93383   0.00000  Uiso   1.00
Cl613  Cl    0.90513   0.07679   0.58657   0.00000  Uiso   1.00
Cl614  Cl    0.77353   0.32878   0.80820   0.00000  Uiso   1.00
Cl615  Cl    0.77638   0.26814   0.91510   0.00000  Uiso   1.00
Cl616  Cl    0.86286   0.25334   0.53719   0.00000  Uiso   1.00
Cl617  Cl    0.80120   0.30083   0.50518   0.00000  Uiso   1.00
H618   H     0.82529   0.18852   0.57688   0.00000  Uiso   1.00
H619   H     0.68153   0.19148   0.70974   0.00000  Uiso   1.00
O620   O     0.83333   0.16667   0.75000   0.00000  Uiso   1.00
O621   O     0.82118   0.12637   0.65459   0.00000  Uiso   1.00
O622   O     0.79607   0.20391   0.84968   0.00000  Uiso   1.00
O623   O     0.87491   0.17759   0.64606   0.00000  Uiso   1.00
O624   O     0.84118   0.15880   0.84968   0.00000  Uiso   1.00
O625   O     0.84597   0.08019   0.78213   0.00000  Uiso   1.00
O626   O     0.81298   0.26085   0.77014   0.00000  Uiso   1.00
O627   O     0.74078   0.13291   0.73413   0.00000  Uiso   1.00
O628   O     0.93360   0.19272   0.71361   0.00000  Uiso   1.00
O629   O     0.73738   0.18878   0.78213   0.00000  Uiso   1.00
O630   O     0.92158   0.15226   0.77014   0.00000  Uiso   1.00
O631   O     0.80426   0.06944   0.73413   0.00000  Uiso   1.00
O632   O     0.87012   0.25620   0.71361   0.00000  Uiso   1.00
Zn633  Zn    0.86005   0.13994   0.78734   0.00000  Uiso   1.00
Zn634  Zn    0.80046   0.12458   0.71876   0.00000  Uiso   1.00
Zn635  Zn    0.87723   0.19775   0.70657   0.00000  Uiso   1.00
Zn636  Zn    0.79560   0.20439   0.78734   0.00000  Uiso   1.00
Br637  Br    0.30867   0.46160   0.81726   0.00000  Uiso   1.00
Br638  Br    0.22656   0.34618   0.69124   0.00000  Uiso   1.00
Br639  Br    0.17881   0.37631   0.92743   0.00000  Uiso   1.00
Br640  Br    0.25303   0.38849   0.97918   0.00000  Uiso   1.00
Br641  Br    0.11298   0.42911   0.90111   0.00000  Uiso   1.00
C642   C     0.05305   0.49350   0.75946   0.00000  Uiso   1.00
C643   C     0.17655   0.49747   0.55750   0.00000  Uiso   1.00
C644   C     0.21399   0.43895   0.55746   0.00000  Uiso   1.00
C645   C     0.28061   0.50695   0.74035   0.00000  Uiso   1.00
C646   C     0.14248   0.52812   0.92081   0.00000  Uiso   1.00
C647   C     0.32606   0.50847   0.73684   0.00000  Uiso   1.00
C648   C     0.00788   0.49025   0.76546   0.00000  Uiso   1.00
C649   C     0.17961   0.65566   0.73711   0.00000  Uiso   1.00
C650   C     0.15121   0.34601   0.76477   0.00000  Uiso   1.00
C651   C     0.15620   0.38947   0.76019   0.00000  Uiso   1.00
C652   C     0.17633   0.61122   0.74040   0.00000  Uiso   1.00
C653   C     0.14415   0.58350   0.98099   0.00000  Uiso   1.00
C654   C     0.18535   0.48119   0.62929   0.00000  Uiso   1.00
C655   C     0.14826   0.51810   0.87133   0.00000  Uiso   1.00
C656   C     0.21470   0.42799   0.51164   0.00000  Uiso   1.00
C657   C     0.19283   0.47255   0.58056   0.00000  Uiso   1.00
C658   C     0.13285   0.56817   0.94082   0.00000  Uiso   1.00
C659   C     0.16515   0.55961   0.50101   0.00000  Uiso   1.00
C660   C     0.16629   0.51661   0.98692   0.00000  Uiso   1.00
C661   C     0.15416   0.50065   0.94673   0.00000  Uiso   1.00
C662   C     0.17961   0.48903   0.51122   0.00000  Uiso   1.00
C663   C     0.19213   0.45011   0.99004   0.00000  Uiso   1.00
C664   C     0.17710   0.43358   0.95152   0.00000  Uiso   1.00
C665   C     0.15376   0.45752   0.93383   0.00000  Uiso   1.00
Cl666  Cl    0.23846   0.41012   0.58657   0.00000  Uiso   1.00
Cl667  Cl    0.10686   0.66212   0.80820   0.00000  Uiso   1.00
Cl668  Cl    0.10972   0.60148   0.91510   0.00000  Uiso   1.00
Cl669  Cl    0.19619   0.58667   0.53719   0.00000  Uiso   1.00
Cl670  Cl    0.13454   0.63417   0.50518   0.00000  Uiso   1.00
H671   H     0.15862   0.52185   0.57688   0.00000  Uiso   1.00
H672   H     0.01486   0.52481   0.70974   0.00000  Uiso   1.00
O673   O     0.16667   0.50000   0.75000   0.00000  Uiso   1.00
O674   O     0.15451   0.45970   0.65459   0.00000  Uiso   1.00
O675   O     0.12940   0.53724   0.84968   0.00000  Uiso   1.00
O676   O     0.20824   0.51092   0.64606   0.00000  Uiso   1.00
O677   O     0.17451   0.49213   0.84968   0.00000  Uiso   1.00
O678   O     0.17930   0.41352   0.78213   0.00000  Uiso   1.00
O679   O     0.14632   0.59418   0.77014   0.00000  Uiso   1.00
O680   O     0.07412   0.46625   0.73413   0.00000  Uiso   1.00
O681   O     0.26693   0.52605   0.71361   0.00000  Uiso   1.00
O682   O     0.07071   0.52211   0.78213   0.00000  Uiso   1.00
O683   O     0.25491   0.48559   0.77014   0.00000  Uiso   1.00
O684   O     0.13760   0.40277   0.73413   0.00000  Uiso   1.00
O685   O     0.20345   0.58953   0.71361   0.00000  Uiso   1.00
Zn686  Zn    0.19338   0.47327   0.78734   0.00000  Uiso   1.00
Zn687  Zn    0.13379   0.45791   0.71876   0.00000  Uiso   1.00
Zn688  Zn    0.21056   0.53109   0.70657   0.00000  Uiso   1.00
Zn689  Zn    0.12893   0.53773   0.78734   0.00000  Uiso   1.00
Br690  Br    0.64200   0.46160   0.81726   0.00000  Uiso   1.00
Br691  Br    0.55990   0.34618   0.69124   0.00000  Uiso   1.00
Br692  Br    0.51215   0.37631   0.92743   0.00000  Uiso   1.00
Br693  Br    0.58637   0.38849   0.97918   0.00000  Uiso   1.00
Br694  Br    0.44631   0.42911   0.90111   0.00000  Uiso   1.00
C695   C     0.38639   0.49350   0.75946   0.00000  Uiso   1.00
C696   C     0.50988   0.49747   0.55750   0.00000  Uiso   1.00
C697   C     0.54732   0.43895   0.55746   0.00000  Uiso   1.00
C698   C     0.61394   0.50695   0.74035   0.00000  Uiso   1.00
C699   C     0.47581   0.52812   0.92081   0.00000  Uiso   1.00
C700   C     0.65940   0.50847   0.73684   0.00000  Uiso   1.00
C701   C     0.34121   0.49025   0.76546   0.00000  Uiso   1.00
C702   C     0.51294   0.65566   0.73711   0.00000  Uiso   1.00
C703   C     0.48454   0.34601   0.76477   0.00000  Uiso   1.00
C704   C     0.48953   0.38947   0.76019   0.00000  Uiso   1.00
C705   C     0.50966   0.61122   0.74040   0.00000  Uiso   1.00
C706   C     0.47749   0.58350   0.98099   0.00000  Uiso   1.00
C707   C     0.51868   0.48119   0.62929   0.00000  Uiso   1.00
C708   C     0.48160   0.51810   0.87133   0.00000  Uiso   1.00
C709   C     0.54804   0.42799   0.51164   0.00000  Uiso   1.00
C710   C     0.52616   0.47255   0.58056   0.00000  Uiso   1.00
C711   C     0.46618   0.56817   0.94082   0.00000  Uiso   1.00
C712   C     0.49849   0.55961   0.50101   0.00000  Uiso   1.00
C713   C     0.49962   0.51661   0.98692   0.00000  Uiso   1.00
C714   C     0.48749   0.50065   0.94673   0.00000  Uiso   1.00
C715   C     0.51294   0.48903   0.51122   0.00000  Uiso   1.00
C716   C     0.52546   0.45011   0.99004   0.00000  Uiso   1.00
C717   C     0.51043   0.43358   0.95152   0.00000  Uiso   1.00
C718   C     0.48709   0.45752   0.93383   0.00000  Uiso   1.00
Cl719  Cl    0.57180   0.41012   0.58657   0.00000  Uiso   1.00
Cl720  Cl    0.44019   0.66212   0.80820   0.00000  Uiso   1.00
Cl721  Cl    0.44305   0.60148   0.91510   0.00000  Uiso   1.00
Cl722  Cl    0.52952   0.58667   0.53719   0.00000  Uiso   1.00
Cl723  Cl    0.46787   0.63417   0.50518   0.00000  Uiso   1.00
H724   H     0.49196   0.52185   0.57688   0.00000  Uiso   1.00
H725   H     0.34820   0.52481   0.70974   0.00000  Uiso   1.00
O726   O     0.50000   0.50000   0.75000   0.00000  Uiso   1.00
O727   O     0.48784   0.45970   0.65459   0.00000  Uiso   1.00
O728   O     0.46274   0.53724   0.84968   0.00000  Uiso   1.00
O729   O     0.54157   0.51092   0.64606   0.00000  Uiso   1.00
O730   O     0.50785   0.49213   0.84968   0.00000  Uiso   1.00
O731   O     0.51264   0.41352   0.78213   0.00000  Uiso   1.00
O732   O     0.47965   0.59418   0.77014   0.00000  Uiso   1.00
O733   O     0.40745   0.46625   0.73413   0.00000  Uiso   1.00
O734   O     0.60026   0.52605   0.71361   0.00000  Uiso   1.00
O735   O     0.40405   0.52211   0.78213   0.00000  Uiso   1.00
O736   O     0.58824   0.48559   0.77014   0.00000  Uiso   1.00
O737   O     0.47093   0.40277   0.73413   0.00000  Uiso   1.00
O738   O     0.53678   0.58953   0.71361   0.00000  Uiso   1.00
Zn739  Zn    0.52672   0.47327   0.78734   0.00000  Uiso   1.00
Zn740  Zn    0.46713   0.45791   0.71876   0.00000  Uiso   1.00
Zn741  Zn    0.54389   0.53109   0.70657   0.00000  Uiso   1.00
Zn742  Zn    0.46226   0.53773   0.78734   0.00000  Uiso   1.00
Br743  Br    0.97534   0.46160   0.81726   0.00000  Uiso   1.00
Br744  Br    0.89323   0.34618   0.69124   0.00000  Uiso   1.00
Br745  Br    0.84548   0.37631   0.92743   0.00000  Uiso   1.00
Br746  Br    0.91970   0.38849   0.97918   0.00000  Uiso   1.00
Br747  Br    0.77964   0.42911   0.90111   0.00000  Uiso   1.00
C748   C     0.71972   0.49350   0.75946   0.00000  Uiso   1.00
C749   C     0.84321   0.49747   0.55750   0.00000  Uiso   1.00
C750   C     0.88065   0.43895   0.55746   0.00000  Uiso   1.00
C751   C     0.94728   0.50695   0.74035   0.00000  Uiso   1.00
C752   C     0.80915   0.52812   0.92081   0.00000  Uiso   1.00
C753   C     0.99273   0.50847   0.73684   0.00000  Uiso   1.00
C754   C     0.67455   0.49025   0.76546   0.00000  Uiso   1.00
C755   C     0.84627   0.65566   0.73711   0.00000  Uiso   1.00
C756   C     0.81787   0.34601   0.76477   0.00000  Uiso   1.00
C757   C     0.82286   0.38947   0.76019   0.00000  Uiso   1.00
C758   C     0.84300   0.61122   0.74040   0.00000  Uiso   1.00
C759   C     0.81082   0.58350   0.98099   0.00000  Uiso   1.00
C760   C     0.85202   0.48119   0.62929   0.00000  Uiso   1.00
C761   C     0.81493   0.51810   0.87133   0.00000  Uiso   1.00
C762   C     0.88137   0.42799   0.51164   0.00000  Uiso   1.00
C763   C     0.85950   0.47255   0.58056   0.00000  Uiso   1.00
C764   C     0.79952   0.56817   0.94082   0.00000  Uiso   1.00
C765   C     0.83182   0.55961   0.50101   0.00000  Uiso   1.00
C766   C     0.83295   0.51661   0.98692   0.00000  Uiso   1.00
C767   C     0.82083   0.50065   0.94673   0.00000  Uiso   1.00
C768   C     0.84627   0.48903   0.51122   0.00000  Uiso   1.00
C769   C     0.85880   0.45011   0.99004   0.00000  Uiso   1.00
C770   C     0.84377   0.43358   0.95152   0.00000  Uiso   1.00
C771   C     0.82043   0.45752   0.93383   0.00000  Uiso   1.00
Cl772  Cl    0.90513   0.41012   0.58657   0.00000  Uiso   1.00
Cl773  Cl    0.77353   0.66212   0.80820   0.00000  Uiso   1.00
Cl774  Cl    0.77638   0.60148   0.91510   0.00000  Uiso   1.00
Cl775  Cl    0.86286   0.58667   0.53719   0.00000  Uiso   1.00
Cl776  Cl    0.80120   0.63417   0.50518   0.00000  Uiso   1.00
H777   H     0.82529   0.52185   0.57688   0.00000  Uiso   1.00
H778   H     0.68153   0.52481   0.70974   0.00000  Uiso   1.00
O779   O     0.83333   0.50000   0.75000   0.00000  Uiso   1.00
O780   O     0.82118   0.45970   0.65459   0.00000  Uiso   1.00
O781   O     0.79607   0.53724   0.84968   0.00000  Uiso   1.00
O782   O     0.87491   0.51092   0.64606   0.00000  Uiso   1.00
O783   O     0.84118   0.49213   0.84968   0.00000  Uiso   1.00
O784   O     0.84597   0.41352   0.78213   0.00000  Uiso   1.00
O785   O     0.81298   0.59418   0.77014   0.00000  Uiso   1.00
O786   O     0.74078   0.46625   0.73413   0.00000  Uiso   1.00
O787   O     0.93360   0.52605   0.71361   0.00000  Uiso   1.00
O788   O     0.73738   0.52211   0.78213   0.00000  Uiso   1.00
O789   O     0.92158   0.48559   0.77014   0.00000  Uiso   1.00
O790   O     0.80426   0.40277   0.73413   0.00000  Uiso   1.00
O791   O     0.87012   0.58953   0.71361   0.00000  Uiso   1.00
Zn792  Zn    0.86005   0.47327   0.78734   0.00000  Uiso   1.00
Zn793  Zn    0.80046   0.45791   0.71876   0.00000  Uiso   1.00
Zn794  Zn    0.87723   0.53109   0.70657   0.00000  Uiso   1.00
Zn795  Zn    0.79560   0.53773   0.78734   0.00000  Uiso   1.00
Br796  Br    0.30867   0.79493   0.81726   0.00000  Uiso   1.00
Br797  Br    0.22656   0.67952   0.69124   0.00000  Uiso   1.00
Br798  Br    0.17881   0.70965   0.92743   0.00000  Uiso   1.00
Br799  Br    0.25303   0.72182   0.97918   0.00000  Uiso   1.00
Br800  Br    0.11298   0.76245   0.90111   0.00000  Uiso   1.00
C801   C     0.05305   0.82683   0.75946   0.00000  Uiso   1.00
C802   C     0.17655   0.83080   0.55750   0.00000  Uiso   1.00
C803   C     0.21399   0.77229   0.55746   0.00000  Uiso   1.00
C804   C     0.28061   0.84028   0.74035   0.00000  Uiso   1.00
C805   C     0.14248   0.86146   0.92081   0.00000  Uiso   1.00
C806   C     0.32606   0.84180   0.73684   0.00000  Uiso   1.00
C807   C     0.00788   0.82359   0.76546   0.00000  Uiso   1.00
C808   C     0.17961   0.98899   0.73711   0.00000  Uiso   1.00
C809   C     0.15121   0.67934   0.76477   0.00000  Uiso   1.00
C810   C     0.15620   0.72280   0.76019   0.00000  Uiso   1.00
C811   C     0.17633   0.94456   0.74040   0.00000  Uiso   1.00
C812   C     0.14415   0.91683   0.98099   0.00000  Uiso   1.00
C813   C     0.18535   0.81453   0.62929   0.00000  Uiso   1.00
C814   C     0.14826   0.85143   0.87133   0.00000  Uiso   1.00
C815   C     0.21470   0.76132   0.51164   0.00000  Uiso   1.00
C816   C     0.19283   0.80588   0.58056   0.00000  Uiso   1.00
C817   C     0.13285   0.90150   0.94082   0.00000  Uiso   1.00
C818   C     0.16515   0.89294   0.50101   0.00000  Uiso   1.00
C819   C     0.16629   0.84994   0.98692   0.00000  Uiso   1.00
C820   C     0.15416   0.83398   0.94673   0.00000  Uiso   1.00
C821   C     0.17961   0.82236   0.51122   0.00000  Uiso   1.00
C822   C     0.19213   0.78344   0.99004   0.00000  Uiso   1.00
C823   C     0.17710   0.76692   0.95152   0.00000  Uiso   1.00
C824   C     0.15376   0.79085   0.93383   0.00000  Uiso   1.00
Cl825  Cl    0.23846   0.74345   0.58657   0.00000  Uiso   1.00
Cl826  Cl    0.10686   0.99545   0.80820   0.00000  Uiso   1.00
Cl827  Cl    0.10972   0.93481   0.91510   0.00000  Uiso   1.00
Cl828  Cl    0.19619   0.92001   0.53719   0.00000  Uiso   1.00
Cl829  Cl    0.13454   0.96750   0.50518   0.00000  Uiso   1.00
H830   H     0.15862   0.85518   0.57688   0.00000  Uiso   1.00
H831   H     0.01486   0.85815   0.70974   0.00000  Uiso   1.00
O832   O     0.16667   0.83333   0.75000   0.00000  Uiso   1.00
O833   O     0.15451   0.79304   0.65459   0.00000  Uiso   1.00
O834   O     0.12940   0.87058   0.84968   0.00000  Uiso   1.00
O835   O     0.20824   0.84425   0.64606   0.00000  Uiso   1.00
O836   O     0.17451   0.82546   0.84968   0.00000  Uiso   1.00
O837   O     0.17930   0.74686   0.78213   0.00000  Uiso   1.00
O838   O     0.14632   0.92751   0.77014   0.00000  Uiso   1.00
O839   O     0.07412   0.79958   0.73413   0.00000  Uiso   1.00
O840   O     0.26693   0.85939   0.71361   0.00000  Uiso   1.00
O841   O     0.07071   0.85544   0.78213   0.00000  Uiso   1.00
O842   O     0.25491   0.81892   0.77014   0.00000  Uiso   1.00
O843   O     0.13760   0.73610   0.73413   0.00000  Uiso   1.00
O844   O     0.20345   0.92286   0.71361   0.00000  Uiso   1.00
Zn845  Zn    0.19338   0.80661   0.78734   0.00000  Uiso   1.00
Zn846  Zn    0.13379   0.79124   0.71876   0.00000  Uiso   1.00
Zn847  Zn    0.21056   0.86442   0.70657   0.00000  Uiso   1.00
Zn848  Zn    0.12893   0.87106   0.78734   0.00000  Uiso   1.00
Br849  Br    0.64200   0.79493   0.81726   0.00000  Uiso   1.00
Br850  Br    0.55990   0.67952   0.69124   0.00000  Uiso   1.00
Br851  Br    0.51215   0.70965   0.92743   0.00000  Uiso   1.00
Br852  Br    0.58637   0.72182   0.97918   0.00000  Uiso   1.00
Br853  Br    0.44631   0.76245   0.90111   0.00000  Uiso   1.00
C854   C     0.38639   0.82683   0.75946   0.00000  Uiso   1.00
C855   C     0.50988   0.83080   0.55750   0.00000  Uiso   1.00
C856   C     0.54732   0.77229   0.55746   0.00000  Uiso   1.00
C857   C     0.61394   0.84028   0.74035   0.00000  Uiso   1.00
C858   C     0.47581   0.86146   0.92081   0.00000  Uiso   1.00
C859   C     0.65940   0.84180   0.73684   0.00000  Uiso   1.00
C860   C     0.34121   0.82359   0.76546   0.00000  Uiso   1.00
C861   C     0.51294   0.98899   0.73711   0.00000  Uiso   1.00
C862   C     0.48454   0.67934   0.76477   0.00000  Uiso   1.00
C863   C     0.48953   0.72280   0.76019   0.00000  Uiso   1.00
C864   C     0.50966   0.94456   0.74040   0.00000  Uiso   1.00
C865   C     0.47749   0.91683   0.98099   0.00000  Uiso   1.00
C866   C     0.51868   0.81453   0.62929   0.00000  Uiso   1.00
C867   C     0.48160   0.85143   0.87133   0.00000  Uiso   1.00
C868   C     0.54804   0.76132   0.51164   0.00000  Uiso   1.00
C869   C     0.52616   0.80588   0.58056   0.00000  Uiso   1.00
C870   C     0.46618   0.90150   0.94082   0.00000  Uiso   1.00
C871   C     0.49849   0.89294   0.50101   0.00000  Uiso   1.00
C872   C     0.49962   0.84994   0.98692   0.00000  Uiso   1.00
C873   C     0.48749   0.83398   0.94673   0.00000  Uiso   1.00
C874   C     0.51294   0.82236   0.51122   0.00000  Uiso   1.00
C875   C     0.52546   0.78344   0.99004   0.00000  Uiso   1.00
C876   C     0.51043   0.76692   0.95152   0.00000  Uiso   1.00
C877   C     0.48709   0.79085   0.93383   0.00000  Uiso   1.00
Cl878  Cl    0.57180   0.74345   0.58657   0.00000  Uiso   1.00
Cl879  Cl    0.44019   0.99545   0.80820   0.00000  Uiso   1.00
Cl880  Cl    0.44305   0.93481   0.91510   0.00000  Uiso   1.00
Cl881  Cl    0.52952   0.92001   0.53719   0.00000  Uiso   1.00
Cl882  Cl    0.46787   0.96750   0.50518   0.00000  Uiso   1.00
H883   H     0.49196   0.85518   0.57688   0.00000  Uiso   1.00
H884   H     0.34820   0.85815   0.70974   0.00000  Uiso   1.00
O885   O     0.50000   0.83333   0.75000   0.00000  Uiso   1.00
O886   O     0.48784   0.79304   0.65459   0.00000  Uiso   1.00
O887   O     0.46274   0.87058   0.84968   0.00000  Uiso   1.00
O888   O     0.54157   0.84425   0.64606   0.00000  Uiso   1.00
O889   O     0.50785   0.82546   0.84968   0.00000  Uiso   1.00
O890   O     0.51264   0.74686   0.78213   0.00000  Uiso   1.00
O891   O     0.47965   0.92751   0.77014   0.00000  Uiso   1.00
O892   O     0.40745   0.79958   0.73413   0.00000  Uiso   1.00
O893   O     0.60026   0.85939   0.71361   0.00000  Uiso   1.00
O894   O     0.40405   0.85544   0.78213   0.00000  Uiso   1.00
O895   O     0.58824   0.81892   0.77014   0.00000  Uiso   1.00
O896   O     0.47093   0.73610   0.73413   0.00000  Uiso   1.00
O897   O     0.53678   0.92286   0.71361   0.00000  Uiso   1.00
Zn898  Zn    0.52672   0.80661   0.78734   0.00000  Uiso   1.00
Zn899  Zn    0.46713   0.79124   0.71876   0.00000  Uiso   1.00
Zn900  Zn    0.54389   0.86442   0.70657   0.00000  Uiso   1.00
Zn901  Zn    0.46226   0.87106   0.78734   0.00000  Uiso   1.00
Br902  Br    0.97534   0.79493   0.81726   0.00000  Uiso   1.00
Br903  Br    0.89323   0.67952   0.69124   0.00000  Uiso   1.00
Br904  Br    0.84548   0.70965   0.92743   0.00000  Uiso   1.00
Br905  Br    0.91970   0.72182   0.97918   0.00000  Uiso   1.00
Br906  Br    0.77964   0.76245   0.90111   0.00000  Uiso   1.00
C907   C     0.71972   0.82683   0.75946   0.00000  Uiso   1.00
C908   C     0.84321   0.83080   0.55750   0.00000  Uiso   1.00
C909   C     0.88065   0.77229   0.55746   0.00000  Uiso   1.00
C910   C     0.94728   0.84028   0.74035   0.00000  Uiso   1.00
C911   C     0.80915   0.86146   0.92081   0.00000  Uiso   1.00
C912   C     0.99273   0.84180   0.73684   0.00000  Uiso   1.00
C913   C     0.67455   0.82359   0.76546   0.00000  Uiso   1.00
C914   C     0.84627   0.98899   0.73711   0.00000  Uiso   1.00
C915   C     0.81787   0.67934   0.76477   0.00000  Uiso   1.00
C916   C     0.82286   0.72280   0.76019   0.00000  Uiso   1.00
C917   C     0.84300   0.94456   0.74040   0.00000  Uiso   1.00
C918   C     0.81082   0.91683   0.98099   0.00000  Uiso   1.00
C919   C     0.85202   0.81453   0.62929   0.00000  Uiso   1.00
C920   C     0.81493   0.85143   0.87133   0.00000  Uiso   1.00
C921   C     0.88137   0.76132   0.51164   0.00000  Uiso   1.00
C922   C     0.85950   0.80588   0.58056   0.00000  Uiso   1.00
C923   C     0.79952   0.90150   0.94082   0.00000  Uiso   1.00
C924   C     0.83182   0.89294   0.50101   0.00000  Uiso   1.00
C925   C     0.83295   0.84994   0.98692   0.00000  Uiso   1.00
C926   C     0.82083   0.83398   0.94673   0.00000  Uiso   1.00
C927   C     0.84627   0.82236   0.51122   0.00000  Uiso   1.00
C928   C     0.85880   0.78344   0.99004   0.00000  Uiso   1.00
C929   C     0.84377   0.76692   0.95152   0.00000  Uiso   1.00
C930   C     0.82043   0.79085   0.93383   0.00000  Uiso   1.00
Cl931  Cl    0.90513   0.74345   0.58657   0.00000  Uiso   1.00
Cl932  Cl    0.77353   0.99545   0.80820   0.00000  Uiso   1.00
Cl933  Cl    0.77638   0.93481   0.91510   0.00000  Uiso   1.00
Cl934  Cl    0.86286   0.92001   0.53719   0.00000  Uiso   1.00
Cl935  Cl    0.80120   0.96750   0.50518   0.00000  Uiso   1.00
H936   H     0.82529   0.85518   0.57688   0.00000  Uiso   1.00
H937   H     0.68153   0.85815   0.70974   0.00000  Uiso   1.00
O938   O     0.83333   0.83333   0.75000   0.00000  Uiso   1.00
O939   O     0.82118   0.79304   0.65459   0.00000  Uiso   1.00
O940   O     0.79607   0.87058   0.84968   0.00000  Uiso   1.00
O941   O     0.87491   0.84425   0.64606   0.00000  Uiso   1.00
O942   O     0.84118   0.82546   0.84968   0.00000  Uiso   1.00
O943   O     0.84597   0.74686   0.78213   0.00000  Uiso   1.00
O944   O     0.81298   0.92751   0.77014   0.00000  Uiso   1.00
O945   O     0.74078   0.79958   0.73413   0.00000  Uiso   1.00
O946   O     0.93360   0.85939   0.71361   0.00000  Uiso   1.00
O947   O     0.73738   0.85544   0.78213   0.00000  Uiso   1.00
O948   O     0.92158   0.81892   0.77014   0.00000  Uiso   1.00
O949   O     0.80426   0.73610   0.73413   0.00000  Uiso   1.00
O950   O     0.87012   0.92286   0.71361   0.00000  Uiso   1.00
Zn951  Zn    0.86005   0.80661   0.78734   0.00000  Uiso   1.00
Zn952  Zn    0.80046   0.79124   0.71876   0.00000  Uiso   1.00
Zn953  Zn    0.87723   0.86442   0.70657   0.00000  Uiso   1.00
Zn954  Zn    0.79560   0.87106   0.78734   0.00000  Uiso   1.00
loop_
_geom_bond_atom_site_label_1
_geom_bond_atom_site_label_2
_geom_bond_distance
_geom_bond_site_symmetry_2
_ccdc_geom_bond_type
Br1    C65     1.932   .     S
Br2    C331    1.934   1_545 S
Br3    C28     1.932   .     S
Br4    C497    1.932   .     S
Br5    C29     1.944   .     S
C6     O44     1.266   .     A
C6     C12     1.428   .     S
C6     O46     1.263   .     A
C7     C26     1.399   .     A
C7     C21     1.383   .     A
C7     H35     1.082   .     S
C8     Cl30    1.768   .     S
C8     C21     1.401   .     A
C8     C20     1.409   .     A
C9     O45     1.290   .     A
C9     C11     1.454   .     S
C9     O47     1.271   .     A
C10    C19     1.488   .     S
C10    C22     1.420   .     A
C10    C25     1.421   .     A
C11    C65     1.348   .     S
C11    H89     1.088   .     S
C12    C117    1.348   1_455 S
C12    Br107   1.932   1_455 S
C13    C16     1.455   .     S
C13    Br161   1.934   .     S
C13    C173    1.349   .     S
C14    C15     1.426   .     S
C14    C331    1.349   1_545 S
C14    Cl349   1.770   1_545 S
C15    O48     1.272   .     A
C15    O42     1.271   .     A
C16    O43     1.267   .     A
C16    O49     1.275   .     A
C17    C22     1.399   .     A
C17    C500    1.397   .     S
C17    Cl511   1.769   .     S
C18    C21     1.456   .     S
C18    O38     1.277   .     A
C18    O40     1.283   .     A
C19    O39     1.281   .     A
C19    O41     1.294   .     A
C20    Br481   1.932   1_554 S
C20    C504    1.426   1_554 S
C22    Cl32    1.772   .     S
C23    Cl33    1.776   .     S
C23    C494    1.397   1_554 S
C23    C501    1.423   1_554 S
C24    C25     1.416   .     A
C24    C500    1.423   .     S
C24    C503    1.417   .     S
C25    C29     1.418   .     A
C26    C501    1.417   1_554 S
C26    C504    1.422   1_554 S
C27    C28     1.421   .     A
C27    C503    1.422   .     S
C27    C497    1.426   .     S
C28    C29     1.408   .     A
Cl31   C173    1.770   .     S
Cl34   C494    1.769   1_554 S
H36    C117    1.088   1_455 S
O37    Zn53    1.927   .     S
O37    Zn50    1.958   .     S
O37    Zn51    1.943   .     S
O37    Zn52    1.944   .     S
O38    Zn51    1.919   .     S
O39    Zn53    1.927   .     S
O40    Zn52    1.919   .     S
O41    Zn50    1.911   .     S
O42    Zn50    1.939   .     S
O43    Zn53    1.945   .     S
O44    Zn51    1.932   .     S
O45    Zn52    1.941   .     S
O46    Zn53    1.940   .     S
O47    Zn50    1.934   .     S
O48    Zn51    1.946   .     S
O49    Zn52    1.937   .     S
Br54   C118    1.932   .     S
Br55   C384    1.934   1_545 S
Br56   C81     1.932   .     S
Br57   C550    1.932   .     S
Br58   C82     1.944   .     S
C59    O97     1.266   .     A
C59    C65     1.428   .     S
C59    O99     1.263   .     A
C60    C79     1.399   .     A
C60    C74     1.383   .     A
C60    H88     1.082   .     S
C61    Cl83    1.768   .     S
C61    C74     1.401   .     A
C61    C73     1.409   .     A
C62    O98     1.290   .     A
C62    C64     1.454   .     S
C62    O100    1.271   .     A
C63    C72     1.488   .     S
C63    C75     1.420   .     A
C63    C78     1.421   .     A
C64    C118    1.348   .     S
C64    H142    1.088   .     S
C66    C69     1.455   .     S
C66    Br214   1.934   .     S
C66    C226    1.349   .     S
C67    C68     1.426   .     S
C67    C384    1.349   1_545 S
C67    Cl402   1.770   1_545 S
C68    O101    1.272   .     A
C68    O95     1.271   .     A
C69    O96     1.267   .     A
C69    O102    1.275   .     A
C70    C75     1.399   .     A
C70    C553    1.397   .     S
C70    Cl564   1.769   .     S
C71    C74     1.456   .     S
C71    O91     1.277   .     A
C71    O93     1.283   .     A
C72    O92     1.281   .     A
C72    O94     1.294   .     A
C73    Br534   1.932   1_554 S
C73    C557    1.426   1_554 S
C75    Cl85    1.772   .     S
C76    Cl86    1.776   .     S
C76    C547    1.397   1_554 S
C76    C554    1.423   1_554 S
C77    C78     1.416   .     A
C77    C553    1.423   .     S
C77    C556    1.417   .     S
C78    C82     1.418   .     A
C79    C554    1.417   1_554 S
C79    C557    1.422   1_554 S
C80    C81     1.421   .     A
C80    C556    1.422   .     S
C80    C550    1.426   .     S
C81    C82     1.408   .     A
Cl84   C226    1.770   .     S
Cl87   C547    1.769   1_554 S
O90    Zn106   1.927   .     S
O90    Zn103   1.958   .     S
O90    Zn104   1.943   .     S
O90    Zn105   1.944   .     S
O91    Zn104   1.919   .     S
O92    Zn106   1.927   .     S
O93    Zn105   1.919   .     S
O94    Zn103   1.911   .     S
O95    Zn103   1.939   .     S
O96    Zn106   1.945   .     S
O97    Zn104   1.932   .     S
O98    Zn105   1.941   .     S
O99    Zn106   1.940   .     S
O100   Zn103   1.934   .     S
O101   Zn104   1.946   .     S
O102   Zn105   1.937   .     S
Br107  C12     1.932   1_655 S
Br108  C437    1.934   1_545 S
Br109  C134    1.932   .     S
Br110  C603    1.932   .     S
Br111  C135    1.944   .     S
C112   O150    1.266   .     A
C112   C118    1.428   .     S
C112   O152    1.263   .     A
C113   C132    1.399   .     A
C113   C127    1.383   .     A
C113   H141    1.082   .     S
C114   Cl136   1.768   .     S
C114   C127    1.401   .     A
C114   C126    1.409   .     A
C115   O151    1.290   .     A
C115   C117    1.454   .     S
C115   O153    1.271   .     A
C116   C125    1.488   .     S
C116   C128    1.420   .     A
C116   C131    1.421   .     A
C117   C12     1.348   1_655 S
C117   H36     1.088   1_655 S
C119   C122    1.455   .     S
C119   Br267   1.934   .     S
C119   C279    1.349   .     S
C120   C121    1.426   .     S
C120   C437    1.349   1_545 S
C120   Cl455   1.770   1_545 S
C121   O154    1.272   .     A
C121   O148    1.271   .     A
C122   O149    1.267   .     A
C122   O155    1.275   .     A
C123   C128    1.399   .     A
C123   C606    1.397   .     S
C123   Cl617   1.769   .     S
C124   C127    1.456   .     S
C124   O144    1.277   .     A
C124   O146    1.283   .     A
C125   O145    1.281   .     A
C125   O147    1.294   .     A
C126   Br587   1.932   1_554 S
C126   C610    1.426   1_554 S
C128   Cl138   1.772   .     S
C129   Cl139   1.776   .     S
C129   C600    1.397   1_554 S
C129   C607    1.423   1_554 S
C130   C131    1.416   .     A
C130   C606    1.423   .     S
C130   C609    1.417   .     S
C131   C135    1.418   .     A
C132   C607    1.417   1_554 S
C132   C610    1.422   1_554 S
C133   C134    1.421   .     A
C133   C609    1.422   .     S
C133   C603    1.426   .     S
C134   C135    1.408   .     A
Cl137  C279    1.770   .     S
Cl140  C600    1.769   1_554 S
O143   Zn159   1.927   .     S
O143   Zn156   1.958   .     S
O143   Zn157   1.943   .     S
O143   Zn158   1.944   .     S
O144   Zn157   1.919   .     S
O145   Zn159   1.927   .     S
O146   Zn158   1.919   .     S
O147   Zn156   1.911   .     S
O148   Zn156   1.939   .     S
O149   Zn159   1.945   .     S
O150   Zn157   1.932   .     S
O151   Zn158   1.941   .     S
O152   Zn159   1.940   .     S
O153   Zn156   1.934   .     S
O154   Zn157   1.946   .     S
O155   Zn158   1.937   .     S
Br160  C224    1.932   .     S
Br162  C187    1.932   .     S
Br163  C656    1.932   .     S
Br164  C188    1.944   .     S
C165   O203    1.266   .     A
C165   C171    1.428   .     S
C165   O205    1.263   .     A
C166   C185    1.399   .     A
C166   C180    1.383   .     A
C166   H194    1.082   .     S
C167   Cl189   1.768   .     S
C167   C180    1.401   .     A
C167   C179    1.409   .     A
C168   O204    1.290   .     A
C168   C170    1.454   .     S
C168   O206    1.271   .     A
C169   C178    1.488   .     S
C169   C181    1.420   .     A
C169   C184    1.421   .     A
C170   C224    1.348   .     S
C170   H248    1.088   .     S
C171   C276    1.348   1_455 S
C171   Br266   1.932   1_455 S
C172   C175    1.455   .     S
C172   Br320   1.934   .     S
C172   C332    1.349   .     S
C173   C174    1.426   .     S
C174   O207    1.272   .     A
C174   O201    1.271   .     A
C175   O202    1.267   .     A
C175   O208    1.275   .     A
C176   C181    1.399   .     A
C176   C659    1.397   .     S
C176   Cl670   1.769   .     S
C177   C180    1.456   .     S
C177   O197    1.277   .     A
C177   O199    1.283   .     A
C178   O198    1.281   .     A
C178   O200    1.294   .     A
C179   Br640   1.932   1_554 S
C179   C663    1.426   1_554 S
C181   Cl191   1.772   .     S
C182   Cl192   1.776   .     S
C182   C653    1.397   1_554 S
C182   C660    1.423   1_554 S
C183   C184    1.416   .     A
C183   C659    1.423   .     S
C183   C662    1.417   .     S
C184   C188    1.418   .     A
C185   C660    1.417   1_554 S
C185   C663    1.422   1_554 S
C186   C187    1.421   .     A
C186   C662    1.422   .     S
C186   C656    1.426   .     S
C187   C188    1.408   .     A
Cl190  C332    1.770   .     S
Cl193  C653    1.769   1_554 S
H195   C276    1.088   1_455 S
O196   Zn212   1.927   .     S
O196   Zn209   1.958   .     S
O196   Zn210   1.943   .     S
O196   Zn211   1.944   .     S
O197   Zn210   1.919   .     S
O198   Zn212   1.927   .     S
O199   Zn211   1.919   .     S
O200   Zn209   1.911   .     S
O201   Zn209   1.939   .     S
O202   Zn212   1.945   .     S
O203   Zn210   1.932   .     S
O204   Zn211   1.941   .     S
O205   Zn212   1.940   .     S
O206   Zn209   1.934   .     S
O207   Zn210   1.946   .     S
O208   Zn211   1.937   .     S
Br213  C277    1.932   .     S
Br215  C240    1.932   .     S
Br216  C709    1.932   .     S
Br217  C241    1.944   .     S
C218   O256    1.266   .     A
C218   C224    1.428   .     S
C218   O258    1.263   .     A
C219   C238    1.399   .     A
C219   C233    1.383   .     A
C219   H247    1.082   .     S
C220   Cl242   1.768   .     S
C220   C233    1.401   .     A
C220   C232    1.409   .     A
C221   O257    1.290   .     A
C221   C223    1.454   .     S
C221   O259    1.271   .     A
C222   C231    1.488   .     S
C222   C234    1.420   .     A
C222   C237    1.421   .     A
C223   C277    1.348   .     S
C223   H301    1.088   .     S
C225   C228    1.455   .     S
C225   Br373   1.934   .     S
C225   C385    1.349   .     S
C226   C227    1.426   .     S
C227   O260    1.272   .     A
C227   O254    1.271   .     A
C228   O255    1.267   .     A
C228   O261    1.275   .     A
C229   C234    1.399   .     A
C229   C712    1.397   .     S
C229   Cl723   1.769   .     S
C230   C233    1.456   .     S
C230   O250    1.277   .     A
C230   O252    1.283   .     A
C231   O251    1.281   .     A
C231   O253    1.294   .     A
C232   Br693   1.932   1_554 S
C232   C716    1.426   1_554 S
C234   Cl244   1.772   .     S
C235   Cl245   1.776   .     S
C235   C706    1.397   1_554 S
C235   C713    1.423   1_554 S
C236   C237    1.416   .     A
C236   C712    1.423   .     S
C236   C715    1.417   .     S
C237   C241    1.418   .     A
C238   C713    1.417   1_554 S
C238   C716    1.422   1_554 S
C239   C240    1.421   .     A
C239   C715    1.422   .     S
C239   C709    1.426   .     S
C240   C241    1.408   .     A
Cl243  C385    1.770   .     S
Cl246  C706    1.769   1_554 S
O249   Zn265   1.927   .     S
O249   Zn262   1.958   .     S
O249   Zn263   1.943   .     S
O249   Zn264   1.944   .     S
O250   Zn263   1.919   .     S
O251   Zn265   1.927   .     S
O252   Zn264   1.919   .     S
O253   Zn262   1.911   .     S
O254   Zn262   1.939   .     S
O255   Zn265   1.945   .     S
O256   Zn263   1.932   .     S
O257   Zn264   1.941   .     S
O258   Zn265   1.940   .     S
O259   Zn262   1.934   .     S
O260   Zn263   1.946   .     S
O261   Zn264   1.937   .     S
Br266  C171    1.932   1_655 S
Br268  C293    1.932   .     S
Br269  C762    1.932   .     S
Br270  C294    1.944   .     S
C271   O309    1.266   .     A
C271   C277    1.428   .     S
C271   O311    1.263   .     A
C272   C291    1.399   .     A
C272   C286    1.383   .     A
C272   H300    1.082   .     S
C273   Cl295   1.768   .     S
C273   C286    1.401   .     A
C273   C285    1.409   .     A
C274   O310    1.290   .     A
C274   C276    1.454   .     S
C274   O312    1.271   .     A
C275   C284    1.488   .     S
C275   C287    1.420   .     A
C275   C290    1.421   .     A
C276   C171    1.348   1_655 S
C276   H195    1.088   1_655 S
C278   C281    1.455   .     S
C278   Br426   1.934   .     S
C278   C438    1.349   .     S
C279   C280    1.426   .     S
C280   O313    1.272   .     A
C280   O307    1.271   .     A
C281   O308    1.267   .     A
C281   O314    1.275   .     A
C282   C287    1.399   .     A
C282   C765    1.397   .     S
C282   Cl776   1.769   .     S
C283   C286    1.456   .     S
C283   O303    1.277   .     A
C283   O305    1.283   .     A
C284   O304    1.281   .     A
C284   O306    1.294   .     A
C285   Br746   1.932   1_554 S
C285   C769    1.426   1_554 S
C287   Cl297   1.772   .     S
C288   Cl298   1.776   .     S
C288   C759    1.397   1_554 S
C288   C766    1.423   1_554 S
C289   C290    1.416   .     A
C289   C765    1.423   .     S
C289   C768    1.417   .     S
C290   C294    1.418   .     A
C291   C766    1.417   1_554 S
C291   C769    1.422   1_554 S
C292   C293    1.421   .     A
C292   C768    1.422   .     S
C292   C762    1.426   .     S
C293   C294    1.408   .     A
Cl296  C438    1.770   .     S
Cl299  C759    1.769   1_554 S
O302   Zn318   1.927   .     S
O302   Zn315   1.958   .     S
O302   Zn316   1.943   .     S
O302   Zn317   1.944   .     S
O303   Zn316   1.919   .     S
O304   Zn318   1.927   .     S
O305   Zn317   1.919   .     S
O306   Zn315   1.911   .     S
O307   Zn315   1.939   .     S
O308   Zn318   1.945   .     S
O309   Zn316   1.932   .     S
O310   Zn317   1.941   .     S
O311   Zn318   1.940   .     S
O312   Zn315   1.934   .     S
O313   Zn316   1.946   .     S
O314   Zn317   1.937   .     S
Br319  C383    1.932   .     S
Br321  C346    1.932   .     S
Br322  C815    1.932   .     S
Br323  C347    1.944   .     S
C324   O362    1.266   .     A
C324   C330    1.428   .     S
C324   O364    1.263   .     A
C325   C344    1.399   .     A
C325   C339    1.383   .     A
C325   H353    1.082   .     S
C326   Cl348   1.768   .     S
C326   C339    1.401   .     A
C326   C338    1.409   .     A
C327   O363    1.290   .     A
C327   C329    1.454   .     S
C327   O365    1.271   .     A
C328   C337    1.488   .     S
C328   C340    1.420   .     A
C328   C343    1.421   .     A
C329   C383    1.348   .     S
C329   H407    1.088   .     S
C330   C435    1.348   1_455 S
C330   Br425   1.932   1_455 S
C331   C334    1.455   .     S
C331   Br2     1.934   1_565 S
C331   C14     1.349   1_565 S
C332   C333    1.426   .     S
C333   O366    1.272   .     A
C333   O360    1.271   .     A
C334   O361    1.267   .     A
C334   O367    1.275   .     A
C335   C340    1.399   .     A
C335   C818    1.397   .     S
C335   Cl829   1.769   .     S
C336   C339    1.456   .     S
C336   O356    1.277   .     A
C336   O358    1.283   .     A
C337   O357    1.281   .     A
C337   O359    1.294   .     A
C338   Br799   1.932   1_554 S
C338   C822    1.426   1_554 S
C340   Cl350   1.772   .     S
C341   Cl351   1.776   .     S
C341   C812    1.397   1_554 S
C341   C819    1.423   1_554 S
C342   C343    1.416   .     A
C342   C818    1.423   .     S
C342   C821    1.417   .     S
C343   C347    1.418   .     A
C344   C819    1.417   1_554 S
C344   C822    1.422   1_554 S
C345   C346    1.421   .     A
C345   C821    1.422   .     S
C345   C815    1.426   .     S
C346   C347    1.408   .     A
Cl349  C14     1.770   1_565 S
Cl352  C812    1.769   1_554 S
H354   C435    1.088   1_455 S
O355   Zn371   1.927   .     S
O355   Zn368   1.958   .     S
O355   Zn369   1.943   .     S
O355   Zn370   1.944   .     S
O356   Zn369   1.919   .     S
O357   Zn371   1.927   .     S
O358   Zn370   1.919   .     S
O359   Zn368   1.911   .     S
O360   Zn368   1.939   .     S
O361   Zn371   1.945   .     S
O362   Zn369   1.932   .     S
O363   Zn370   1.941   .     S
O364   Zn371   1.940   .     S
O365   Zn368   1.934   .     S
O366   Zn369   1.946   .     S
O367   Zn370   1.937   .     S
Br372  C436    1.932   .     S
Br374  C399    1.932   .     S
Br375  C868    1.932   .     S
Br376  C400    1.944   .     S
C377   O415    1.266   .     A
C377   C383    1.428   .     S
C377   O417    1.263   .     A
C378   C397    1.399   .     A
C378   C392    1.383   .     A
C378   H406    1.082   .     S
C379   Cl401   1.768   .     S
C379   C392    1.401   .     A
C379   C391    1.409   .     A
C380   O416    1.290   .     A
C380   C382    1.454   .     S
C380   O418    1.271   .     A
C381   C390    1.488   .     S
C381   C393    1.420   .     A
C381   C396    1.421   .     A
C382   C436    1.348   .     S
C382   H460    1.088   .     S
C384   C387    1.455   .     S
C384   Br55    1.934   1_565 S
C384   C67     1.349   1_565 S
C385   C386    1.426   .     S
C386   O419    1.272   .     A
C386   O413    1.271   .     A
C387   O414    1.267   .     A
C387   O420    1.275   .     A
C388   C393    1.399   .     A
C388   C871    1.397   .     S
C388   Cl882   1.769   .     S
C389   C392    1.456   .     S
C389   O409    1.277   .     A
C389   O411    1.283   .     A
C390   O410    1.281   .     A
C390   O412    1.294   .     A
C391   Br852   1.932   1_554 S
C391   C875    1.426   1_554 S
C393   Cl403   1.772   .     S
C394   Cl404   1.776   .     S
C394   C865    1.397   1_554 S
C394   C872    1.423   1_554 S
C395   C396    1.416   .     A
C395   C871    1.423   .     S
C395   C874    1.417   .     S
C396   C400    1.418   .     A
C397   C872    1.417   1_554 S
C397   C875    1.422   1_554 S
C398   C399    1.421   .     A
C398   C874    1.422   .     S
C398   C868    1.426   .     S
C399   C400    1.408   .     A
Cl402  C67     1.770   1_565 S
Cl405  C865    1.769   1_554 S
O408   Zn424   1.927   .     S
O408   Zn421   1.958   .     S
O408   Zn422   1.943   .     S
O408   Zn423   1.944   .     S
O409   Zn422   1.919   .     S
O410   Zn424   1.927   .     S
O411   Zn423   1.919   .     S
O412   Zn421   1.911   .     S
O413   Zn421   1.939   .     S
O414   Zn424   1.945   .     S
O415   Zn422   1.932   .     S
O416   Zn423   1.941   .     S
O417   Zn424   1.940   .     S
O418   Zn421   1.934   .     S
O419   Zn422   1.946   .     S
O420   Zn423   1.937   .     S
Br425  C330    1.932   1_655 S
Br427  C452    1.932   .     S
Br428  C921    1.932   .     S
Br429  C453    1.944   .     S
C430   O468    1.266   .     A
C430   C436    1.428   .     S
C430   O470    1.263   .     A
C431   C450    1.399   .     A
C431   C445    1.383   .     A
C431   H459    1.082   .     S
C432   Cl454   1.768   .     S
C432   C445    1.401   .     A
C432   C444    1.409   .     A
C433   O469    1.290   .     A
C433   C435    1.454   .     S
C433   O471    1.271   .     A
C434   C443    1.488   .     S
C434   C446    1.420   .     A
C434   C449    1.421   .     A
C435   C330    1.348   1_655 S
C435   H354    1.088   1_655 S
C437   C440    1.455   .     S
C437   Br108   1.934   1_565 S
C437   C120    1.349   1_565 S
C438   C439    1.426   .     S
C439   O472    1.272   .     A
C439   O466    1.271   .     A
C440   O467    1.267   .     A
C440   O473    1.275   .     A
C441   C446    1.399   .     A
C441   C924    1.397   .     S
C441   Cl935   1.769   .     S
C442   C445    1.456   .     S
C442   O462    1.277   .     A
C442   O464    1.283   .     A
C443   O463    1.281   .     A
C443   O465    1.294   .     A
C444   Br905   1.932   1_554 S
C444   C928    1.426   1_554 S
C446   Cl456   1.772   .     S
C447   Cl457   1.776   .     S
C447   C918    1.397   1_554 S
C447   C925    1.423   1_554 S
C448   C449    1.416   .     A
C448   C924    1.423   .     S
C448   C927    1.417   .     S
C449   C453    1.418   .     A
C450   C925    1.417   1_554 S
C450   C928    1.422   1_554 S
C451   C452    1.421   .     A
C451   C927    1.422   .     S
C451   C921    1.426   .     S
C452   C453    1.408   .     A
Cl455  C120    1.770   1_565 S
Cl458  C918    1.769   1_554 S
O461   Zn477   1.927   .     S
O461   Zn474   1.958   .     S
O461   Zn475   1.943   .     S
O461   Zn476   1.944   .     S
O462   Zn475   1.919   .     S
O463   Zn477   1.927   .     S
O464   Zn476   1.919   .     S
O465   Zn474   1.911   .     S
O466   Zn474   1.939   .     S
O467   Zn477   1.945   .     S
O468   Zn475   1.932   .     S
O469   Zn476   1.941   .     S
O470   Zn477   1.940   .     S
O471   Zn474   1.934   .     S
O472   Zn475   1.946   .     S
O473   Zn476   1.937   .     S
Br478  C542    1.932   .     S
Br479  C808    1.934   1_545 S
Br480  C505    1.932   .     S
Br481  C20     1.932   1_556 S
Br482  C506    1.944   .     S
C483   O521    1.266   .     A
C483   C489    1.428   .     S
C483   O523    1.263   .     A
C484   C503    1.399   .     A
C484   C498    1.383   .     A
C484   H512    1.082   .     S
C485   Cl507   1.768   .     S
C485   C498    1.401   .     A
C485   C497    1.409   .     A
C486   O522    1.290   .     A
C486   C488    1.454   .     S
C486   O524    1.271   .     A
C487   C496    1.488   .     S
C487   C499    1.420   .     A
C487   C502    1.421   .     A
C488   C542    1.348   .     S
C488   H566    1.088   .     S
C489   C594    1.348   1_455 S
C489   Br584   1.932   1_455 S
C490   C493    1.455   .     S
C490   Br638   1.934   .     S
C490   C650    1.349   .     S
C491   C492    1.426   .     S
C491   C808    1.349   1_545 S
C491   Cl826   1.770   1_545 S
C492   O525    1.272   .     A
C492   O519    1.271   .     A
C493   O520    1.267   .     A
C493   O526    1.275   .     A
C494   C499    1.399   .     A
C494   C23     1.397   1_556 S
C494   Cl34    1.769   1_556 S
C495   C498    1.456   .     S
C495   O515    1.277   .     A
C495   O517    1.283   .     A
C496   O516    1.281   .     A
C496   O518    1.294   .     A
C499   Cl509   1.772   .     S
C500   Cl510   1.776   .     S
C501   C502    1.416   .     A
C501   C23     1.423   1_556 S
C501   C26     1.417   1_556 S
C502   C506    1.418   .     A
C504   C505    1.421   .     A
C504   C26     1.422   1_556 S
C504   C20     1.426   1_556 S
C505   C506    1.408   .     A
Cl508  C650    1.770   .     S
H513   C594    1.088   1_455 S
O514   Zn530   1.927   .     S
O514   Zn527   1.958   .     S
O514   Zn528   1.943   .     S
O514   Zn529   1.944   .     S
O515   Zn528   1.919   .     S
O516   Zn530   1.927   .     S
O517   Zn529   1.919   .     S
O518   Zn527   1.911   .     S
O519   Zn527   1.939   .     S
O520   Zn530   1.945   .     S
O521   Zn528   1.932   .     S
O522   Zn529   1.941   .     S
O523   Zn530   1.940   .     S
O524   Zn527   1.934   .     S
O525   Zn528   1.946   .     S
O526   Zn529   1.937   .     S
Br531  C595    1.932   .     S
Br532  C861    1.934   1_545 S
Br533  C558    1.932   .     S
Br534  C73     1.932   1_556 S
Br535  C559    1.944   .     S
C536   O574    1.266   .     A
C536   C542    1.428   .     S
C536   O576    1.263   .     A
C537   C556    1.399   .     A
C537   C551    1.383   .     A
C537   H565    1.082   .     S
C538   Cl560   1.768   .     S
C538   C551    1.401   .     A
C538   C550    1.409   .     A
C539   O575    1.290   .     A
C539   C541    1.454   .     S
C539   O577    1.271   .     A
C540   C549    1.488   .     S
C540   C552    1.420   .     A
C540   C555    1.421   .     A
C541   C595    1.348   .     S
C541   H619    1.088   .     S
C543   C546    1.455   .     S
C543   Br691   1.934   .     S
C543   C703    1.349   .     S
C544   C545    1.426   .     S
C544   C861    1.349   1_545 S
C544   Cl879   1.770   1_545 S
C545   O578    1.272   .     A
C545   O572    1.271   .     A
C546   O573    1.267   .     A
C546   O579    1.275   .     A
C547   C552    1.399   .     A
C547   C76     1.397   1_556 S
C547   Cl87    1.769   1_556 S
C548   C551    1.456   .     S
C548   O568    1.277   .     A
C548   O570    1.283   .     A
C549   O569    1.281   .     A
C549   O571    1.294   .     A
C552   Cl562   1.772   .     S
C553   Cl563   1.776   .     S
C554   C555    1.416   .     A
C554   C76     1.423   1_556 S
C554   C79     1.417   1_556 S
C555   C559    1.418   .     A
C557   C558    1.421   .     A
C557   C79     1.422   1_556 S
C557   C73     1.426   1_556 S
C558   C559    1.408   .     A
Cl561  C703    1.770   .     S
O567   Zn583   1.927   .     S
O567   Zn580   1.958   .     S
O567   Zn581   1.943   .     S
O567   Zn582   1.944   .     S
O568   Zn581   1.919   .     S
O569   Zn583   1.927   .     S
O570   Zn582   1.919   .     S
O571   Zn580   1.911   .     S
O572   Zn580   1.939   .     S
O573   Zn583   1.945   .     S
O574   Zn581   1.932   .     S
O575   Zn582   1.941   .     S
O576   Zn583   1.940   .     S
O577   Zn580   1.934   .     S
O578   Zn581   1.946   .     S
O579   Zn582   1.937   .     S
Br584  C489    1.932   1_655 S
Br585  C914    1.934   1_545 S
Br586  C611    1.932   .     S
Br587  C126    1.932   1_556 S
Br588  C612    1.944   .     S
C589   O627    1.266   .     A
C589   C595    1.428   .     S
C589   O629    1.263   .     A
C590   C609    1.399   .     A
C590   C604    1.383   .     A
C590   H618    1.082   .     S
C591   Cl613   1.768   .     S
C591   C604    1.401   .     A
C591   C603    1.409   .     A
C592   O628    1.290   .     A
C592   C594    1.454   .     S
C592   O630    1.271   .     A
C593   C602    1.488   .     S
C593   C605    1.420   .     A
C593   C608    1.421   .     A
C594   C489    1.348   1_655 S
C594   H513    1.088   1_655 S
C596   C599    1.455   .     S
C596   Br744   1.934   .     S
C596   C756    1.349   .     S
C597   C598    1.426   .     S
C597   C914    1.349   1_545 S
C597   Cl932   1.770   1_545 S
C598   O631    1.272   .     A
C598   O625    1.271   .     A
C599   O626    1.267   .     A
C599   O632    1.275   .     A
C600   C605    1.399   .     A
C600   C129    1.397   1_556 S
C600   Cl140   1.769   1_556 S
C601   C604    1.456   .     S
C601   O621    1.277   .     A
C601   O623    1.283   .     A
C602   O622    1.281   .     A
C602   O624    1.294   .     A
C605   Cl615   1.772   .     S
C606   Cl616   1.776   .     S
C607   C608    1.416   .     A
C607   C129    1.423   1_556 S
C607   C132    1.417   1_556 S
C608   C612    1.418   .     A
C610   C611    1.421   .     A
C610   C132    1.422   1_556 S
C610   C126    1.426   1_556 S
C611   C612    1.408   .     A
Cl614  C756    1.770   .     S
O620   Zn636   1.927   .     S
O620   Zn633   1.958   .     S
O620   Zn634   1.943   .     S
O620   Zn635   1.944   .     S
O621   Zn634   1.919   .     S
O622   Zn636   1.927   .     S
O623   Zn635   1.919   .     S
O624   Zn633   1.911   .     S
O625   Zn633   1.939   .     S
O626   Zn636   1.945   .     S
O627   Zn634   1.932   .     S
O628   Zn635   1.941   .     S
O629   Zn636   1.940   .     S
O630   Zn633   1.934   .     S
O631   Zn634   1.946   .     S
O632   Zn635   1.937   .     S
Br637  C701    1.932   .     S
Br639  C664    1.932   .     S
Br640  C179    1.932   1_556 S
Br641  C665    1.944   .     S
C642   O680    1.266   .     A
C642   C648    1.428   .     S
C642   O682    1.263   .     A
C643   C662    1.399   .     A
C643   C657    1.383   .     A
C643   H671    1.082   .     S
C644   Cl666   1.768   .     S
C644   C657    1.401   .     A
C644   C656    1.409   .     A
C645   O681    1.290   .     A
C645   C647    1.454   .     S
C645   O683    1.271   .     A
C646   C655    1.488   .     S
C646   C658    1.420   .     A
C646   C661    1.421   .     A
C647   C701    1.348   .     S
C647   H725    1.088   .     S
C648   C753    1.348   1_455 S
C648   Br743   1.932   1_455 S
C649   C652    1.455   .     S
C649   Br797   1.934   .     S
C649   C809    1.349   .     S
C650   C651    1.426   .     S
C651   O684    1.272   .     A
C651   O678    1.271   .     A
C652   O679    1.267   .     A
C652   O685    1.275   .     A
C653   C658    1.399   .     A
C653   C182    1.397   1_556 S
C653   Cl193   1.769   1_556 S
C654   C657    1.456   .     S
C654   O674    1.277   .     A
C654   O676    1.283   .     A
C655   O675    1.281   .     A
C655   O677    1.294   .     A
C658   Cl668   1.772   .     S
C659   Cl669   1.776   .     S
C660   C661    1.416   .     A
C660   C182    1.423   1_556 S
C660   C185    1.417   1_556 S
C661   C665    1.418   .     A
C663   C664    1.421   .     A
C663   C185    1.422   1_556 S
C663   C179    1.426   1_556 S
C664   C665    1.408   .     A
Cl667  C809    1.770   .     S
H672   C753    1.088   1_455 S
O673   Zn689   1.927   .     S
O673   Zn686   1.958   .     S
O673   Zn687   1.943   .     S
O673   Zn688   1.944   .     S
O674   Zn687   1.919   .     S
O675   Zn689   1.927   .     S
O676   Zn688   1.919   .     S
O677   Zn686   1.911   .     S
O678   Zn686   1.939   .     S
O679   Zn689   1.945   .     S
O680   Zn687   1.932   .     S
O681   Zn688   1.941   .     S
O682   Zn689   1.940   .     S
O683   Zn686   1.934   .     S
O684   Zn687   1.946   .     S
O685   Zn688   1.937   .     S
Br690  C754    1.932   .     S
Br692  C717    1.932   .     S
Br693  C232    1.932   1_556 S
Br694  C718    1.944   .     S
C695   O733    1.266   .     A
C695   C701    1.428   .     S
C695   O735    1.263   .     A
C696   C715    1.399   .     A
C696   C710    1.383   .     A
C696   H724    1.082   .     S
C697   Cl719   1.768   .     S
C697   C710    1.401   .     A
C697   C709    1.409   .     A
C698   O734    1.290   .     A
C698   C700    1.454   .     S
C698   O736    1.271   .     A
C699   C708    1.488   .     S
C699   C711    1.420   .     A
C699   C714    1.421   .     A
C700   C754    1.348   .     S
C700   H778    1.088   .     S
C702   C705    1.455   .     S
C702   Br850   1.934   .     S
C702   C862    1.349   .     S
C703   C704    1.426   .     S
C704   O737    1.272   .     A
C704   O731    1.271   .     A
C705   O732    1.267   .     A
C705   O738    1.275   .     A
C706   C711    1.399   .     A
C706   C235    1.397   1_556 S
C706   Cl246   1.769   1_556 S
C707   C710    1.456   .     S
C707   O727    1.277   .     A
C707   O729    1.283   .     A
C708   O728    1.281   .     A
C708   O730    1.294   .     A
C711   Cl721   1.772   .     S
C712   Cl722   1.776   .     S
C713   C714    1.416   .     A
C713   C235    1.423   1_556 S
C713   C238    1.417   1_556 S
C714   C718    1.418   .     A
C716   C717    1.421   .     A
C716   C238    1.422   1_556 S
C716   C232    1.426   1_556 S
C717   C718    1.408   .     A
Cl720  C862    1.770   .     S
O726   Zn742   1.927   .     S
O726   Zn739   1.958   .     S
O726   Zn740   1.943   .     S
O726   Zn741   1.944   .     S
O727   Zn740   1.919   .     S
O728   Zn742   1.927   .     S
O729   Zn741   1.919   .     S
O730   Zn739   1.911   .     S
O731   Zn739   1.939   .     S
O732   Zn742   1.945   .     S
O733   Zn740   1.932   .     S
O734   Zn741   1.941   .     S
O735   Zn742   1.940   .     S
O736   Zn739   1.934   .     S
O737   Zn740   1.946   .     S
O738   Zn741   1.937   .     S
Br743  C648    1.932   1_655 S
Br745  C770    1.932   .     S
Br746  C285    1.932   1_556 S
Br747  C771    1.944   .     S
C748   O786    1.266   .     A
C748   C754    1.428   .     S
C748   O788    1.263   .     A
C749   C768    1.399   .     A
C749   C763    1.383   .     A
C749   H777    1.082   .     S
C750   Cl772   1.768   .     S
C750   C763    1.401   .     A
C750   C762    1.409   .     A
C751   O787    1.290   .     A
C751   C753    1.454   .     S
C751   O789    1.271   .     A
C752   C761    1.488   .     S
C752   C764    1.420   .     A
C752   C767    1.421   .     A
C753   C648    1.348   1_655 S
C753   H672    1.088   1_655 S
C755   C758    1.455   .     S
C755   Br903   1.934   .     S
C755   C915    1.349   .     S
C756   C757    1.426   .     S
C757   O790    1.272   .     A
C757   O784    1.271   .     A
C758   O785    1.267   .     A
C758   O791    1.275   .     A
C759   C764    1.399   .     A
C759   C288    1.397   1_556 S
C759   Cl299   1.769   1_556 S
C760   C763    1.456   .     S
C760   O780    1.277   .     A
C760   O782    1.283   .     A
C761   O781    1.281   .     A
C761   O783    1.294   .     A
C764   Cl774   1.772   .     S
C765   Cl775   1.776   .     S
C766   C767    1.416   .     A
C766   C288    1.423   1_556 S
C766   C291    1.417   1_556 S
C767   C771    1.418   .     A
C769   C770    1.421   .     A
C769   C291    1.422   1_556 S
C769   C285    1.426   1_556 S
C770   C771    1.408   .     A
Cl773  C915    1.770   .     S
O779   Zn795   1.927   .     S
O779   Zn792   1.958   .     S
O779   Zn793   1.943   .     S
O779   Zn794   1.944   .     S
O780   Zn793   1.919   .     S
O781   Zn795   1.927   .     S
O782   Zn794   1.919   .     S
O783   Zn792   1.911   .     S
O784   Zn792   1.939   .     S
O785   Zn795   1.945   .     S
O786   Zn793   1.932   .     S
O787   Zn794   1.941   .     S
O788   Zn795   1.940   .     S
O789   Zn792   1.934   .     S
O790   Zn793   1.946   .     S
O791   Zn794   1.937   .     S
Br796  C860    1.932   .     S
Br798  C823    1.932   .     S
Br799  C338    1.932   1_556 S
Br800  C824    1.944   .     S
C801   O839    1.266   .     A
C801   C807    1.428   .     S
C801   O841    1.263   .     A
C802   C821    1.399   .     A
C802   C816    1.383   .     A
C802   H830    1.082   .     S
C803   Cl825   1.768   .     S
C803   C816    1.401   .     A
C803   C815    1.409   .     A
C804   O840    1.290   .     A
C804   C806    1.454   .     S
C804   O842    1.271   .     A
C805   C814    1.488   .     S
C805   C817    1.420   .     A
C805   C820    1.421   .     A
C806   C860    1.348   .     S
C806   H884    1.088   .     S
C807   C912    1.348   1_455 S
C807   Br902   1.932   1_455 S
C808   C811    1.455   .     S
C808   Br479   1.934   1_565 S
C808   C491    1.349   1_565 S
C809   C810    1.426   .     S
C810   O843    1.272   .     A
C810   O837    1.271   .     A
C811   O838    1.267   .     A
C811   O844    1.275   .     A
C812   C817    1.399   .     A
C812   C341    1.397   1_556 S
C812   Cl352   1.769   1_556 S
C813   C816    1.456   .     S
C813   O833    1.277   .     A
C813   O835    1.283   .     A
C814   O834    1.281   .     A
C814   O836    1.294   .     A
C817   Cl827   1.772   .     S
C818   Cl828   1.776   .     S
C819   C820    1.416   .     A
C819   C341    1.423   1_556 S
C819   C344    1.417   1_556 S
C820   C824    1.418   .     A
C822   C823    1.421   .     A
C822   C344    1.422   1_556 S
C822   C338    1.426   1_556 S
C823   C824    1.408   .     A
Cl826  C491    1.770   1_565 S
H831   C912    1.088   1_455 S
O832   Zn848   1.927   .     S
O832   Zn845   1.958   .     S
O832   Zn846   1.943   .     S
O832   Zn847   1.944   .     S
O833   Zn846   1.919   .     S
O834   Zn848   1.927   .     S
O835   Zn847   1.919   .     S
O836   Zn845   1.911   .     S
O837   Zn845   1.939   .     S
O838   Zn848   1.945   .     S
O839   Zn846   1.932   .     S
O840   Zn847   1.941   .     S
O841   Zn848   1.940   .     S
O842   Zn845   1.934   .     S
O843   Zn846   1.946   .     S
O844   Zn847   1.937   .     S
Br849  C913    1.932   .     S
Br851  C876    1.932   .     S
Br852  C391    1.932   1_556 S
Br853  C877    1.944   .     S
C854   O892    1.266   .     A
C854   C860    1.428   .     S
C854   O894    1.263   .     A
C855   C874    1.399   .     A
C855   C869    1.383   .     A
C855   H883    1.082   .     S
C856   Cl878   1.768   .     S
C856   C869    1.401   .     A
C856   C868    1.409   .     A
C857   O893    1.290   .     A
C857   C859    1.454   .     S
C857   O895    1.271   .     A
C858   C867    1.488   .     S
C858   C870    1.420   .     A
C858   C873    1.421   .     A
C859   C913    1.348   .     S
C859   H937    1.088   .     S
C861   C864    1.455   .     S
C861   Br532   1.934   1_565 S
C861   C544    1.349   1_565 S
C862   C863    1.426   .     S
C863   O896    1.272   .     A
C863   O890    1.271   .     A
C864   O891    1.267   .     A
C864   O897    1.275   .     A
C865   C870    1.399   .     A
C865   C394    1.397   1_556 S
C865   Cl405   1.769   1_556 S
C866   C869    1.456   .     S
C866   O886    1.277   .     A
C866   O888    1.283   .     A
C867   O887    1.281   .     A
C867   O889    1.294   .     A
C870   Cl880   1.772   .     S
C871   Cl881   1.776   .     S
C872   C873    1.416   .     A
C872   C394    1.423   1_556 S
C872   C397    1.417   1_556 S
C873   C877    1.418   .     A
C875   C876    1.421   .     A
C875   C397    1.422   1_556 S
C875   C391    1.426   1_556 S
C876   C877    1.408   .     A
Cl879  C544    1.770   1_565 S
O885   Zn901   1.927   .     S
O885   Zn898   1.958   .     S
O885   Zn899   1.943   .     S
O885   Zn900   1.944   .     S
O886   Zn899   1.919   .     S
O887   Zn901   1.927   .     S
O888   Zn900   1.919   .     S
O889   Zn898   1.911   .     S
O890   Zn898   1.939   .     S
O891   Zn901   1.945   .     S
O892   Zn899   1.932   .     S
O893   Zn900   1.941   .     S
O894   Zn901   1.940   .     S
O895   Zn898   1.934   .     S
O896   Zn899   1.946   .     S
O897   Zn900   1.937   .     S
Br902  C807    1.932   1_655 S
Br904  C929    1.932   .     S
Br905  C444    1.932   1_556 S
Br906  C930    1.944   .     S
C907   O945    1.266   .     A
C907   C913    1.428   .     S
C907   O947    1.263   .     A
C908   C927    1.399   .     A
C908   C922    1.383   .     A
C908   H936    1.082   .     S
C909   Cl931   1.768   .     S
C909   C922    1.401   .     A
C909   C921    1.409   .     A
C910   O946    1.290   .     A
C910   C912    1.454   .     S
C910   O948    1.271   .     A
C911   C920    1.488   .     S
C911   C923    1.420   .     A
C911   C926    1.421   .     A
C912   C807    1.348   1_655 S
C912   H831    1.088   1_655 S
C914   C917    1.455   .     S
C914   Br585   1.934   1_565 S
C914   C597    1.349   1_565 S
C915   C916    1.426   .     S
C916   O949    1.272   .     A
C916   O943    1.271   .     A
C917   O944    1.267   .     A
C917   O950    1.275   .     A
C918   C923    1.399   .     A
C918   C447    1.397   1_556 S
C918   Cl458   1.769   1_556 S
C919   C922    1.456   .     S
C919   O939    1.277   .     A
C919   O941    1.283   .     A
C920   O940    1.281   .     A
C920   O942    1.294   .     A
C923   Cl933   1.772   .     S
C924   Cl934   1.776   .     S
C925   C926    1.416   .     A
C925   C447    1.423   1_556 S
C925   C450    1.417   1_556 S
C926   C930    1.418   .     A
C928   C929    1.421   .     A
C928   C450    1.422   1_556 S
C928   C444    1.426   1_556 S
C929   C930    1.408   .     A
Cl932  C597    1.770   1_565 S
O938   Zn954   1.927   .     S
O938   Zn951   1.958   .     S
O938   Zn952   1.943   .     S
O938   Zn953   1.944   .     S
O939   Zn952   1.919   .     S
O940   Zn954   1.927   .     S
O941   Zn953   1.919   .     S
O942   Zn951   1.911   .     S
O943   Zn951   1.939   .     S
O944   Zn954   1.945   .     S
O945   Zn952   1.932   .     S
O946   Zn953   1.941   .     S
O947   Zn954   1.940   .     S
O948   Zn951   1.934   .     S
O949   Zn952   1.946   .     S
O950   Zn953   1.937   .     S
