data_str_m1_o10_o16_pcu_sym.119
_audit_creation_date              2020-01-03
_audit_creation_method            'Materials Studio'
_symmetry_space_group_name_H-M    'P1'
_symmetry_Int_Tables_number       1
_symmetry_cell_setting            triclinic
loop_
_symmetry_equiv_pos_as_xyz
  x,y,z
_cell_length_a                    32.5009
_cell_length_b                    32.7476
_cell_length_c                    31.1158
_cell_angle_alpha                 96.9147
_cell_angle_beta                  74.6568
_cell_angle_gamma                 98.6381
loop_
_atom_site_label
_atom_site_type_symbol
_atom_site_fract_x
_atom_site_fract_y
_atom_site_fract_z
_atom_site_U_iso_or_equiv
_atom_site_adp_type
_atom_site_occupancy
C1     C     0.05275   0.15971   0.25990   0.00000  Uiso   1.00
C2     C     0.17459   0.16794   0.05927   0.00000  Uiso   1.00
C3     C     0.20152   0.10276   0.06048   0.00000  Uiso   1.00
C4     C     0.28073   0.17384   0.24000   0.00000  Uiso   1.00
C5     C     0.14449   0.19610   0.41853   0.00000  Uiso   1.00
C6     C     0.32668   0.17664   0.23600   0.00000  Uiso   1.00
C7     C     0.00743   0.15728   0.26370   0.00000  Uiso   1.00
C8     C     0.17954   0.32232   0.23667   0.00000  Uiso   1.00
C9     C     0.15105   0.01264   0.26443   0.00000  Uiso   1.00
C10    C     0.15590   0.05623   0.26031   0.00000  Uiso   1.00
C11    C     0.17634   0.27786   0.24025   0.00000  Uiso   1.00
C12    C     0.15760   0.25430   0.47089   0.00000  Uiso   1.00
C13    C     0.18530   0.14787   0.12948   0.00000  Uiso   1.00
C14    C     0.14823   0.18448   0.37078   0.00000  Uiso   1.00
C15    C     0.19439   0.08918   0.01861   0.00000  Uiso   1.00
C16    C     0.18997   0.14092   0.08148   0.00000  Uiso   1.00
C17    C     0.14514   0.23852   0.43234   0.00000  Uiso   1.00
C18    C     0.21460   0.00716   0.20204   0.00000  Uiso   1.00
C19    C     0.11506   0.33097   0.29989   0.00000  Uiso   1.00
C20    C     0.15301   0.20173   0.08610   0.00000  Uiso   1.00
C21    C     0.16883   0.22795   0.49645   0.00000  Uiso   1.00
C22    C     0.16293   0.18440   0.48702   0.00000  Uiso   1.00
C23    C     0.15007   0.16804   0.44736   0.00000  Uiso   1.00
C24    C     0.17244   0.15685   0.01424   0.00000  Uiso   1.00
C25    C     0.17780   0.11533   0.49637   0.00000  Uiso   1.00
C26    C     0.16285   0.09947   0.45878   0.00000  Uiso   1.00
C27    C     0.14505   0.12431   0.43718   0.00000  Uiso   1.00
H28    H     0.21267   0.08192   0.07830   0.00000  Uiso   1.00
H29    H     0.13760   0.09320   0.37830   0.00000  Uiso   1.00
H30    H     0.09690   0.12246   0.40459   0.00000  Uiso   1.00
H31    H     0.31901   0.13934   0.28955   0.00000  Uiso   1.00
H32    H     0.16155   0.06664   0.44813   0.00000  Uiso   1.00
H33    H     0.14040   0.26023   0.41092   0.00000  Uiso   1.00
H34    H     0.18407   0.24258   0.02219   0.00000  Uiso   1.00
H35    H     0.16145   0.28746   0.47931   0.00000  Uiso   1.00
H36    H     0.01580   0.19447   0.21044   0.00000  Uiso   1.00
H37    H     0.18409   0.02707   0.02171   0.00000  Uiso   1.00
H38    H     0.23503   0.04582   0.49649   0.00000  Uiso   1.00
N39    N     0.24249   0.02164   0.17448   0.00000  Uiso   1.00
N40    N     0.08629   0.31918   0.32828   0.00000  Uiso   1.00
N41    N     0.20267   0.04824   0.49945   0.00000  Uiso   1.00
N42    N     0.13574   0.22847   0.10772   0.00000  Uiso   1.00
N43    N     0.11830   0.10349   0.40905   0.00000  Uiso   1.00
O44    O     0.16667   0.16667   0.25000   0.00000  Uiso   1.00
O45    O     0.15451   0.12637   0.15459   0.00000  Uiso   1.00
O46    O     0.12940   0.20391   0.34968   0.00000  Uiso   1.00
O47    O     0.20824   0.17759   0.14606   0.00000  Uiso   1.00
O48    O     0.17451   0.15880   0.34968   0.00000  Uiso   1.00
O49    O     0.17930   0.08019   0.28214   0.00000  Uiso   1.00
O50    O     0.14632   0.26085   0.27014   0.00000  Uiso   1.00
O51    O     0.07412   0.13291   0.23413   0.00000  Uiso   1.00
O52    O     0.26693   0.19272   0.21361   0.00000  Uiso   1.00
O53    O     0.07071   0.18878   0.28213   0.00000  Uiso   1.00
O54    O     0.25491   0.15226   0.27014   0.00000  Uiso   1.00
O55    O     0.13760   0.06944   0.23413   0.00000  Uiso   1.00
O56    O     0.20345   0.25620   0.21361   0.00000  Uiso   1.00
Zn57   Zn    0.19338   0.13994   0.28734   0.00000  Uiso   1.00
Zn58   Zn    0.13379   0.12458   0.21876   0.00000  Uiso   1.00
Zn59   Zn    0.21056   0.19775   0.20657   0.00000  Uiso   1.00
Zn60   Zn    0.12893   0.20439   0.28734   0.00000  Uiso   1.00
C61    C     0.38608   0.15971   0.25990   0.00000  Uiso   1.00
C62    C     0.50792   0.16794   0.05927   0.00000  Uiso   1.00
C63    C     0.53485   0.10276   0.06048   0.00000  Uiso   1.00
C64    C     0.61406   0.17384   0.24000   0.00000  Uiso   1.00
C65    C     0.47782   0.19610   0.41853   0.00000  Uiso   1.00
C66    C     0.66001   0.17664   0.23600   0.00000  Uiso   1.00
C67    C     0.34077   0.15728   0.26370   0.00000  Uiso   1.00
C68    C     0.51287   0.32232   0.23667   0.00000  Uiso   1.00
C69    C     0.48438   0.01264   0.26443   0.00000  Uiso   1.00
C70    C     0.48923   0.05623   0.26031   0.00000  Uiso   1.00
C71    C     0.50968   0.27786   0.24025   0.00000  Uiso   1.00
C72    C     0.49094   0.25430   0.47089   0.00000  Uiso   1.00
C73    C     0.51863   0.14787   0.12948   0.00000  Uiso   1.00
C74    C     0.48157   0.18448   0.37078   0.00000  Uiso   1.00
C75    C     0.52773   0.08918   0.01861   0.00000  Uiso   1.00
C76    C     0.52330   0.14092   0.08148   0.00000  Uiso   1.00
C77    C     0.47847   0.23852   0.43234   0.00000  Uiso   1.00
C78    C     0.54794   0.00716   0.20204   0.00000  Uiso   1.00
C79    C     0.44840   0.33097   0.29989   0.00000  Uiso   1.00
C80    C     0.48634   0.20173   0.08610   0.00000  Uiso   1.00
C81    C     0.50217   0.22795   0.49645   0.00000  Uiso   1.00
C82    C     0.49626   0.18440   0.48702   0.00000  Uiso   1.00
C83    C     0.48340   0.16804   0.44736   0.00000  Uiso   1.00
C84    C     0.50578   0.15685   0.01424   0.00000  Uiso   1.00
C85    C     0.51113   0.11533   0.49637   0.00000  Uiso   1.00
C86    C     0.49618   0.09947   0.45878   0.00000  Uiso   1.00
C87    C     0.47838   0.12431   0.43718   0.00000  Uiso   1.00
H88    H     0.54600   0.08192   0.07830   0.00000  Uiso   1.00
H89    H     0.47093   0.09320   0.37830   0.00000  Uiso   1.00
H90    H     0.43024   0.12246   0.40459   0.00000  Uiso   1.00
H91    H     0.65234   0.13934   0.28955   0.00000  Uiso   1.00
H92    H     0.49488   0.06664   0.44813   0.00000  Uiso   1.00
H93    H     0.47373   0.26023   0.41092   0.00000  Uiso   1.00
H94    H     0.51740   0.24258   0.02219   0.00000  Uiso   1.00
H95    H     0.49479   0.28746   0.47931   0.00000  Uiso   1.00
H96    H     0.34913   0.19447   0.21044   0.00000  Uiso   1.00
H97    H     0.51743   0.02707   0.02171   0.00000  Uiso   1.00
H98    H     0.56836   0.04582   0.49649   0.00000  Uiso   1.00
N99    N     0.57583   0.02164   0.17448   0.00000  Uiso   1.00
N100   N     0.41963   0.31918   0.32828   0.00000  Uiso   1.00
N101   N     0.53600   0.04824   0.49945   0.00000  Uiso   1.00
N102   N     0.46908   0.22847   0.10772   0.00000  Uiso   1.00
N103   N     0.45163   0.10349   0.40905   0.00000  Uiso   1.00
O104   O     0.50000   0.16667   0.25000   0.00000  Uiso   1.00
O105   O     0.48784   0.12637   0.15459   0.00000  Uiso   1.00
O106   O     0.46274   0.20391   0.34968   0.00000  Uiso   1.00
O107   O     0.54157   0.17759   0.14606   0.00000  Uiso   1.00
O108   O     0.50785   0.15880   0.34968   0.00000  Uiso   1.00
O109   O     0.51264   0.08019   0.28214   0.00000  Uiso   1.00
O110   O     0.47965   0.26085   0.27014   0.00000  Uiso   1.00
O111   O     0.40745   0.13291   0.23413   0.00000  Uiso   1.00
O112   O     0.60026   0.19272   0.21361   0.00000  Uiso   1.00
O113   O     0.40405   0.18878   0.28213   0.00000  Uiso   1.00
O114   O     0.58824   0.15226   0.27014   0.00000  Uiso   1.00
O115   O     0.47093   0.06944   0.23413   0.00000  Uiso   1.00
O116   O     0.53678   0.25620   0.21361   0.00000  Uiso   1.00
Zn117  Zn    0.52672   0.13994   0.28734   0.00000  Uiso   1.00
Zn118  Zn    0.46713   0.12458   0.21876   0.00000  Uiso   1.00
Zn119  Zn    0.54389   0.19775   0.20657   0.00000  Uiso   1.00
Zn120  Zn    0.46226   0.20439   0.28734   0.00000  Uiso   1.00
C121   C     0.71942   0.15971   0.25990   0.00000  Uiso   1.00
C122   C     0.84125   0.16794   0.05927   0.00000  Uiso   1.00
C123   C     0.86819   0.10276   0.06048   0.00000  Uiso   1.00
C124   C     0.94740   0.17384   0.24000   0.00000  Uiso   1.00
C125   C     0.81115   0.19610   0.41853   0.00000  Uiso   1.00
C126   C     0.99334   0.17664   0.23600   0.00000  Uiso   1.00
C127   C     0.67410   0.15728   0.26370   0.00000  Uiso   1.00
C128   C     0.84620   0.32232   0.23667   0.00000  Uiso   1.00
C129   C     0.81772   0.01264   0.26443   0.00000  Uiso   1.00
C130   C     0.82257   0.05623   0.26031   0.00000  Uiso   1.00
C131   C     0.84301   0.27786   0.24025   0.00000  Uiso   1.00
C132   C     0.82427   0.25430   0.47089   0.00000  Uiso   1.00
C133   C     0.85196   0.14787   0.12948   0.00000  Uiso   1.00
C134   C     0.81490   0.18448   0.37078   0.00000  Uiso   1.00
C135   C     0.86106   0.08918   0.01861   0.00000  Uiso   1.00
C136   C     0.85664   0.14092   0.08148   0.00000  Uiso   1.00
C137   C     0.81181   0.23852   0.43234   0.00000  Uiso   1.00
C138   C     0.88127   0.00716   0.20204   0.00000  Uiso   1.00
C139   C     0.78173   0.33097   0.29989   0.00000  Uiso   1.00
C140   C     0.81968   0.20173   0.08610   0.00000  Uiso   1.00
C141   C     0.83550   0.22795   0.49645   0.00000  Uiso   1.00
C142   C     0.82960   0.18440   0.48702   0.00000  Uiso   1.00
C143   C     0.81674   0.16804   0.44736   0.00000  Uiso   1.00
C144   C     0.83911   0.15685   0.01424   0.00000  Uiso   1.00
C145   C     0.84446   0.11533   0.49637   0.00000  Uiso   1.00
C146   C     0.82952   0.09947   0.45878   0.00000  Uiso   1.00
C147   C     0.81172   0.12431   0.43718   0.00000  Uiso   1.00
H148   H     0.87933   0.08192   0.07830   0.00000  Uiso   1.00
H149   H     0.80427   0.09320   0.37830   0.00000  Uiso   1.00
H150   H     0.76357   0.12246   0.40459   0.00000  Uiso   1.00
H151   H     0.98567   0.13934   0.28955   0.00000  Uiso   1.00
H152   H     0.82822   0.06664   0.44813   0.00000  Uiso   1.00
H153   H     0.80706   0.26023   0.41092   0.00000  Uiso   1.00
H154   H     0.85073   0.24258   0.02219   0.00000  Uiso   1.00
H155   H     0.82812   0.28746   0.47931   0.00000  Uiso   1.00
H156   H     0.68246   0.19447   0.21044   0.00000  Uiso   1.00
H157   H     0.85076   0.02707   0.02171   0.00000  Uiso   1.00
H158   H     0.90170   0.04582   0.49649   0.00000  Uiso   1.00
N159   N     0.90916   0.02164   0.17448   0.00000  Uiso   1.00
N160   N     0.75296   0.31918   0.32828   0.00000  Uiso   1.00
N161   N     0.86933   0.04824   0.49945   0.00000  Uiso   1.00
N162   N     0.80241   0.22847   0.10772   0.00000  Uiso   1.00
N163   N     0.78496   0.10349   0.40905   0.00000  Uiso   1.00
O164   O     0.83333   0.16667   0.25000   0.00000  Uiso   1.00
O165   O     0.82118   0.12637   0.15459   0.00000  Uiso   1.00
O166   O     0.79607   0.20391   0.34968   0.00000  Uiso   1.00
O167   O     0.87491   0.17759   0.14606   0.00000  Uiso   1.00
O168   O     0.84118   0.15880   0.34968   0.00000  Uiso   1.00
O169   O     0.84597   0.08019   0.28214   0.00000  Uiso   1.00
O170   O     0.81298   0.26085   0.27014   0.00000  Uiso   1.00
O171   O     0.74078   0.13291   0.23413   0.00000  Uiso   1.00
O172   O     0.93360   0.19272   0.21361   0.00000  Uiso   1.00
O173   O     0.73738   0.18878   0.28213   0.00000  Uiso   1.00
O174   O     0.92158   0.15226   0.27014   0.00000  Uiso   1.00
O175   O     0.80426   0.06944   0.23413   0.00000  Uiso   1.00
O176   O     0.87012   0.25620   0.21361   0.00000  Uiso   1.00
Zn177  Zn    0.86005   0.13994   0.28734   0.00000  Uiso   1.00
Zn178  Zn    0.80046   0.12458   0.21876   0.00000  Uiso   1.00
Zn179  Zn    0.87723   0.19775   0.20657   0.00000  Uiso   1.00
Zn180  Zn    0.79560   0.20439   0.28734   0.00000  Uiso   1.00
C181   C     0.05275   0.49304   0.25990   0.00000  Uiso   1.00
C182   C     0.17459   0.50128   0.05927   0.00000  Uiso   1.00
C183   C     0.20152   0.43609   0.06048   0.00000  Uiso   1.00
C184   C     0.28073   0.50717   0.24000   0.00000  Uiso   1.00
C185   C     0.14449   0.52944   0.41853   0.00000  Uiso   1.00
C186   C     0.32668   0.50997   0.23600   0.00000  Uiso   1.00
C187   C     0.00743   0.49061   0.26370   0.00000  Uiso   1.00
C188   C     0.17954   0.65565   0.23667   0.00000  Uiso   1.00
C189   C     0.15105   0.34597   0.26443   0.00000  Uiso   1.00
C190   C     0.15590   0.38956   0.26031   0.00000  Uiso   1.00
C191   C     0.17634   0.61120   0.24025   0.00000  Uiso   1.00
C192   C     0.15760   0.58763   0.47089   0.00000  Uiso   1.00
C193   C     0.18530   0.48120   0.12948   0.00000  Uiso   1.00
C194   C     0.14823   0.51781   0.37078   0.00000  Uiso   1.00
C195   C     0.19439   0.42252   0.01861   0.00000  Uiso   1.00
C196   C     0.18997   0.47426   0.08148   0.00000  Uiso   1.00
C197   C     0.14514   0.57186   0.43234   0.00000  Uiso   1.00
C198   C     0.21460   0.34049   0.20204   0.00000  Uiso   1.00
C199   C     0.11506   0.66430   0.29989   0.00000  Uiso   1.00
C200   C     0.15301   0.53507   0.08610   0.00000  Uiso   1.00
C201   C     0.16883   0.56128   0.49645   0.00000  Uiso   1.00
C202   C     0.16293   0.51773   0.48702   0.00000  Uiso   1.00
C203   C     0.15007   0.50137   0.44736   0.00000  Uiso   1.00
C204   C     0.17244   0.49018   0.01424   0.00000  Uiso   1.00
C205   C     0.17780   0.44867   0.49637   0.00000  Uiso   1.00
C206   C     0.16285   0.43280   0.45878   0.00000  Uiso   1.00
C207   C     0.14505   0.45764   0.43718   0.00000  Uiso   1.00
H208   H     0.21267   0.41525   0.07830   0.00000  Uiso   1.00
H209   H     0.13760   0.42653   0.37830   0.00000  Uiso   1.00
H210   H     0.09690   0.45580   0.40459   0.00000  Uiso   1.00
H211   H     0.31901   0.47267   0.28955   0.00000  Uiso   1.00
H212   H     0.16155   0.39998   0.44813   0.00000  Uiso   1.00
H213   H     0.14040   0.59356   0.41092   0.00000  Uiso   1.00
H214   H     0.18407   0.57591   0.02219   0.00000  Uiso   1.00
H215   H     0.16145   0.62080   0.47931   0.00000  Uiso   1.00
H216   H     0.01580   0.52781   0.21044   0.00000  Uiso   1.00
H217   H     0.18409   0.36040   0.02171   0.00000  Uiso   1.00
H218   H     0.23503   0.37915   0.49649   0.00000  Uiso   1.00
N219   N     0.24249   0.35497   0.17448   0.00000  Uiso   1.00
N220   N     0.08629   0.65251   0.32828   0.00000  Uiso   1.00
N221   N     0.20267   0.38157   0.49945   0.00000  Uiso   1.00
N222   N     0.13574   0.56181   0.10772   0.00000  Uiso   1.00
N223   N     0.11830   0.43682   0.40905   0.00000  Uiso   1.00
O224   O     0.16667   0.50000   0.25000   0.00000  Uiso   1.00
O225   O     0.15451   0.45970   0.15459   0.00000  Uiso   1.00
O226   O     0.12940   0.53724   0.34968   0.00000  Uiso   1.00
O227   O     0.20824   0.51092   0.14606   0.00000  Uiso   1.00
O228   O     0.17451   0.49213   0.34968   0.00000  Uiso   1.00
O229   O     0.17930   0.41352   0.28214   0.00000  Uiso   1.00
O230   O     0.14632   0.59418   0.27014   0.00000  Uiso   1.00
O231   O     0.07412   0.46625   0.23413   0.00000  Uiso   1.00
O232   O     0.26693   0.52605   0.21361   0.00000  Uiso   1.00
O233   O     0.07071   0.52211   0.28213   0.00000  Uiso   1.00
O234   O     0.25491   0.48559   0.27014   0.00000  Uiso   1.00
O235   O     0.13760   0.40277   0.23413   0.00000  Uiso   1.00
O236   O     0.20345   0.58953   0.21361   0.00000  Uiso   1.00
Zn237  Zn    0.19338   0.47327   0.28734   0.00000  Uiso   1.00
Zn238  Zn    0.13379   0.45791   0.21876   0.00000  Uiso   1.00
Zn239  Zn    0.21056   0.53109   0.20657   0.00000  Uiso   1.00
Zn240  Zn    0.12893   0.53773   0.28734   0.00000  Uiso   1.00
C241   C     0.38608   0.49304   0.25990   0.00000  Uiso   1.00
C242   C     0.50792   0.50128   0.05927   0.00000  Uiso   1.00
C243   C     0.53485   0.43609   0.06048   0.00000  Uiso   1.00
C244   C     0.61406   0.50717   0.24000   0.00000  Uiso   1.00
C245   C     0.47782   0.52944   0.41853   0.00000  Uiso   1.00
C246   C     0.66001   0.50997   0.23600   0.00000  Uiso   1.00
C247   C     0.34077   0.49061   0.26370   0.00000  Uiso   1.00
C248   C     0.51287   0.65565   0.23667   0.00000  Uiso   1.00
C249   C     0.48438   0.34597   0.26443   0.00000  Uiso   1.00
C250   C     0.48923   0.38956   0.26031   0.00000  Uiso   1.00
C251   C     0.50968   0.61120   0.24025   0.00000  Uiso   1.00
C252   C     0.49094   0.58763   0.47089   0.00000  Uiso   1.00
C253   C     0.51863   0.48120   0.12948   0.00000  Uiso   1.00
C254   C     0.48157   0.51781   0.37078   0.00000  Uiso   1.00
C255   C     0.52773   0.42252   0.01861   0.00000  Uiso   1.00
C256   C     0.52330   0.47426   0.08148   0.00000  Uiso   1.00
C257   C     0.47847   0.57186   0.43234   0.00000  Uiso   1.00
C258   C     0.54794   0.34049   0.20204   0.00000  Uiso   1.00
C259   C     0.44840   0.66430   0.29989   0.00000  Uiso   1.00
C260   C     0.48634   0.53507   0.08610   0.00000  Uiso   1.00
C261   C     0.50217   0.56128   0.49645   0.00000  Uiso   1.00
C262   C     0.49626   0.51773   0.48702   0.00000  Uiso   1.00
C263   C     0.48340   0.50137   0.44736   0.00000  Uiso   1.00
C264   C     0.50578   0.49018   0.01424   0.00000  Uiso   1.00
C265   C     0.51113   0.44867   0.49637   0.00000  Uiso   1.00
C266   C     0.49618   0.43280   0.45878   0.00000  Uiso   1.00
C267   C     0.47838   0.45764   0.43718   0.00000  Uiso   1.00
H268   H     0.54600   0.41525   0.07830   0.00000  Uiso   1.00
H269   H     0.47093   0.42653   0.37830   0.00000  Uiso   1.00
H270   H     0.43024   0.45580   0.40459   0.00000  Uiso   1.00
H271   H     0.65234   0.47267   0.28955   0.00000  Uiso   1.00
H272   H     0.49488   0.39998   0.44813   0.00000  Uiso   1.00
H273   H     0.47373   0.59356   0.41092   0.00000  Uiso   1.00
H274   H     0.51740   0.57591   0.02219   0.00000  Uiso   1.00
H275   H     0.49479   0.62080   0.47931   0.00000  Uiso   1.00
H276   H     0.34913   0.52781   0.21044   0.00000  Uiso   1.00
H277   H     0.51743   0.36040   0.02171   0.00000  Uiso   1.00
H278   H     0.56836   0.37915   0.49649   0.00000  Uiso   1.00
N279   N     0.57583   0.35497   0.17448   0.00000  Uiso   1.00
N280   N     0.41963   0.65251   0.32828   0.00000  Uiso   1.00
N281   N     0.53600   0.38157   0.49945   0.00000  Uiso   1.00
N282   N     0.46908   0.56181   0.10772   0.00000  Uiso   1.00
N283   N     0.45163   0.43682   0.40905   0.00000  Uiso   1.00
O284   O     0.50000   0.50000   0.25000   0.00000  Uiso   1.00
O285   O     0.48784   0.45970   0.15459   0.00000  Uiso   1.00
O286   O     0.46274   0.53724   0.34968   0.00000  Uiso   1.00
O287   O     0.54157   0.51092   0.14606   0.00000  Uiso   1.00
O288   O     0.50785   0.49213   0.34968   0.00000  Uiso   1.00
O289   O     0.51264   0.41352   0.28214   0.00000  Uiso   1.00
O290   O     0.47965   0.59418   0.27014   0.00000  Uiso   1.00
O291   O     0.40745   0.46625   0.23413   0.00000  Uiso   1.00
O292   O     0.60026   0.52605   0.21361   0.00000  Uiso   1.00
O293   O     0.40405   0.52211   0.28213   0.00000  Uiso   1.00
O294   O     0.58824   0.48559   0.27014   0.00000  Uiso   1.00
O295   O     0.47093   0.40277   0.23413   0.00000  Uiso   1.00
O296   O     0.53678   0.58953   0.21361   0.00000  Uiso   1.00
Zn297  Zn    0.52672   0.47327   0.28734   0.00000  Uiso   1.00
Zn298  Zn    0.46713   0.45791   0.21876   0.00000  Uiso   1.00
Zn299  Zn    0.54389   0.53109   0.20657   0.00000  Uiso   1.00
Zn300  Zn    0.46226   0.53773   0.28734   0.00000  Uiso   1.00
C301   C     0.71942   0.49304   0.25990   0.00000  Uiso   1.00
C302   C     0.84125   0.50128   0.05927   0.00000  Uiso   1.00
C303   C     0.86819   0.43609   0.06048   0.00000  Uiso   1.00
C304   C     0.94740   0.50717   0.24000   0.00000  Uiso   1.00
C305   C     0.81115   0.52944   0.41853   0.00000  Uiso   1.00
C306   C     0.99334   0.50997   0.23600   0.00000  Uiso   1.00
C307   C     0.67410   0.49061   0.26370   0.00000  Uiso   1.00
C308   C     0.84620   0.65565   0.23667   0.00000  Uiso   1.00
C309   C     0.81772   0.34597   0.26443   0.00000  Uiso   1.00
C310   C     0.82257   0.38956   0.26031   0.00000  Uiso   1.00
C311   C     0.84301   0.61120   0.24025   0.00000  Uiso   1.00
C312   C     0.82427   0.58763   0.47089   0.00000  Uiso   1.00
C313   C     0.85196   0.48120   0.12948   0.00000  Uiso   1.00
C314   C     0.81490   0.51781   0.37078   0.00000  Uiso   1.00
C315   C     0.86106   0.42252   0.01861   0.00000  Uiso   1.00
C316   C     0.85664   0.47426   0.08148   0.00000  Uiso   1.00
C317   C     0.81181   0.57186   0.43234   0.00000  Uiso   1.00
C318   C     0.88127   0.34049   0.20204   0.00000  Uiso   1.00
C319   C     0.78173   0.66430   0.29989   0.00000  Uiso   1.00
C320   C     0.81968   0.53507   0.08610   0.00000  Uiso   1.00
C321   C     0.83550   0.56128   0.49645   0.00000  Uiso   1.00
C322   C     0.82960   0.51773   0.48702   0.00000  Uiso   1.00
C323   C     0.81674   0.50137   0.44736   0.00000  Uiso   1.00
C324   C     0.83911   0.49018   0.01424   0.00000  Uiso   1.00
C325   C     0.84446   0.44867   0.49637   0.00000  Uiso   1.00
C326   C     0.82952   0.43280   0.45878   0.00000  Uiso   1.00
C327   C     0.81172   0.45764   0.43718   0.00000  Uiso   1.00
H328   H     0.87933   0.41525   0.07830   0.00000  Uiso   1.00
H329   H     0.80427   0.42653   0.37830   0.00000  Uiso   1.00
H330   H     0.76357   0.45580   0.40459   0.00000  Uiso   1.00
H331   H     0.98567   0.47267   0.28955   0.00000  Uiso   1.00
H332   H     0.82822   0.39998   0.44813   0.00000  Uiso   1.00
H333   H     0.80706   0.59356   0.41092   0.00000  Uiso   1.00
H334   H     0.85073   0.57591   0.02219   0.00000  Uiso   1.00
H335   H     0.82812   0.62080   0.47931   0.00000  Uiso   1.00
H336   H     0.68246   0.52781   0.21044   0.00000  Uiso   1.00
H337   H     0.85076   0.36040   0.02171   0.00000  Uiso   1.00
H338   H     0.90170   0.37915   0.49649   0.00000  Uiso   1.00
N339   N     0.90916   0.35497   0.17448   0.00000  Uiso   1.00
N340   N     0.75296   0.65251   0.32828   0.00000  Uiso   1.00
N341   N     0.86933   0.38157   0.49945   0.00000  Uiso   1.00
N342   N     0.80241   0.56181   0.10772   0.00000  Uiso   1.00
N343   N     0.78496   0.43682   0.40905   0.00000  Uiso   1.00
O344   O     0.83333   0.50000   0.25000   0.00000  Uiso   1.00
O345   O     0.82118   0.45970   0.15459   0.00000  Uiso   1.00
O346   O     0.79607   0.53724   0.34968   0.00000  Uiso   1.00
O347   O     0.87491   0.51092   0.14606   0.00000  Uiso   1.00
O348   O     0.84118   0.49213   0.34968   0.00000  Uiso   1.00
O349   O     0.84597   0.41352   0.28214   0.00000  Uiso   1.00
O350   O     0.81298   0.59418   0.27014   0.00000  Uiso   1.00
O351   O     0.74078   0.46625   0.23413   0.00000  Uiso   1.00
O352   O     0.93360   0.52605   0.21361   0.00000  Uiso   1.00
O353   O     0.73738   0.52211   0.28213   0.00000  Uiso   1.00
O354   O     0.92158   0.48559   0.27014   0.00000  Uiso   1.00
O355   O     0.80426   0.40277   0.23413   0.00000  Uiso   1.00
O356   O     0.87012   0.58953   0.21361   0.00000  Uiso   1.00
Zn357  Zn    0.86005   0.47327   0.28734   0.00000  Uiso   1.00
Zn358  Zn    0.80046   0.45791   0.21876   0.00000  Uiso   1.00
Zn359  Zn    0.87723   0.53109   0.20657   0.00000  Uiso   1.00
Zn360  Zn    0.79560   0.53773   0.28734   0.00000  Uiso   1.00
C361   C     0.05275   0.82637   0.25990   0.00000  Uiso   1.00
C362   C     0.17459   0.83461   0.05927   0.00000  Uiso   1.00
C363   C     0.20152   0.76943   0.06048   0.00000  Uiso   1.00
C364   C     0.28073   0.84050   0.24000   0.00000  Uiso   1.00
C365   C     0.14449   0.86277   0.41853   0.00000  Uiso   1.00
C366   C     0.32668   0.84331   0.23600   0.00000  Uiso   1.00
C367   C     0.00743   0.82394   0.26370   0.00000  Uiso   1.00
C368   C     0.17954   0.98899   0.23667   0.00000  Uiso   1.00
C369   C     0.15105   0.67931   0.26443   0.00000  Uiso   1.00
C370   C     0.15590   0.72289   0.26031   0.00000  Uiso   1.00
C371   C     0.17634   0.94453   0.24025   0.00000  Uiso   1.00
C372   C     0.15760   0.92096   0.47089   0.00000  Uiso   1.00
C373   C     0.18530   0.81453   0.12948   0.00000  Uiso   1.00
C374   C     0.14823   0.85114   0.37078   0.00000  Uiso   1.00
C375   C     0.19439   0.75585   0.01861   0.00000  Uiso   1.00
C376   C     0.18997   0.80759   0.08148   0.00000  Uiso   1.00
C377   C     0.14514   0.90519   0.43234   0.00000  Uiso   1.00
C378   C     0.21460   0.67382   0.20204   0.00000  Uiso   1.00
C379   C     0.11506   0.99763   0.29989   0.00000  Uiso   1.00
C380   C     0.15301   0.86840   0.08610   0.00000  Uiso   1.00
C381   C     0.16883   0.89462   0.49645   0.00000  Uiso   1.00
C382   C     0.16293   0.85106   0.48702   0.00000  Uiso   1.00
C383   C     0.15007   0.83470   0.44736   0.00000  Uiso   1.00
C384   C     0.17244   0.82352   0.01424   0.00000  Uiso   1.00
C385   C     0.17780   0.78200   0.49637   0.00000  Uiso   1.00
C386   C     0.16285   0.76613   0.45878   0.00000  Uiso   1.00
C387   C     0.14505   0.79098   0.43718   0.00000  Uiso   1.00
H388   H     0.21267   0.74859   0.07830   0.00000  Uiso   1.00
H389   H     0.13760   0.75987   0.37830   0.00000  Uiso   1.00
H390   H     0.09690   0.78913   0.40459   0.00000  Uiso   1.00
H391   H     0.31901   0.80601   0.28955   0.00000  Uiso   1.00
H392   H     0.16155   0.73331   0.44813   0.00000  Uiso   1.00
H393   H     0.14040   0.92690   0.41092   0.00000  Uiso   1.00
H394   H     0.18407   0.90924   0.02219   0.00000  Uiso   1.00
H395   H     0.16145   0.95413   0.47931   0.00000  Uiso   1.00
H396   H     0.01580   0.86114   0.21044   0.00000  Uiso   1.00
H397   H     0.18409   0.69373   0.02171   0.00000  Uiso   1.00
H398   H     0.23503   0.71248   0.49649   0.00000  Uiso   1.00
N399   N     0.24249   0.68830   0.17448   0.00000  Uiso   1.00
N400   N     0.08629   0.98585   0.32828   0.00000  Uiso   1.00
N401   N     0.20267   0.71491   0.49945   0.00000  Uiso   1.00
N402   N     0.13574   0.89514   0.10772   0.00000  Uiso   1.00
N403   N     0.11830   0.77016   0.40905   0.00000  Uiso   1.00
O404   O     0.16667   0.83333   0.25000   0.00000  Uiso   1.00
O405   O     0.15451   0.79304   0.15459   0.00000  Uiso   1.00
O406   O     0.12940   0.87058   0.34968   0.00000  Uiso   1.00
O407   O     0.20824   0.84425   0.14606   0.00000  Uiso   1.00
O408   O     0.17451   0.82546   0.34968   0.00000  Uiso   1.00
O409   O     0.17930   0.74686   0.28214   0.00000  Uiso   1.00
O410   O     0.14632   0.92751   0.27014   0.00000  Uiso   1.00
O411   O     0.07412   0.79958   0.23413   0.00000  Uiso   1.00
O412   O     0.26693   0.85939   0.21361   0.00000  Uiso   1.00
O413   O     0.07071   0.85544   0.28213   0.00000  Uiso   1.00
O414   O     0.25491   0.81892   0.27014   0.00000  Uiso   1.00
O415   O     0.13760   0.73610   0.23413   0.00000  Uiso   1.00
O416   O     0.20345   0.92286   0.21361   0.00000  Uiso   1.00
Zn417  Zn    0.19338   0.80661   0.28734   0.00000  Uiso   1.00
Zn418  Zn    0.13379   0.79124   0.21876   0.00000  Uiso   1.00
Zn419  Zn    0.21056   0.86442   0.20657   0.00000  Uiso   1.00
Zn420  Zn    0.12893   0.87106   0.28734   0.00000  Uiso   1.00
C421   C     0.38608   0.82637   0.25990   0.00000  Uiso   1.00
C422   C     0.50792   0.83461   0.05927   0.00000  Uiso   1.00
C423   C     0.53485   0.76943   0.06048   0.00000  Uiso   1.00
C424   C     0.61406   0.84050   0.24000   0.00000  Uiso   1.00
C425   C     0.47782   0.86277   0.41853   0.00000  Uiso   1.00
C426   C     0.66001   0.84331   0.23600   0.00000  Uiso   1.00
C427   C     0.34077   0.82394   0.26370   0.00000  Uiso   1.00
C428   C     0.51287   0.98899   0.23667   0.00000  Uiso   1.00
C429   C     0.48438   0.67931   0.26443   0.00000  Uiso   1.00
C430   C     0.48923   0.72289   0.26031   0.00000  Uiso   1.00
C431   C     0.50968   0.94453   0.24025   0.00000  Uiso   1.00
C432   C     0.49094   0.92096   0.47089   0.00000  Uiso   1.00
C433   C     0.51863   0.81453   0.12948   0.00000  Uiso   1.00
C434   C     0.48157   0.85114   0.37078   0.00000  Uiso   1.00
C435   C     0.52773   0.75585   0.01861   0.00000  Uiso   1.00
C436   C     0.52330   0.80759   0.08148   0.00000  Uiso   1.00
C437   C     0.47847   0.90519   0.43234   0.00000  Uiso   1.00
C438   C     0.54794   0.67382   0.20204   0.00000  Uiso   1.00
C439   C     0.44840   0.99763   0.29989   0.00000  Uiso   1.00
C440   C     0.48634   0.86840   0.08610   0.00000  Uiso   1.00
C441   C     0.50217   0.89462   0.49645   0.00000  Uiso   1.00
C442   C     0.49626   0.85106   0.48702   0.00000  Uiso   1.00
C443   C     0.48340   0.83470   0.44736   0.00000  Uiso   1.00
C444   C     0.50578   0.82352   0.01424   0.00000  Uiso   1.00
C445   C     0.51113   0.78200   0.49637   0.00000  Uiso   1.00
C446   C     0.49618   0.76613   0.45878   0.00000  Uiso   1.00
C447   C     0.47838   0.79098   0.43718   0.00000  Uiso   1.00
H448   H     0.54600   0.74859   0.07830   0.00000  Uiso   1.00
H449   H     0.47093   0.75987   0.37830   0.00000  Uiso   1.00
H450   H     0.43024   0.78913   0.40459   0.00000  Uiso   1.00
H451   H     0.65234   0.80601   0.28955   0.00000  Uiso   1.00
H452   H     0.49488   0.73331   0.44813   0.00000  Uiso   1.00
H453   H     0.47373   0.92690   0.41092   0.00000  Uiso   1.00
H454   H     0.51740   0.90924   0.02219   0.00000  Uiso   1.00
H455   H     0.49479   0.95413   0.47931   0.00000  Uiso   1.00
H456   H     0.34913   0.86114   0.21044   0.00000  Uiso   1.00
H457   H     0.51743   0.69373   0.02171   0.00000  Uiso   1.00
H458   H     0.56836   0.71248   0.49649   0.00000  Uiso   1.00
N459   N     0.57583   0.68830   0.17448   0.00000  Uiso   1.00
N460   N     0.41963   0.98585   0.32828   0.00000  Uiso   1.00
N461   N     0.53600   0.71491   0.49945   0.00000  Uiso   1.00
N462   N     0.46908   0.89514   0.10772   0.00000  Uiso   1.00
N463   N     0.45163   0.77016   0.40905   0.00000  Uiso   1.00
O464   O     0.50000   0.83333   0.25000   0.00000  Uiso   1.00
O465   O     0.48784   0.79304   0.15459   0.00000  Uiso   1.00
O466   O     0.46274   0.87058   0.34968   0.00000  Uiso   1.00
O467   O     0.54157   0.84425   0.14606   0.00000  Uiso   1.00
O468   O     0.50785   0.82546   0.34968   0.00000  Uiso   1.00
O469   O     0.51264   0.74686   0.28214   0.00000  Uiso   1.00
O470   O     0.47965   0.92751   0.27014   0.00000  Uiso   1.00
O471   O     0.40745   0.79958   0.23413   0.00000  Uiso   1.00
O472   O     0.60026   0.85939   0.21361   0.00000  Uiso   1.00
O473   O     0.40405   0.85544   0.28213   0.00000  Uiso   1.00
O474   O     0.58824   0.81892   0.27014   0.00000  Uiso   1.00
O475   O     0.47093   0.73610   0.23413   0.00000  Uiso   1.00
O476   O     0.53678   0.92286   0.21361   0.00000  Uiso   1.00
Zn477  Zn    0.52672   0.80661   0.28734   0.00000  Uiso   1.00
Zn478  Zn    0.46713   0.79124   0.21876   0.00000  Uiso   1.00
Zn479  Zn    0.54389   0.86442   0.20657   0.00000  Uiso   1.00
Zn480  Zn    0.46226   0.87106   0.28734   0.00000  Uiso   1.00
C481   C     0.71942   0.82637   0.25990   0.00000  Uiso   1.00
C482   C     0.84125   0.83461   0.05927   0.00000  Uiso   1.00
C483   C     0.86819   0.76943   0.06048   0.00000  Uiso   1.00
C484   C     0.94740   0.84050   0.24000   0.00000  Uiso   1.00
C485   C     0.81115   0.86277   0.41853   0.00000  Uiso   1.00
C486   C     0.99334   0.84331   0.23600   0.00000  Uiso   1.00
C487   C     0.67410   0.82394   0.26370   0.00000  Uiso   1.00
C488   C     0.84620   0.98899   0.23667   0.00000  Uiso   1.00
C489   C     0.81772   0.67931   0.26443   0.00000  Uiso   1.00
C490   C     0.82257   0.72289   0.26031   0.00000  Uiso   1.00
C491   C     0.84301   0.94453   0.24025   0.00000  Uiso   1.00
C492   C     0.82427   0.92096   0.47089   0.00000  Uiso   1.00
C493   C     0.85196   0.81453   0.12948   0.00000  Uiso   1.00
C494   C     0.81490   0.85114   0.37078   0.00000  Uiso   1.00
C495   C     0.86106   0.75585   0.01861   0.00000  Uiso   1.00
C496   C     0.85664   0.80759   0.08148   0.00000  Uiso   1.00
C497   C     0.81181   0.90519   0.43234   0.00000  Uiso   1.00
C498   C     0.88127   0.67382   0.20204   0.00000  Uiso   1.00
C499   C     0.78173   0.99763   0.29989   0.00000  Uiso   1.00
C500   C     0.81968   0.86840   0.08610   0.00000  Uiso   1.00
C501   C     0.83550   0.89462   0.49645   0.00000  Uiso   1.00
C502   C     0.82960   0.85106   0.48702   0.00000  Uiso   1.00
C503   C     0.81674   0.83470   0.44736   0.00000  Uiso   1.00
C504   C     0.83911   0.82352   0.01424   0.00000  Uiso   1.00
C505   C     0.84446   0.78200   0.49637   0.00000  Uiso   1.00
C506   C     0.82952   0.76613   0.45878   0.00000  Uiso   1.00
C507   C     0.81172   0.79098   0.43718   0.00000  Uiso   1.00
H508   H     0.87933   0.74859   0.07830   0.00000  Uiso   1.00
H509   H     0.80427   0.75987   0.37830   0.00000  Uiso   1.00
H510   H     0.76357   0.78913   0.40459   0.00000  Uiso   1.00
H511   H     0.98567   0.80601   0.28955   0.00000  Uiso   1.00
H512   H     0.82822   0.73331   0.44813   0.00000  Uiso   1.00
H513   H     0.80706   0.92690   0.41092   0.00000  Uiso   1.00
H514   H     0.85073   0.90924   0.02219   0.00000  Uiso   1.00
H515   H     0.82812   0.95413   0.47931   0.00000  Uiso   1.00
H516   H     0.68246   0.86114   0.21044   0.00000  Uiso   1.00
H517   H     0.85076   0.69373   0.02171   0.00000  Uiso   1.00
H518   H     0.90170   0.71248   0.49649   0.00000  Uiso   1.00
N519   N     0.90916   0.68830   0.17448   0.00000  Uiso   1.00
N520   N     0.75296   0.98585   0.32828   0.00000  Uiso   1.00
N521   N     0.86933   0.71491   0.49945   0.00000  Uiso   1.00
N522   N     0.80241   0.89514   0.10772   0.00000  Uiso   1.00
N523   N     0.78496   0.77016   0.40905   0.00000  Uiso   1.00
O524   O     0.83333   0.83333   0.25000   0.00000  Uiso   1.00
O525   O     0.82118   0.79304   0.15459   0.00000  Uiso   1.00
O526   O     0.79607   0.87058   0.34968   0.00000  Uiso   1.00
O527   O     0.87491   0.84425   0.14606   0.00000  Uiso   1.00
O528   O     0.84118   0.82546   0.34968   0.00000  Uiso   1.00
O529   O     0.84597   0.74686   0.28214   0.00000  Uiso   1.00
O530   O     0.81298   0.92751   0.27014   0.00000  Uiso   1.00
O531   O     0.74078   0.79958   0.23413   0.00000  Uiso   1.00
O532   O     0.93360   0.85939   0.21361   0.00000  Uiso   1.00
O533   O     0.73738   0.85544   0.28213   0.00000  Uiso   1.00
O534   O     0.92158   0.81892   0.27014   0.00000  Uiso   1.00
O535   O     0.80426   0.73610   0.23413   0.00000  Uiso   1.00
O536   O     0.87012   0.92286   0.21361   0.00000  Uiso   1.00
Zn537  Zn    0.86005   0.80661   0.28734   0.00000  Uiso   1.00
Zn538  Zn    0.80046   0.79124   0.21876   0.00000  Uiso   1.00
Zn539  Zn    0.87723   0.86442   0.20657   0.00000  Uiso   1.00
Zn540  Zn    0.79560   0.87106   0.28734   0.00000  Uiso   1.00
C541   C     0.05275   0.15971   0.75990   0.00000  Uiso   1.00
C542   C     0.17459   0.16794   0.55927   0.00000  Uiso   1.00
C543   C     0.20152   0.10276   0.56048   0.00000  Uiso   1.00
C544   C     0.28073   0.17384   0.74000   0.00000  Uiso   1.00
C545   C     0.14449   0.19610   0.91853   0.00000  Uiso   1.00
C546   C     0.32668   0.17664   0.73600   0.00000  Uiso   1.00
C547   C     0.00743   0.15728   0.76370   0.00000  Uiso   1.00
C548   C     0.17954   0.32232   0.73667   0.00000  Uiso   1.00
C549   C     0.15105   0.01264   0.76443   0.00000  Uiso   1.00
C550   C     0.15590   0.05623   0.76031   0.00000  Uiso   1.00
C551   C     0.17634   0.27786   0.74025   0.00000  Uiso   1.00
C552   C     0.15760   0.25430   0.97089   0.00000  Uiso   1.00
C553   C     0.18530   0.14787   0.62948   0.00000  Uiso   1.00
C554   C     0.14823   0.18448   0.87078   0.00000  Uiso   1.00
C555   C     0.19439   0.08918   0.51861   0.00000  Uiso   1.00
C556   C     0.18997   0.14092   0.58148   0.00000  Uiso   1.00
C557   C     0.14514   0.23852   0.93234   0.00000  Uiso   1.00
C558   C     0.21460   0.00716   0.70204   0.00000  Uiso   1.00
C559   C     0.11506   0.33097   0.79989   0.00000  Uiso   1.00
C560   C     0.15301   0.20173   0.58610   0.00000  Uiso   1.00
C561   C     0.16883   0.22795   0.99645   0.00000  Uiso   1.00
C562   C     0.16293   0.18440   0.98702   0.00000  Uiso   1.00
C563   C     0.15007   0.16804   0.94736   0.00000  Uiso   1.00
C564   C     0.17244   0.15685   0.51424   0.00000  Uiso   1.00
C565   C     0.17780   0.11533   0.99637   0.00000  Uiso   1.00
C566   C     0.16285   0.09947   0.95878   0.00000  Uiso   1.00
C567   C     0.14505   0.12431   0.93718   0.00000  Uiso   1.00
H568   H     0.21267   0.08192   0.57830   0.00000  Uiso   1.00
H569   H     0.13760   0.09320   0.87830   0.00000  Uiso   1.00
H570   H     0.09690   0.12246   0.90459   0.00000  Uiso   1.00
H571   H     0.31901   0.13934   0.78955   0.00000  Uiso   1.00
H572   H     0.16155   0.06664   0.94813   0.00000  Uiso   1.00
H573   H     0.14040   0.26023   0.91092   0.00000  Uiso   1.00
H574   H     0.18407   0.24258   0.52219   0.00000  Uiso   1.00
H575   H     0.16145   0.28746   0.97931   0.00000  Uiso   1.00
H576   H     0.01580   0.19447   0.71044   0.00000  Uiso   1.00
H577   H     0.18409   0.02707   0.52171   0.00000  Uiso   1.00
H578   H     0.23503   0.04582   0.99649   0.00000  Uiso   1.00
N579   N     0.24249   0.02164   0.67448   0.00000  Uiso   1.00
N580   N     0.08629   0.31918   0.82828   0.00000  Uiso   1.00
N581   N     0.20267   0.04824   0.99945   0.00000  Uiso   1.00
N582   N     0.13574   0.22847   0.60772   0.00000  Uiso   1.00
N583   N     0.11830   0.10349   0.90905   0.00000  Uiso   1.00
O584   O     0.16667   0.16667   0.75000   0.00000  Uiso   1.00
O585   O     0.15451   0.12637   0.65459   0.00000  Uiso   1.00
O586   O     0.12940   0.20391   0.84968   0.00000  Uiso   1.00
O587   O     0.20824   0.17759   0.64606   0.00000  Uiso   1.00
O588   O     0.17451   0.15880   0.84968   0.00000  Uiso   1.00
O589   O     0.17930   0.08019   0.78214   0.00000  Uiso   1.00
O590   O     0.14632   0.26085   0.77014   0.00000  Uiso   1.00
O591   O     0.07412   0.13291   0.73413   0.00000  Uiso   1.00
O592   O     0.26693   0.19272   0.71361   0.00000  Uiso   1.00
O593   O     0.07071   0.18878   0.78213   0.00000  Uiso   1.00
O594   O     0.25491   0.15226   0.77014   0.00000  Uiso   1.00
O595   O     0.13760   0.06944   0.73413   0.00000  Uiso   1.00
O596   O     0.20345   0.25620   0.71361   0.00000  Uiso   1.00
Zn597  Zn    0.19338   0.13994   0.78734   0.00000  Uiso   1.00
Zn598  Zn    0.13379   0.12458   0.71876   0.00000  Uiso   1.00
Zn599  Zn    0.21056   0.19775   0.70657   0.00000  Uiso   1.00
Zn600  Zn    0.12893   0.20439   0.78734   0.00000  Uiso   1.00
C601   C     0.38608   0.15971   0.75990   0.00000  Uiso   1.00
C602   C     0.50792   0.16794   0.55927   0.00000  Uiso   1.00
C603   C     0.53485   0.10276   0.56048   0.00000  Uiso   1.00
C604   C     0.61406   0.17384   0.74000   0.00000  Uiso   1.00
C605   C     0.47782   0.19610   0.91853   0.00000  Uiso   1.00
C606   C     0.66001   0.17664   0.73600   0.00000  Uiso   1.00
C607   C     0.34077   0.15728   0.76370   0.00000  Uiso   1.00
C608   C     0.51287   0.32232   0.73667   0.00000  Uiso   1.00
C609   C     0.48438   0.01264   0.76443   0.00000  Uiso   1.00
C610   C     0.48923   0.05623   0.76031   0.00000  Uiso   1.00
C611   C     0.50968   0.27786   0.74025   0.00000  Uiso   1.00
C612   C     0.49094   0.25430   0.97089   0.00000  Uiso   1.00
C613   C     0.51863   0.14787   0.62948   0.00000  Uiso   1.00
C614   C     0.48157   0.18448   0.87078   0.00000  Uiso   1.00
C615   C     0.52773   0.08918   0.51861   0.00000  Uiso   1.00
C616   C     0.52330   0.14092   0.58148   0.00000  Uiso   1.00
C617   C     0.47847   0.23852   0.93234   0.00000  Uiso   1.00
C618   C     0.54794   0.00716   0.70204   0.00000  Uiso   1.00
C619   C     0.44840   0.33097   0.79989   0.00000  Uiso   1.00
C620   C     0.48634   0.20173   0.58610   0.00000  Uiso   1.00
C621   C     0.50217   0.22795   0.99645   0.00000  Uiso   1.00
C622   C     0.49626   0.18440   0.98702   0.00000  Uiso   1.00
C623   C     0.48340   0.16804   0.94736   0.00000  Uiso   1.00
C624   C     0.50578   0.15685   0.51424   0.00000  Uiso   1.00
C625   C     0.51113   0.11533   0.99637   0.00000  Uiso   1.00
C626   C     0.49618   0.09947   0.95878   0.00000  Uiso   1.00
C627   C     0.47838   0.12431   0.93718   0.00000  Uiso   1.00
H628   H     0.54600   0.08192   0.57830   0.00000  Uiso   1.00
H629   H     0.47093   0.09320   0.87830   0.00000  Uiso   1.00
H630   H     0.43024   0.12246   0.90459   0.00000  Uiso   1.00
H631   H     0.65234   0.13934   0.78955   0.00000  Uiso   1.00
H632   H     0.49488   0.06664   0.94813   0.00000  Uiso   1.00
H633   H     0.47373   0.26023   0.91092   0.00000  Uiso   1.00
H634   H     0.51740   0.24258   0.52219   0.00000  Uiso   1.00
H635   H     0.49479   0.28746   0.97931   0.00000  Uiso   1.00
H636   H     0.34913   0.19447   0.71044   0.00000  Uiso   1.00
H637   H     0.51743   0.02707   0.52171   0.00000  Uiso   1.00
H638   H     0.56836   0.04582   0.99649   0.00000  Uiso   1.00
N639   N     0.57583   0.02164   0.67448   0.00000  Uiso   1.00
N640   N     0.41963   0.31918   0.82828   0.00000  Uiso   1.00
N641   N     0.53600   0.04824   0.99945   0.00000  Uiso   1.00
N642   N     0.46908   0.22847   0.60772   0.00000  Uiso   1.00
N643   N     0.45163   0.10349   0.90905   0.00000  Uiso   1.00
O644   O     0.50000   0.16667   0.75000   0.00000  Uiso   1.00
O645   O     0.48784   0.12637   0.65459   0.00000  Uiso   1.00
O646   O     0.46274   0.20391   0.84968   0.00000  Uiso   1.00
O647   O     0.54157   0.17759   0.64606   0.00000  Uiso   1.00
O648   O     0.50785   0.15880   0.84968   0.00000  Uiso   1.00
O649   O     0.51264   0.08019   0.78214   0.00000  Uiso   1.00
O650   O     0.47965   0.26085   0.77014   0.00000  Uiso   1.00
O651   O     0.40745   0.13291   0.73413   0.00000  Uiso   1.00
O652   O     0.60026   0.19272   0.71361   0.00000  Uiso   1.00
O653   O     0.40405   0.18878   0.78213   0.00000  Uiso   1.00
O654   O     0.58824   0.15226   0.77014   0.00000  Uiso   1.00
O655   O     0.47093   0.06944   0.73413   0.00000  Uiso   1.00
O656   O     0.53678   0.25620   0.71361   0.00000  Uiso   1.00
Zn657  Zn    0.52672   0.13994   0.78734   0.00000  Uiso   1.00
Zn658  Zn    0.46713   0.12458   0.71876   0.00000  Uiso   1.00
Zn659  Zn    0.54389   0.19775   0.70657   0.00000  Uiso   1.00
Zn660  Zn    0.46226   0.20439   0.78734   0.00000  Uiso   1.00
C661   C     0.71942   0.15971   0.75990   0.00000  Uiso   1.00
C662   C     0.84125   0.16794   0.55927   0.00000  Uiso   1.00
C663   C     0.86819   0.10276   0.56048   0.00000  Uiso   1.00
C664   C     0.94740   0.17384   0.74000   0.00000  Uiso   1.00
C665   C     0.81115   0.19610   0.91853   0.00000  Uiso   1.00
C666   C     0.99334   0.17664   0.73600   0.00000  Uiso   1.00
C667   C     0.67410   0.15728   0.76370   0.00000  Uiso   1.00
C668   C     0.84620   0.32232   0.73667   0.00000  Uiso   1.00
C669   C     0.81772   0.01264   0.76443   0.00000  Uiso   1.00
C670   C     0.82257   0.05623   0.76031   0.00000  Uiso   1.00
C671   C     0.84301   0.27786   0.74025   0.00000  Uiso   1.00
C672   C     0.82427   0.25430   0.97089   0.00000  Uiso   1.00
C673   C     0.85196   0.14787   0.62948   0.00000  Uiso   1.00
C674   C     0.81490   0.18448   0.87078   0.00000  Uiso   1.00
C675   C     0.86106   0.08918   0.51861   0.00000  Uiso   1.00
C676   C     0.85664   0.14092   0.58148   0.00000  Uiso   1.00
C677   C     0.81181   0.23852   0.93234   0.00000  Uiso   1.00
C678   C     0.88127   0.00716   0.70204   0.00000  Uiso   1.00
C679   C     0.78173   0.33097   0.79989   0.00000  Uiso   1.00
C680   C     0.81968   0.20173   0.58610   0.00000  Uiso   1.00
C681   C     0.83550   0.22795   0.99645   0.00000  Uiso   1.00
C682   C     0.82960   0.18440   0.98702   0.00000  Uiso   1.00
C683   C     0.81674   0.16804   0.94736   0.00000  Uiso   1.00
C684   C     0.83911   0.15685   0.51424   0.00000  Uiso   1.00
C685   C     0.84446   0.11533   0.99637   0.00000  Uiso   1.00
C686   C     0.82952   0.09947   0.95878   0.00000  Uiso   1.00
C687   C     0.81172   0.12431   0.93718   0.00000  Uiso   1.00
H688   H     0.87933   0.08192   0.57830   0.00000  Uiso   1.00
H689   H     0.80427   0.09320   0.87830   0.00000  Uiso   1.00
H690   H     0.76357   0.12246   0.90459   0.00000  Uiso   1.00
H691   H     0.98567   0.13934   0.78955   0.00000  Uiso   1.00
H692   H     0.82822   0.06664   0.94813   0.00000  Uiso   1.00
H693   H     0.80706   0.26023   0.91092   0.00000  Uiso   1.00
H694   H     0.85073   0.24258   0.52219   0.00000  Uiso   1.00
H695   H     0.82812   0.28746   0.97931   0.00000  Uiso   1.00
H696   H     0.68246   0.19447   0.71044   0.00000  Uiso   1.00
H697   H     0.85076   0.02707   0.52171   0.00000  Uiso   1.00
H698   H     0.90170   0.04582   0.99649   0.00000  Uiso   1.00
N699   N     0.90916   0.02164   0.67448   0.00000  Uiso   1.00
N700   N     0.75296   0.31918   0.82828   0.00000  Uiso   1.00
N701   N     0.86933   0.04824   0.99945   0.00000  Uiso   1.00
N702   N     0.80241   0.22847   0.60772   0.00000  Uiso   1.00
N703   N     0.78496   0.10349   0.90905   0.00000  Uiso   1.00
O704   O     0.83333   0.16667   0.75000   0.00000  Uiso   1.00
O705   O     0.82118   0.12637   0.65459   0.00000  Uiso   1.00
O706   O     0.79607   0.20391   0.84968   0.00000  Uiso   1.00
O707   O     0.87491   0.17759   0.64606   0.00000  Uiso   1.00
O708   O     0.84118   0.15880   0.84968   0.00000  Uiso   1.00
O709   O     0.84597   0.08019   0.78214   0.00000  Uiso   1.00
O710   O     0.81298   0.26085   0.77014   0.00000  Uiso   1.00
O711   O     0.74078   0.13291   0.73413   0.00000  Uiso   1.00
O712   O     0.93360   0.19272   0.71361   0.00000  Uiso   1.00
O713   O     0.73738   0.18878   0.78213   0.00000  Uiso   1.00
O714   O     0.92158   0.15226   0.77014   0.00000  Uiso   1.00
O715   O     0.80426   0.06944   0.73413   0.00000  Uiso   1.00
O716   O     0.87012   0.25620   0.71361   0.00000  Uiso   1.00
Zn717  Zn    0.86005   0.13994   0.78734   0.00000  Uiso   1.00
Zn718  Zn    0.80046   0.12458   0.71876   0.00000  Uiso   1.00
Zn719  Zn    0.87723   0.19775   0.70657   0.00000  Uiso   1.00
Zn720  Zn    0.79560   0.20439   0.78734   0.00000  Uiso   1.00
C721   C     0.05275   0.49304   0.75990   0.00000  Uiso   1.00
C722   C     0.17459   0.50128   0.55927   0.00000  Uiso   1.00
C723   C     0.20152   0.43609   0.56048   0.00000  Uiso   1.00
C724   C     0.28073   0.50717   0.74000   0.00000  Uiso   1.00
C725   C     0.14449   0.52944   0.91853   0.00000  Uiso   1.00
C726   C     0.32668   0.50997   0.73600   0.00000  Uiso   1.00
C727   C     0.00743   0.49061   0.76370   0.00000  Uiso   1.00
C728   C     0.17954   0.65565   0.73667   0.00000  Uiso   1.00
C729   C     0.15105   0.34597   0.76443   0.00000  Uiso   1.00
C730   C     0.15590   0.38956   0.76031   0.00000  Uiso   1.00
C731   C     0.17634   0.61120   0.74025   0.00000  Uiso   1.00
C732   C     0.15760   0.58763   0.97089   0.00000  Uiso   1.00
C733   C     0.18530   0.48120   0.62948   0.00000  Uiso   1.00
C734   C     0.14823   0.51781   0.87078   0.00000  Uiso   1.00
C735   C     0.19439   0.42252   0.51861   0.00000  Uiso   1.00
C736   C     0.18997   0.47426   0.58148   0.00000  Uiso   1.00
C737   C     0.14514   0.57186   0.93234   0.00000  Uiso   1.00
C738   C     0.21460   0.34049   0.70204   0.00000  Uiso   1.00
C739   C     0.11506   0.66430   0.79989   0.00000  Uiso   1.00
C740   C     0.15301   0.53507   0.58610   0.00000  Uiso   1.00
C741   C     0.16883   0.56128   0.99645   0.00000  Uiso   1.00
C742   C     0.16293   0.51773   0.98702   0.00000  Uiso   1.00
C743   C     0.15007   0.50137   0.94736   0.00000  Uiso   1.00
C744   C     0.17244   0.49018   0.51424   0.00000  Uiso   1.00
C745   C     0.17780   0.44867   0.99637   0.00000  Uiso   1.00
C746   C     0.16285   0.43280   0.95878   0.00000  Uiso   1.00
C747   C     0.14505   0.45764   0.93718   0.00000  Uiso   1.00
H748   H     0.21267   0.41525   0.57830   0.00000  Uiso   1.00
H749   H     0.13760   0.42653   0.87830   0.00000  Uiso   1.00
H750   H     0.09690   0.45580   0.90459   0.00000  Uiso   1.00
H751   H     0.31901   0.47267   0.78955   0.00000  Uiso   1.00
H752   H     0.16155   0.39998   0.94813   0.00000  Uiso   1.00
H753   H     0.14040   0.59356   0.91092   0.00000  Uiso   1.00
H754   H     0.18407   0.57591   0.52219   0.00000  Uiso   1.00
H755   H     0.16145   0.62080   0.97931   0.00000  Uiso   1.00
H756   H     0.01580   0.52781   0.71044   0.00000  Uiso   1.00
H757   H     0.18409   0.36040   0.52171   0.00000  Uiso   1.00
H758   H     0.23503   0.37915   0.99649   0.00000  Uiso   1.00
N759   N     0.24249   0.35497   0.67448   0.00000  Uiso   1.00
N760   N     0.08629   0.65251   0.82828   0.00000  Uiso   1.00
N761   N     0.20267   0.38157   0.99945   0.00000  Uiso   1.00
N762   N     0.13574   0.56181   0.60772   0.00000  Uiso   1.00
N763   N     0.11830   0.43682   0.90905   0.00000  Uiso   1.00
O764   O     0.16667   0.50000   0.75000   0.00000  Uiso   1.00
O765   O     0.15451   0.45970   0.65459   0.00000  Uiso   1.00
O766   O     0.12940   0.53724   0.84968   0.00000  Uiso   1.00
O767   O     0.20824   0.51092   0.64606   0.00000  Uiso   1.00
O768   O     0.17451   0.49213   0.84968   0.00000  Uiso   1.00
O769   O     0.17930   0.41352   0.78214   0.00000  Uiso   1.00
O770   O     0.14632   0.59418   0.77014   0.00000  Uiso   1.00
O771   O     0.07412   0.46625   0.73413   0.00000  Uiso   1.00
O772   O     0.26693   0.52605   0.71361   0.00000  Uiso   1.00
O773   O     0.07071   0.52211   0.78213   0.00000  Uiso   1.00
O774   O     0.25491   0.48559   0.77014   0.00000  Uiso   1.00
O775   O     0.13760   0.40277   0.73413   0.00000  Uiso   1.00
O776   O     0.20345   0.58953   0.71361   0.00000  Uiso   1.00
Zn777  Zn    0.19338   0.47327   0.78734   0.00000  Uiso   1.00
Zn778  Zn    0.13379   0.45791   0.71876   0.00000  Uiso   1.00
Zn779  Zn    0.21056   0.53109   0.70657   0.00000  Uiso   1.00
Zn780  Zn    0.12893   0.53773   0.78734   0.00000  Uiso   1.00
C781   C     0.38608   0.49304   0.75990   0.00000  Uiso   1.00
C782   C     0.50792   0.50128   0.55927   0.00000  Uiso   1.00
C783   C     0.53485   0.43609   0.56048   0.00000  Uiso   1.00
C784   C     0.61406   0.50717   0.74000   0.00000  Uiso   1.00
C785   C     0.47782   0.52944   0.91853   0.00000  Uiso   1.00
C786   C     0.66001   0.50997   0.73600   0.00000  Uiso   1.00
C787   C     0.34077   0.49061   0.76370   0.00000  Uiso   1.00
C788   C     0.51287   0.65565   0.73667   0.00000  Uiso   1.00
C789   C     0.48438   0.34597   0.76443   0.00000  Uiso   1.00
C790   C     0.48923   0.38956   0.76031   0.00000  Uiso   1.00
C791   C     0.50968   0.61120   0.74025   0.00000  Uiso   1.00
C792   C     0.49094   0.58763   0.97089   0.00000  Uiso   1.00
C793   C     0.51863   0.48120   0.62948   0.00000  Uiso   1.00
C794   C     0.48157   0.51781   0.87078   0.00000  Uiso   1.00
C795   C     0.52773   0.42252   0.51861   0.00000  Uiso   1.00
C796   C     0.52330   0.47426   0.58148   0.00000  Uiso   1.00
C797   C     0.47847   0.57186   0.93234   0.00000  Uiso   1.00
C798   C     0.54794   0.34049   0.70204   0.00000  Uiso   1.00
C799   C     0.44840   0.66430   0.79989   0.00000  Uiso   1.00
C800   C     0.48634   0.53507   0.58610   0.00000  Uiso   1.00
C801   C     0.50217   0.56128   0.99645   0.00000  Uiso   1.00
C802   C     0.49626   0.51773   0.98702   0.00000  Uiso   1.00
C803   C     0.48340   0.50137   0.94736   0.00000  Uiso   1.00
C804   C     0.50578   0.49018   0.51424   0.00000  Uiso   1.00
C805   C     0.51113   0.44867   0.99637   0.00000  Uiso   1.00
C806   C     0.49618   0.43280   0.95878   0.00000  Uiso   1.00
C807   C     0.47838   0.45764   0.93718   0.00000  Uiso   1.00
H808   H     0.54600   0.41525   0.57830   0.00000  Uiso   1.00
H809   H     0.47093   0.42653   0.87830   0.00000  Uiso   1.00
H810   H     0.43024   0.45580   0.90459   0.00000  Uiso   1.00
H811   H     0.65234   0.47267   0.78955   0.00000  Uiso   1.00
H812   H     0.49488   0.39998   0.94813   0.00000  Uiso   1.00
H813   H     0.47373   0.59356   0.91092   0.00000  Uiso   1.00
H814   H     0.51740   0.57591   0.52219   0.00000  Uiso   1.00
H815   H     0.49479   0.62080   0.97931   0.00000  Uiso   1.00
H816   H     0.34913   0.52781   0.71044   0.00000  Uiso   1.00
H817   H     0.51743   0.36040   0.52171   0.00000  Uiso   1.00
H818   H     0.56836   0.37915   0.99649   0.00000  Uiso   1.00
N819   N     0.57583   0.35497   0.67448   0.00000  Uiso   1.00
N820   N     0.41963   0.65251   0.82828   0.00000  Uiso   1.00
N821   N     0.53600   0.38157   0.99945   0.00000  Uiso   1.00
N822   N     0.46908   0.56181   0.60772   0.00000  Uiso   1.00
N823   N     0.45163   0.43682   0.90905   0.00000  Uiso   1.00
O824   O     0.50000   0.50000   0.75000   0.00000  Uiso   1.00
O825   O     0.48784   0.45970   0.65459   0.00000  Uiso   1.00
O826   O     0.46274   0.53724   0.84968   0.00000  Uiso   1.00
O827   O     0.54157   0.51092   0.64606   0.00000  Uiso   1.00
O828   O     0.50785   0.49213   0.84968   0.00000  Uiso   1.00
O829   O     0.51264   0.41352   0.78214   0.00000  Uiso   1.00
O830   O     0.47965   0.59418   0.77014   0.00000  Uiso   1.00
O831   O     0.40745   0.46625   0.73413   0.00000  Uiso   1.00
O832   O     0.60026   0.52605   0.71361   0.00000  Uiso   1.00
O833   O     0.40405   0.52211   0.78213   0.00000  Uiso   1.00
O834   O     0.58824   0.48559   0.77014   0.00000  Uiso   1.00
O835   O     0.47093   0.40277   0.73413   0.00000  Uiso   1.00
O836   O     0.53678   0.58953   0.71361   0.00000  Uiso   1.00
Zn837  Zn    0.52672   0.47327   0.78734   0.00000  Uiso   1.00
Zn838  Zn    0.46713   0.45791   0.71876   0.00000  Uiso   1.00
Zn839  Zn    0.54389   0.53109   0.70657   0.00000  Uiso   1.00
Zn840  Zn    0.46226   0.53773   0.78734   0.00000  Uiso   1.00
C841   C     0.71942   0.49304   0.75990   0.00000  Uiso   1.00
C842   C     0.84125   0.50128   0.55927   0.00000  Uiso   1.00
C843   C     0.86819   0.43609   0.56048   0.00000  Uiso   1.00
C844   C     0.94740   0.50717   0.74000   0.00000  Uiso   1.00
C845   C     0.81115   0.52944   0.91853   0.00000  Uiso   1.00
C846   C     0.99334   0.50997   0.73600   0.00000  Uiso   1.00
C847   C     0.67410   0.49061   0.76370   0.00000  Uiso   1.00
C848   C     0.84620   0.65565   0.73667   0.00000  Uiso   1.00
C849   C     0.81772   0.34597   0.76443   0.00000  Uiso   1.00
C850   C     0.82257   0.38956   0.76031   0.00000  Uiso   1.00
C851   C     0.84301   0.61120   0.74025   0.00000  Uiso   1.00
C852   C     0.82427   0.58763   0.97089   0.00000  Uiso   1.00
C853   C     0.85196   0.48120   0.62948   0.00000  Uiso   1.00
C854   C     0.81490   0.51781   0.87078   0.00000  Uiso   1.00
C855   C     0.86106   0.42252   0.51861   0.00000  Uiso   1.00
C856   C     0.85664   0.47426   0.58148   0.00000  Uiso   1.00
C857   C     0.81181   0.57186   0.93234   0.00000  Uiso   1.00
C858   C     0.88127   0.34049   0.70204   0.00000  Uiso   1.00
C859   C     0.78173   0.66430   0.79989   0.00000  Uiso   1.00
C860   C     0.81968   0.53507   0.58610   0.00000  Uiso   1.00
C861   C     0.83550   0.56128   0.99645   0.00000  Uiso   1.00
C862   C     0.82960   0.51773   0.98702   0.00000  Uiso   1.00
C863   C     0.81674   0.50137   0.94736   0.00000  Uiso   1.00
C864   C     0.83911   0.49018   0.51424   0.00000  Uiso   1.00
C865   C     0.84446   0.44867   0.99637   0.00000  Uiso   1.00
C866   C     0.82952   0.43280   0.95878   0.00000  Uiso   1.00
C867   C     0.81172   0.45764   0.93718   0.00000  Uiso   1.00
H868   H     0.87933   0.41525   0.57830   0.00000  Uiso   1.00
H869   H     0.80427   0.42653   0.87830   0.00000  Uiso   1.00
H870   H     0.76357   0.45580   0.90459   0.00000  Uiso   1.00
H871   H     0.98567   0.47267   0.78955   0.00000  Uiso   1.00
H872   H     0.82822   0.39998   0.94813   0.00000  Uiso   1.00
H873   H     0.80706   0.59356   0.91092   0.00000  Uiso   1.00
H874   H     0.85073   0.57591   0.52219   0.00000  Uiso   1.00
H875   H     0.82812   0.62080   0.97931   0.00000  Uiso   1.00
H876   H     0.68246   0.52781   0.71044   0.00000  Uiso   1.00
H877   H     0.85076   0.36040   0.52171   0.00000  Uiso   1.00
H878   H     0.90170   0.37915   0.99649   0.00000  Uiso   1.00
N879   N     0.90916   0.35497   0.67448   0.00000  Uiso   1.00
N880   N     0.75296   0.65251   0.82828   0.00000  Uiso   1.00
N881   N     0.86933   0.38157   0.99945   0.00000  Uiso   1.00
N882   N     0.80241   0.56181   0.60772   0.00000  Uiso   1.00
N883   N     0.78496   0.43682   0.90905   0.00000  Uiso   1.00
O884   O     0.83333   0.50000   0.75000   0.00000  Uiso   1.00
O885   O     0.82118   0.45970   0.65459   0.00000  Uiso   1.00
O886   O     0.79607   0.53724   0.84968   0.00000  Uiso   1.00
O887   O     0.87491   0.51092   0.64606   0.00000  Uiso   1.00
O888   O     0.84118   0.49213   0.84968   0.00000  Uiso   1.00
O889   O     0.84597   0.41352   0.78214   0.00000  Uiso   1.00
O890   O     0.81298   0.59418   0.77014   0.00000  Uiso   1.00
O891   O     0.74078   0.46625   0.73413   0.00000  Uiso   1.00
O892   O     0.93360   0.52605   0.71361   0.00000  Uiso   1.00
O893   O     0.73738   0.52211   0.78213   0.00000  Uiso   1.00
O894   O     0.92158   0.48559   0.77014   0.00000  Uiso   1.00
O895   O     0.80426   0.40277   0.73413   0.00000  Uiso   1.00
O896   O     0.87012   0.58953   0.71361   0.00000  Uiso   1.00
Zn897  Zn    0.86005   0.47327   0.78734   0.00000  Uiso   1.00
Zn898  Zn    0.80046   0.45791   0.71876   0.00000  Uiso   1.00
Zn899  Zn    0.87723   0.53109   0.70657   0.00000  Uiso   1.00
Zn900  Zn    0.79560   0.53773   0.78734   0.00000  Uiso   1.00
C901   C     0.05275   0.82637   0.75990   0.00000  Uiso   1.00
C902   C     0.17459   0.83461   0.55927   0.00000  Uiso   1.00
C903   C     0.20152   0.76943   0.56048   0.00000  Uiso   1.00
C904   C     0.28073   0.84050   0.74000   0.00000  Uiso   1.00
C905   C     0.14449   0.86277   0.91853   0.00000  Uiso   1.00
C906   C     0.32668   0.84331   0.73600   0.00000  Uiso   1.00
C907   C     0.00743   0.82394   0.76370   0.00000  Uiso   1.00
C908   C     0.17954   0.98899   0.73667   0.00000  Uiso   1.00
C909   C     0.15105   0.67931   0.76443   0.00000  Uiso   1.00
C910   C     0.15590   0.72289   0.76031   0.00000  Uiso   1.00
C911   C     0.17634   0.94453   0.74025   0.00000  Uiso   1.00
C912   C     0.15760   0.92096   0.97089   0.00000  Uiso   1.00
C913   C     0.18530   0.81453   0.62948   0.00000  Uiso   1.00
C914   C     0.14823   0.85114   0.87078   0.00000  Uiso   1.00
C915   C     0.19439   0.75585   0.51861   0.00000  Uiso   1.00
C916   C     0.18997   0.80759   0.58148   0.00000  Uiso   1.00
C917   C     0.14514   0.90519   0.93234   0.00000  Uiso   1.00
C918   C     0.21460   0.67382   0.70204   0.00000  Uiso   1.00
C919   C     0.11506   0.99763   0.79989   0.00000  Uiso   1.00
C920   C     0.15301   0.86840   0.58610   0.00000  Uiso   1.00
C921   C     0.16883   0.89462   0.99645   0.00000  Uiso   1.00
C922   C     0.16293   0.85106   0.98702   0.00000  Uiso   1.00
C923   C     0.15007   0.83470   0.94736   0.00000  Uiso   1.00
C924   C     0.17244   0.82352   0.51424   0.00000  Uiso   1.00
C925   C     0.17780   0.78200   0.99637   0.00000  Uiso   1.00
C926   C     0.16285   0.76613   0.95878   0.00000  Uiso   1.00
C927   C     0.14505   0.79098   0.93718   0.00000  Uiso   1.00
H928   H     0.21267   0.74859   0.57830   0.00000  Uiso   1.00
H929   H     0.13760   0.75987   0.87830   0.00000  Uiso   1.00
H930   H     0.09690   0.78913   0.90459   0.00000  Uiso   1.00
H931   H     0.31901   0.80601   0.78955   0.00000  Uiso   1.00
H932   H     0.16155   0.73331   0.94813   0.00000  Uiso   1.00
H933   H     0.14040   0.92690   0.91092   0.00000  Uiso   1.00
H934   H     0.18407   0.90924   0.52219   0.00000  Uiso   1.00
H935   H     0.16145   0.95413   0.97931   0.00000  Uiso   1.00
H936   H     0.01580   0.86114   0.71044   0.00000  Uiso   1.00
H937   H     0.18409   0.69373   0.52171   0.00000  Uiso   1.00
H938   H     0.23503   0.71248   0.99649   0.00000  Uiso   1.00
N939   N     0.24249   0.68830   0.67448   0.00000  Uiso   1.00
N940   N     0.08629   0.98585   0.82828   0.00000  Uiso   1.00
N941   N     0.20267   0.71491   0.99945   0.00000  Uiso   1.00
N942   N     0.13574   0.89514   0.60772   0.00000  Uiso   1.00
N943   N     0.11830   0.77016   0.90905   0.00000  Uiso   1.00
O944   O     0.16667   0.83333   0.75000   0.00000  Uiso   1.00
O945   O     0.15451   0.79304   0.65459   0.00000  Uiso   1.00
O946   O     0.12940   0.87058   0.84968   0.00000  Uiso   1.00
O947   O     0.20824   0.84425   0.64606   0.00000  Uiso   1.00
O948   O     0.17451   0.82546   0.84968   0.00000  Uiso   1.00
O949   O     0.17930   0.74686   0.78214   0.00000  Uiso   1.00
O950   O     0.14632   0.92751   0.77014   0.00000  Uiso   1.00
O951   O     0.07412   0.79958   0.73413   0.00000  Uiso   1.00
O952   O     0.26693   0.85939   0.71361   0.00000  Uiso   1.00
O953   O     0.07071   0.85544   0.78213   0.00000  Uiso   1.00
O954   O     0.25491   0.81892   0.77014   0.00000  Uiso   1.00
O955   O     0.13760   0.73610   0.73413   0.00000  Uiso   1.00
O956   O     0.20345   0.92286   0.71361   0.00000  Uiso   1.00
Zn957  Zn    0.19338   0.80661   0.78734   0.00000  Uiso   1.00
Zn958  Zn    0.13379   0.79124   0.71876   0.00000  Uiso   1.00
Zn959  Zn    0.21056   0.86442   0.70657   0.00000  Uiso   1.00
Zn960  Zn    0.12893   0.87106   0.78734   0.00000  Uiso   1.00
C961   C     0.38608   0.82637   0.75990   0.00000  Uiso   1.00
C962   C     0.50792   0.83461   0.55927   0.00000  Uiso   1.00
C963   C     0.53485   0.76943   0.56048   0.00000  Uiso   1.00
C964   C     0.61406   0.84050   0.74000   0.00000  Uiso   1.00
C965   C     0.47782   0.86277   0.91853   0.00000  Uiso   1.00
C966   C     0.66001   0.84331   0.73600   0.00000  Uiso   1.00
C967   C     0.34077   0.82394   0.76370   0.00000  Uiso   1.00
C968   C     0.51287   0.98899   0.73667   0.00000  Uiso   1.00
C969   C     0.48438   0.67931   0.76443   0.00000  Uiso   1.00
C970   C     0.48923   0.72289   0.76031   0.00000  Uiso   1.00
C971   C     0.50968   0.94453   0.74025   0.00000  Uiso   1.00
C972   C     0.49094   0.92096   0.97089   0.00000  Uiso   1.00
C973   C     0.51863   0.81453   0.62948   0.00000  Uiso   1.00
C974   C     0.48157   0.85114   0.87078   0.00000  Uiso   1.00
C975   C     0.52773   0.75585   0.51861   0.00000  Uiso   1.00
C976   C     0.52330   0.80759   0.58148   0.00000  Uiso   1.00
C977   C     0.47847   0.90519   0.93234   0.00000  Uiso   1.00
C978   C     0.54794   0.67382   0.70204   0.00000  Uiso   1.00
C979   C     0.44840   0.99763   0.79989   0.00000  Uiso   1.00
C980   C     0.48634   0.86840   0.58610   0.00000  Uiso   1.00
C981   C     0.50217   0.89462   0.99645   0.00000  Uiso   1.00
C982   C     0.49626   0.85106   0.98702   0.00000  Uiso   1.00
C983   C     0.48340   0.83470   0.94736   0.00000  Uiso   1.00
C984   C     0.50578   0.82352   0.51424   0.00000  Uiso   1.00
C985   C     0.51113   0.78200   0.99637   0.00000  Uiso   1.00
C986   C     0.49618   0.76613   0.95878   0.00000  Uiso   1.00
C987   C     0.47838   0.79098   0.93718   0.00000  Uiso   1.00
H988   H     0.54600   0.74859   0.57830   0.00000  Uiso   1.00
H989   H     0.47093   0.75987   0.87830   0.00000  Uiso   1.00
H990   H     0.43024   0.78913   0.90459   0.00000  Uiso   1.00
H991   H     0.65234   0.80601   0.78955   0.00000  Uiso   1.00
H992   H     0.49488   0.73331   0.94813   0.00000  Uiso   1.00
H993   H     0.47373   0.92690   0.91092   0.00000  Uiso   1.00
H994   H     0.51740   0.90924   0.52219   0.00000  Uiso   1.00
H995   H     0.49479   0.95413   0.97931   0.00000  Uiso   1.00
H996   H     0.34913   0.86114   0.71044   0.00000  Uiso   1.00
H997   H     0.51743   0.69373   0.52171   0.00000  Uiso   1.00
H998   H     0.56836   0.71248   0.99649   0.00000  Uiso   1.00
N999   N     0.57583   0.68830   0.67448   0.00000  Uiso   1.00
N1000  N     0.41963   0.98585   0.82828   0.00000  Uiso   1.00
N1001  N     0.53600   0.71491   0.99945   0.00000  Uiso   1.00
N1002  N     0.46908   0.89514   0.60772   0.00000  Uiso   1.00
N1003  N     0.45163   0.77016   0.90905   0.00000  Uiso   1.00
O1004  O     0.50000   0.83333   0.75000   0.00000  Uiso   1.00
O1005  O     0.48784   0.79304   0.65459   0.00000  Uiso   1.00
O1006  O     0.46274   0.87058   0.84968   0.00000  Uiso   1.00
O1007  O     0.54157   0.84425   0.64606   0.00000  Uiso   1.00
O1008  O     0.50785   0.82546   0.84968   0.00000  Uiso   1.00
O1009  O     0.51264   0.74686   0.78214   0.00000  Uiso   1.00
O1010  O     0.47965   0.92751   0.77014   0.00000  Uiso   1.00
O1011  O     0.40745   0.79958   0.73413   0.00000  Uiso   1.00
O1012  O     0.60026   0.85939   0.71361   0.00000  Uiso   1.00
O1013  O     0.40405   0.85544   0.78213   0.00000  Uiso   1.00
O1014  O     0.58824   0.81892   0.77014   0.00000  Uiso   1.00
O1015  O     0.47093   0.73610   0.73413   0.00000  Uiso   1.00
O1016  O     0.53678   0.92286   0.71361   0.00000  Uiso   1.00
Zn1017 Zn    0.52672   0.80661   0.78734   0.00000  Uiso   1.00
Zn1018 Zn    0.46713   0.79124   0.71876   0.00000  Uiso   1.00
Zn1019 Zn    0.54389   0.86442   0.70657   0.00000  Uiso   1.00
Zn1020 Zn    0.46226   0.87106   0.78734   0.00000  Uiso   1.00
C1021  C     0.71942   0.82637   0.75990   0.00000  Uiso   1.00
C1022  C     0.84125   0.83461   0.55927   0.00000  Uiso   1.00
C1023  C     0.86819   0.76943   0.56048   0.00000  Uiso   1.00
C1024  C     0.94740   0.84050   0.74000   0.00000  Uiso   1.00
C1025  C     0.81115   0.86277   0.91853   0.00000  Uiso   1.00
C1026  C     0.99334   0.84331   0.73600   0.00000  Uiso   1.00
C1027  C     0.67410   0.82394   0.76370   0.00000  Uiso   1.00
C1028  C     0.84620   0.98899   0.73667   0.00000  Uiso   1.00
C1029  C     0.81772   0.67931   0.76443   0.00000  Uiso   1.00
C1030  C     0.82257   0.72289   0.76031   0.00000  Uiso   1.00
C1031  C     0.84301   0.94453   0.74025   0.00000  Uiso   1.00
C1032  C     0.82427   0.92096   0.97089   0.00000  Uiso   1.00
C1033  C     0.85196   0.81453   0.62948   0.00000  Uiso   1.00
C1034  C     0.81490   0.85114   0.87078   0.00000  Uiso   1.00
C1035  C     0.86106   0.75585   0.51861   0.00000  Uiso   1.00
C1036  C     0.85664   0.80759   0.58148   0.00000  Uiso   1.00
C1037  C     0.81181   0.90519   0.93234   0.00000  Uiso   1.00
C1038  C     0.88127   0.67382   0.70204   0.00000  Uiso   1.00
C1039  C     0.78173   0.99763   0.79989   0.00000  Uiso   1.00
C1040  C     0.81968   0.86840   0.58610   0.00000  Uiso   1.00
C1041  C     0.83550   0.89462   0.99645   0.00000  Uiso   1.00
C1042  C     0.82960   0.85106   0.98702   0.00000  Uiso   1.00
C1043  C     0.81674   0.83470   0.94736   0.00000  Uiso   1.00
C1044  C     0.83911   0.82352   0.51424   0.00000  Uiso   1.00
C1045  C     0.84446   0.78200   0.99637   0.00000  Uiso   1.00
C1046  C     0.82952   0.76613   0.95878   0.00000  Uiso   1.00
C1047  C     0.81172   0.79098   0.93718   0.00000  Uiso   1.00
H1048  H     0.87933   0.74859   0.57830   0.00000  Uiso   1.00
H1049  H     0.80427   0.75987   0.87830   0.00000  Uiso   1.00
H1050  H     0.76357   0.78913   0.90459   0.00000  Uiso   1.00
H1051  H     0.98567   0.80601   0.78955   0.00000  Uiso   1.00
H1052  H     0.82822   0.73331   0.94813   0.00000  Uiso   1.00
H1053  H     0.80706   0.92690   0.91092   0.00000  Uiso   1.00
H1054  H     0.85073   0.90924   0.52219   0.00000  Uiso   1.00
H1055  H     0.82812   0.95413   0.97931   0.00000  Uiso   1.00
H1056  H     0.68246   0.86114   0.71044   0.00000  Uiso   1.00
H1057  H     0.85076   0.69373   0.52171   0.00000  Uiso   1.00
H1058  H     0.90170   0.71248   0.99649   0.00000  Uiso   1.00
N1059  N     0.90916   0.68830   0.67448   0.00000  Uiso   1.00
N1060  N     0.75296   0.98585   0.82828   0.00000  Uiso   1.00
N1061  N     0.86933   0.71491   0.99945   0.00000  Uiso   1.00
N1062  N     0.80241   0.89514   0.60772   0.00000  Uiso   1.00
N1063  N     0.78496   0.77016   0.90905   0.00000  Uiso   1.00
O1064  O     0.83333   0.83333   0.75000   0.00000  Uiso   1.00
O1065  O     0.82118   0.79304   0.65459   0.00000  Uiso   1.00
O1066  O     0.79607   0.87058   0.84968   0.00000  Uiso   1.00
O1067  O     0.87491   0.84425   0.64606   0.00000  Uiso   1.00
O1068  O     0.84118   0.82546   0.84968   0.00000  Uiso   1.00
O1069  O     0.84597   0.74686   0.78214   0.00000  Uiso   1.00
O1070  O     0.81298   0.92751   0.77014   0.00000  Uiso   1.00
O1071  O     0.74078   0.79958   0.73413   0.00000  Uiso   1.00
O1072  O     0.93360   0.85939   0.71361   0.00000  Uiso   1.00
O1073  O     0.73738   0.85544   0.78213   0.00000  Uiso   1.00
O1074  O     0.92158   0.81892   0.77014   0.00000  Uiso   1.00
O1075  O     0.80426   0.73610   0.73413   0.00000  Uiso   1.00
O1076  O     0.87012   0.92286   0.71361   0.00000  Uiso   1.00
Zn1077 Zn    0.86005   0.80661   0.78734   0.00000  Uiso   1.00
Zn1078 Zn    0.80046   0.79124   0.71876   0.00000  Uiso   1.00
Zn1079 Zn    0.87723   0.86442   0.70657   0.00000  Uiso   1.00
Zn1080 Zn    0.79560   0.87106   0.78734   0.00000  Uiso   1.00
loop_
_geom_bond_atom_site_label_1
_geom_bond_atom_site_label_2
_geom_bond_distance
_geom_bond_site_symmetry_2
_ccdc_geom_bond_type
C1     O51     1.270   .     A
C1     O53     1.270   .     A
C1     C7      1.437   .     S
C2     C16     1.405   .     A
C2     C24     1.422   .     A
C2     C20     1.454   .     S
C3     H28     1.085   .     S
C3     C15     1.392   .     A
C3     C16     1.394   .     A
C4     O52     1.288   .     A
C4     C6      1.455   .     S
C4     O54     1.284   .     A
C5     C23     1.420   .     A
C5     C14     1.466   .     S
C5     C17     1.403   .     A
C6     C67     1.335   .     S
C6     H96     1.088   .     S
C7     C126    1.335   1_455 S
C7     H151    1.086   1_455 S
C8     C11     1.460   .     S
C8     C189    1.354   .     S
C8     C198    1.454   .     S
C9     C10     1.430   .     S
C9     C368    1.354   1_545 S
C9     C379    1.450   1_545 S
C10    O55     1.274   .     A
C10    O49     1.273   .     A
C11    O56     1.275   .     A
C11    O50     1.268   .     A
C12    C17     1.384   .     A
C12    H35     1.083   .     S
C12    C21     1.387   .     A
C13    C16     1.454   .     S
C13    O45     1.270   .     A
C13    O47     1.278   .     A
C14    O46     1.281   .     A
C14    O48     1.286   .     A
C15    C565    1.408   1_554 S
C15    N581    1.434   1_554 S
C17    H33     1.084   .     S
C18    N39     1.157   .     T
C18    C368    1.454   1_545 S
C19    N40     1.158   .     T
C19    C189    1.450   .     S
C20    N42     1.158   .     T
C21    C22     1.416   .     A
C21    H574    1.078   .     S
C22    C23     1.425   .     A
C22    C564    1.426   .     S
C23    C27     1.423   .     A
C24    C562    1.426   1_554 S
C24    C565    1.423   1_554 S
C25    C26     1.397   .     A
C25    C564    1.423   .     S
C25    C555    1.408   .     S
C26    H32     1.084   .     S
C26    C27     1.388   .     A
C27    N43     1.438   .     S
H29    N43     1.044   .     S
H30    N43     1.044   .     S
H31    C67     1.086   .     S
H34    C561    1.078   1_554 S
H36    C126    1.088   1_455 S
H37    N581    1.046   1_554 S
H38    N41     1.046   .     S
N41    C555    1.434   .     S
N41    H577    1.046   .     S
O44    Zn57    1.969   .     S
O44    Zn60    1.933   .     S
O44    Zn59    1.942   .     S
O44    Zn58    1.942   .     S
O45    Zn58    1.936   .     S
O46    Zn60    1.946   .     S
O47    Zn59    1.936   .     S
O48    Zn57    1.928   .     S
O49    Zn57    1.939   .     S
O50    Zn60    1.946   .     S
O51    Zn58    1.924   .     S
O52    Zn59    1.935   .     S
O53    Zn60    1.929   .     S
O54    Zn57    1.921   .     S
O55    Zn58    1.952   .     S
O56    Zn59    1.942   .     S
C61    O111    1.270   .     A
C61    O113    1.270   .     A
C61    C67     1.437   .     S
C62    C76     1.405   .     A
C62    C84     1.422   .     A
C62    C80     1.454   .     S
C63    H88     1.085   .     S
C63    C75     1.392   .     A
C63    C76     1.394   .     A
C64    O112    1.288   .     A
C64    C66     1.455   .     S
C64    O114    1.284   .     A
C65    C83     1.420   .     A
C65    C74     1.466   .     S
C65    C77     1.403   .     A
C66    C127    1.335   .     S
C66    H156    1.088   .     S
C68    C71     1.460   .     S
C68    C249    1.354   .     S
C68    C258    1.454   .     S
C69    C70     1.430   .     S
C69    C428    1.354   1_545 S
C69    C439    1.450   1_545 S
C70    O115    1.274   .     A
C70    O109    1.273   .     A
C71    O116    1.275   .     A
C71    O110    1.268   .     A
C72    C77     1.384   .     A
C72    H95     1.083   .     S
C72    C81     1.387   .     A
C73    C76     1.454   .     S
C73    O105    1.270   .     A
C73    O107    1.278   .     A
C74    O106    1.281   .     A
C74    O108    1.286   .     A
C75    C625    1.408   1_554 S
C75    N641    1.434   1_554 S
C77    H93     1.084   .     S
C78    N99     1.157   .     T
C78    C428    1.454   1_545 S
C79    N100    1.158   .     T
C79    C249    1.450   .     S
C80    N102    1.158   .     T
C81    C82     1.416   .     A
C81    H634    1.078   .     S
C82    C83     1.425   .     A
C82    C624    1.426   .     S
C83    C87     1.423   .     A
C84    C622    1.426   1_554 S
C84    C625    1.423   1_554 S
C85    C86     1.397   .     A
C85    C624    1.423   .     S
C85    C615    1.408   .     S
C86    H92     1.084   .     S
C86    C87     1.388   .     A
C87    N103    1.438   .     S
H89    N103    1.044   .     S
H90    N103    1.044   .     S
H91    C127    1.086   .     S
H94    C621    1.078   1_554 S
H97    N641    1.046   1_554 S
H98    N101    1.046   .     S
N101   C615    1.434   .     S
N101   H637    1.046   .     S
O104   Zn117   1.969   .     S
O104   Zn120   1.933   .     S
O104   Zn119   1.942   .     S
O104   Zn118   1.942   .     S
O105   Zn118   1.936   .     S
O106   Zn120   1.946   .     S
O107   Zn119   1.936   .     S
O108   Zn117   1.928   .     S
O109   Zn117   1.939   .     S
O110   Zn120   1.946   .     S
O111   Zn118   1.924   .     S
O112   Zn119   1.935   .     S
O113   Zn120   1.929   .     S
O114   Zn117   1.921   .     S
O115   Zn118   1.952   .     S
O116   Zn119   1.942   .     S
C121   O171    1.270   .     A
C121   O173    1.270   .     A
C121   C127    1.437   .     S
C122   C136    1.405   .     A
C122   C144    1.422   .     A
C122   C140    1.454   .     S
C123   H148    1.085   .     S
C123   C135    1.392   .     A
C123   C136    1.394   .     A
C124   O172    1.288   .     A
C124   C126    1.455   .     S
C124   O174    1.284   .     A
C125   C143    1.420   .     A
C125   C134    1.466   .     S
C125   C137    1.403   .     A
C126   C7      1.335   1_655 S
C126   H36     1.088   1_655 S
C128   C131    1.460   .     S
C128   C309    1.354   .     S
C128   C318    1.454   .     S
C129   C130    1.430   .     S
C129   C488    1.354   1_545 S
C129   C499    1.450   1_545 S
C130   O175    1.274   .     A
C130   O169    1.273   .     A
C131   O176    1.275   .     A
C131   O170    1.268   .     A
C132   C137    1.384   .     A
C132   H155    1.083   .     S
C132   C141    1.387   .     A
C133   C136    1.454   .     S
C133   O165    1.270   .     A
C133   O167    1.278   .     A
C134   O166    1.281   .     A
C134   O168    1.286   .     A
C135   C685    1.408   1_554 S
C135   N701    1.434   1_554 S
C137   H153    1.084   .     S
C138   N159    1.157   .     T
C138   C488    1.454   1_545 S
C139   N160    1.158   .     T
C139   C309    1.450   .     S
C140   N162    1.158   .     T
C141   C142    1.416   .     A
C141   H694    1.078   .     S
C142   C143    1.425   .     A
C142   C684    1.426   .     S
C143   C147    1.423   .     A
C144   C682    1.426   1_554 S
C144   C685    1.423   1_554 S
C145   C146    1.397   .     A
C145   C684    1.423   .     S
C145   C675    1.408   .     S
C146   H152    1.084   .     S
C146   C147    1.388   .     A
C147   N163    1.438   .     S
H149   N163    1.044   .     S
H150   N163    1.044   .     S
H151   C7      1.086   1_655 S
H154   C681    1.078   1_554 S
H157   N701    1.046   1_554 S
H158   N161    1.046   .     S
N161   C675    1.434   .     S
N161   H697    1.046   .     S
O164   Zn177   1.969   .     S
O164   Zn180   1.933   .     S
O164   Zn179   1.942   .     S
O164   Zn178   1.942   .     S
O165   Zn178   1.936   .     S
O166   Zn180   1.946   .     S
O167   Zn179   1.936   .     S
O168   Zn177   1.928   .     S
O169   Zn177   1.939   .     S
O170   Zn180   1.946   .     S
O171   Zn178   1.924   .     S
O172   Zn179   1.935   .     S
O173   Zn180   1.929   .     S
O174   Zn177   1.921   .     S
O175   Zn178   1.952   .     S
O176   Zn179   1.942   .     S
C181   O231    1.270   .     A
C181   O233    1.270   .     A
C181   C187    1.437   .     S
C182   C196    1.405   .     A
C182   C204    1.422   .     A
C182   C200    1.454   .     S
C183   H208    1.085   .     S
C183   C195    1.392   .     A
C183   C196    1.394   .     A
C184   O232    1.288   .     A
C184   C186    1.455   .     S
C184   O234    1.284   .     A
C185   C203    1.420   .     A
C185   C194    1.466   .     S
C185   C197    1.403   .     A
C186   C247    1.335   .     S
C186   H276    1.088   .     S
C187   C306    1.335   1_455 S
C187   H331    1.086   1_455 S
C188   C191    1.460   .     S
C188   C369    1.354   .     S
C188   C378    1.454   .     S
C189   C190    1.430   .     S
C190   O235    1.274   .     A
C190   O229    1.273   .     A
C191   O236    1.275   .     A
C191   O230    1.268   .     A
C192   C197    1.384   .     A
C192   H215    1.083   .     S
C192   C201    1.387   .     A
C193   C196    1.454   .     S
C193   O225    1.270   .     A
C193   O227    1.278   .     A
C194   O226    1.281   .     A
C194   O228    1.286   .     A
C195   C745    1.408   1_554 S
C195   N761    1.434   1_554 S
C197   H213    1.084   .     S
C198   N219    1.157   .     T
C199   N220    1.158   .     T
C199   C369    1.450   .     S
C200   N222    1.158   .     T
C201   C202    1.416   .     A
C201   H754    1.078   .     S
C202   C203    1.425   .     A
C202   C744    1.426   .     S
C203   C207    1.423   .     A
C204   C742    1.426   1_554 S
C204   C745    1.423   1_554 S
C205   C206    1.397   .     A
C205   C744    1.423   .     S
C205   C735    1.408   .     S
C206   H212    1.084   .     S
C206   C207    1.388   .     A
C207   N223    1.438   .     S
H209   N223    1.044   .     S
H210   N223    1.044   .     S
H211   C247    1.086   .     S
H214   C741    1.078   1_554 S
H216   C306    1.088   1_455 S
H217   N761    1.046   1_554 S
H218   N221    1.046   .     S
N221   C735    1.434   .     S
N221   H757    1.046   .     S
O224   Zn237   1.969   .     S
O224   Zn240   1.933   .     S
O224   Zn239   1.942   .     S
O224   Zn238   1.942   .     S
O225   Zn238   1.936   .     S
O226   Zn240   1.946   .     S
O227   Zn239   1.936   .     S
O228   Zn237   1.928   .     S
O229   Zn237   1.939   .     S
O230   Zn240   1.946   .     S
O231   Zn238   1.924   .     S
O232   Zn239   1.935   .     S
O233   Zn240   1.929   .     S
O234   Zn237   1.921   .     S
O235   Zn238   1.952   .     S
O236   Zn239   1.942   .     S
C241   O291    1.270   .     A
C241   O293    1.270   .     A
C241   C247    1.437   .     S
C242   C256    1.405   .     A
C242   C264    1.422   .     A
C242   C260    1.454   .     S
C243   H268    1.085   .     S
C243   C255    1.392   .     A
C243   C256    1.394   .     A
C244   O292    1.288   .     A
C244   C246    1.455   .     S
C244   O294    1.284   .     A
C245   C263    1.420   .     A
C245   C254    1.466   .     S
C245   C257    1.403   .     A
C246   C307    1.335   .     S
C246   H336    1.088   .     S
C248   C251    1.460   .     S
C248   C429    1.354   .     S
C248   C438    1.454   .     S
C249   C250    1.430   .     S
C250   O295    1.274   .     A
C250   O289    1.273   .     A
C251   O296    1.275   .     A
C251   O290    1.268   .     A
C252   C257    1.384   .     A
C252   H275    1.083   .     S
C252   C261    1.387   .     A
C253   C256    1.454   .     S
C253   O285    1.270   .     A
C253   O287    1.278   .     A
C254   O286    1.281   .     A
C254   O288    1.286   .     A
C255   C805    1.408   1_554 S
C255   N821    1.434   1_554 S
C257   H273    1.084   .     S
C258   N279    1.157   .     T
C259   N280    1.158   .     T
C259   C429    1.450   .     S
C260   N282    1.158   .     T
C261   C262    1.416   .     A
C261   H814    1.078   .     S
C262   C263    1.425   .     A
C262   C804    1.426   .     S
C263   C267    1.423   .     A
C264   C802    1.426   1_554 S
C264   C805    1.423   1_554 S
C265   C266    1.397   .     A
C265   C804    1.423   .     S
C265   C795    1.408   .     S
C266   H272    1.084   .     S
C266   C267    1.388   .     A
C267   N283    1.438   .     S
H269   N283    1.044   .     S
H270   N283    1.044   .     S
H271   C307    1.086   .     S
H274   C801    1.078   1_554 S
H277   N821    1.046   1_554 S
H278   N281    1.046   .     S
N281   C795    1.434   .     S
N281   H817    1.046   .     S
O284   Zn297   1.969   .     S
O284   Zn300   1.933   .     S
O284   Zn299   1.942   .     S
O284   Zn298   1.942   .     S
O285   Zn298   1.936   .     S
O286   Zn300   1.946   .     S
O287   Zn299   1.936   .     S
O288   Zn297   1.928   .     S
O289   Zn297   1.939   .     S
O290   Zn300   1.946   .     S
O291   Zn298   1.924   .     S
O292   Zn299   1.935   .     S
O293   Zn300   1.929   .     S
O294   Zn297   1.921   .     S
O295   Zn298   1.952   .     S
O296   Zn299   1.942   .     S
C301   O351    1.270   .     A
C301   O353    1.270   .     A
C301   C307    1.437   .     S
C302   C316    1.405   .     A
C302   C324    1.422   .     A
C302   C320    1.454   .     S
C303   H328    1.085   .     S
C303   C315    1.392   .     A
C303   C316    1.394   .     A
C304   O352    1.288   .     A
C304   C306    1.455   .     S
C304   O354    1.284   .     A
C305   C323    1.420   .     A
C305   C314    1.466   .     S
C305   C317    1.403   .     A
C306   C187    1.335   1_655 S
C306   H216    1.088   1_655 S
C308   C311    1.460   .     S
C308   C489    1.354   .     S
C308   C498    1.454   .     S
C309   C310    1.430   .     S
C310   O355    1.274   .     A
C310   O349    1.273   .     A
C311   O356    1.275   .     A
C311   O350    1.268   .     A
C312   C317    1.384   .     A
C312   H335    1.083   .     S
C312   C321    1.387   .     A
C313   C316    1.454   .     S
C313   O345    1.270   .     A
C313   O347    1.278   .     A
C314   O346    1.281   .     A
C314   O348    1.286   .     A
C315   C865    1.408   1_554 S
C315   N881    1.434   1_554 S
C317   H333    1.084   .     S
C318   N339    1.157   .     T
C319   N340    1.158   .     T
C319   C489    1.450   .     S
C320   N342    1.158   .     T
C321   C322    1.416   .     A
C321   H874    1.078   .     S
C322   C323    1.425   .     A
C322   C864    1.426   .     S
C323   C327    1.423   .     A
C324   C862    1.426   1_554 S
C324   C865    1.423   1_554 S
C325   C326    1.397   .     A
C325   C864    1.423   .     S
C325   C855    1.408   .     S
C326   H332    1.084   .     S
C326   C327    1.388   .     A
C327   N343    1.438   .     S
H329   N343    1.044   .     S
H330   N343    1.044   .     S
H331   C187    1.086   1_655 S
H334   C861    1.078   1_554 S
H337   N881    1.046   1_554 S
H338   N341    1.046   .     S
N341   C855    1.434   .     S
N341   H877    1.046   .     S
O344   Zn357   1.969   .     S
O344   Zn360   1.933   .     S
O344   Zn359   1.942   .     S
O344   Zn358   1.942   .     S
O345   Zn358   1.936   .     S
O346   Zn360   1.946   .     S
O347   Zn359   1.936   .     S
O348   Zn357   1.928   .     S
O349   Zn357   1.939   .     S
O350   Zn360   1.946   .     S
O351   Zn358   1.924   .     S
O352   Zn359   1.935   .     S
O353   Zn360   1.929   .     S
O354   Zn357   1.921   .     S
O355   Zn358   1.952   .     S
O356   Zn359   1.942   .     S
C361   O411    1.270   .     A
C361   O413    1.270   .     A
C361   C367    1.437   .     S
C362   C376    1.405   .     A
C362   C384    1.422   .     A
C362   C380    1.454   .     S
C363   H388    1.085   .     S
C363   C375    1.392   .     A
C363   C376    1.394   .     A
C364   O412    1.288   .     A
C364   C366    1.455   .     S
C364   O414    1.284   .     A
C365   C383    1.420   .     A
C365   C374    1.466   .     S
C365   C377    1.403   .     A
C366   C427    1.335   .     S
C366   H456    1.088   .     S
C367   C486    1.335   1_455 S
C367   H511    1.086   1_455 S
C368   C371    1.460   .     S
C368   C9      1.354   1_565 S
C368   C18     1.454   1_565 S
C369   C370    1.430   .     S
C370   O415    1.274   .     A
C370   O409    1.273   .     A
C371   O416    1.275   .     A
C371   O410    1.268   .     A
C372   C377    1.384   .     A
C372   H395    1.083   .     S
C372   C381    1.387   .     A
C373   C376    1.454   .     S
C373   O405    1.270   .     A
C373   O407    1.278   .     A
C374   O406    1.281   .     A
C374   O408    1.286   .     A
C375   C925    1.408   1_554 S
C375   N941    1.434   1_554 S
C377   H393    1.084   .     S
C378   N399    1.157   .     T
C379   N400    1.158   .     T
C379   C9      1.450   1_565 S
C380   N402    1.158   .     T
C381   C382    1.416   .     A
C381   H934    1.078   .     S
C382   C383    1.425   .     A
C382   C924    1.426   .     S
C383   C387    1.423   .     A
C384   C922    1.426   1_554 S
C384   C925    1.423   1_554 S
C385   C386    1.397   .     A
C385   C924    1.423   .     S
C385   C915    1.408   .     S
C386   H392    1.084   .     S
C386   C387    1.388   .     A
C387   N403    1.438   .     S
H389   N403    1.044   .     S
H390   N403    1.044   .     S
H391   C427    1.086   .     S
H394   C921    1.078   1_554 S
H396   C486    1.088   1_455 S
H397   N941    1.046   1_554 S
H398   N401    1.046   .     S
N401   C915    1.434   .     S
N401   H937    1.046   .     S
O404   Zn417   1.969   .     S
O404   Zn420   1.933   .     S
O404   Zn419   1.942   .     S
O404   Zn418   1.942   .     S
O405   Zn418   1.936   .     S
O406   Zn420   1.946   .     S
O407   Zn419   1.936   .     S
O408   Zn417   1.928   .     S
O409   Zn417   1.939   .     S
O410   Zn420   1.946   .     S
O411   Zn418   1.924   .     S
O412   Zn419   1.935   .     S
O413   Zn420   1.929   .     S
O414   Zn417   1.921   .     S
O415   Zn418   1.952   .     S
O416   Zn419   1.942   .     S
C421   O471    1.270   .     A
C421   O473    1.270   .     A
C421   C427    1.437   .     S
C422   C436    1.405   .     A
C422   C444    1.422   .     A
C422   C440    1.454   .     S
C423   H448    1.085   .     S
C423   C435    1.392   .     A
C423   C436    1.394   .     A
C424   O472    1.288   .     A
C424   C426    1.455   .     S
C424   O474    1.284   .     A
C425   C443    1.420   .     A
C425   C434    1.466   .     S
C425   C437    1.403   .     A
C426   C487    1.335   .     S
C426   H516    1.088   .     S
C428   C431    1.460   .     S
C428   C69     1.354   1_565 S
C428   C78     1.454   1_565 S
C429   C430    1.430   .     S
C430   O475    1.274   .     A
C430   O469    1.273   .     A
C431   O476    1.275   .     A
C431   O470    1.268   .     A
C432   C437    1.384   .     A
C432   H455    1.083   .     S
C432   C441    1.387   .     A
C433   C436    1.454   .     S
C433   O465    1.270   .     A
C433   O467    1.278   .     A
C434   O466    1.281   .     A
C434   O468    1.286   .     A
C435   C985    1.408   1_554 S
C435   N1001   1.434   1_554 S
C437   H453    1.084   .     S
C438   N459    1.157   .     T
C439   N460    1.158   .     T
C439   C69     1.450   1_565 S
C440   N462    1.158   .     T
C441   C442    1.416   .     A
C441   H994    1.078   .     S
C442   C443    1.425   .     A
C442   C984    1.426   .     S
C443   C447    1.423   .     A
C444   C982    1.426   1_554 S
C444   C985    1.423   1_554 S
C445   C446    1.397   .     A
C445   C984    1.423   .     S
C445   C975    1.408   .     S
C446   H452    1.084   .     S
C446   C447    1.388   .     A
C447   N463    1.438   .     S
H449   N463    1.044   .     S
H450   N463    1.044   .     S
H451   C487    1.086   .     S
H454   C981    1.078   1_554 S
H457   N1001   1.046   1_554 S
H458   N461    1.046   .     S
N461   C975    1.434   .     S
N461   H997    1.046   .     S
O464   Zn477   1.969   .     S
O464   Zn480   1.933   .     S
O464   Zn479   1.942   .     S
O464   Zn478   1.942   .     S
O465   Zn478   1.936   .     S
O466   Zn480   1.946   .     S
O467   Zn479   1.936   .     S
O468   Zn477   1.928   .     S
O469   Zn477   1.939   .     S
O470   Zn480   1.946   .     S
O471   Zn478   1.924   .     S
O472   Zn479   1.935   .     S
O473   Zn480   1.929   .     S
O474   Zn477   1.921   .     S
O475   Zn478   1.952   .     S
O476   Zn479   1.942   .     S
C481   O531    1.270   .     A
C481   O533    1.270   .     A
C481   C487    1.437   .     S
C482   C496    1.405   .     A
C482   C504    1.422   .     A
C482   C500    1.454   .     S
C483   H508    1.085   .     S
C483   C495    1.392   .     A
C483   C496    1.394   .     A
C484   O532    1.288   .     A
C484   C486    1.455   .     S
C484   O534    1.284   .     A
C485   C503    1.420   .     A
C485   C494    1.466   .     S
C485   C497    1.403   .     A
C486   C367    1.335   1_655 S
C486   H396    1.088   1_655 S
C488   C491    1.460   .     S
C488   C129    1.354   1_565 S
C488   C138    1.454   1_565 S
C489   C490    1.430   .     S
C490   O535    1.274   .     A
C490   O529    1.273   .     A
C491   O536    1.275   .     A
C491   O530    1.268   .     A
C492   C497    1.384   .     A
C492   H515    1.083   .     S
C492   C501    1.387   .     A
C493   C496    1.454   .     S
C493   O525    1.270   .     A
C493   O527    1.278   .     A
C494   O526    1.281   .     A
C494   O528    1.286   .     A
C495   C1045   1.408   1_554 S
C495   N1061   1.434   1_554 S
C497   H513    1.084   .     S
C498   N519    1.157   .     T
C499   N520    1.158   .     T
C499   C129    1.450   1_565 S
C500   N522    1.158   .     T
C501   C502    1.416   .     A
C501   H1054   1.078   .     S
C502   C503    1.425   .     A
C502   C1044   1.426   .     S
C503   C507    1.423   .     A
C504   C1042   1.426   1_554 S
C504   C1045   1.423   1_554 S
C505   C506    1.397   .     A
C505   C1044   1.423   .     S
C505   C1035   1.408   .     S
C506   H512    1.084   .     S
C506   C507    1.388   .     A
C507   N523    1.438   .     S
H509   N523    1.044   .     S
H510   N523    1.044   .     S
H511   C367    1.086   1_655 S
H514   C1041   1.078   1_554 S
H517   N1061   1.046   1_554 S
H518   N521    1.046   .     S
N521   C1035   1.434   .     S
N521   H1057   1.046   .     S
O524   Zn537   1.969   .     S
O524   Zn540   1.933   .     S
O524   Zn539   1.942   .     S
O524   Zn538   1.942   .     S
O525   Zn538   1.936   .     S
O526   Zn540   1.946   .     S
O527   Zn539   1.936   .     S
O528   Zn537   1.928   .     S
O529   Zn537   1.939   .     S
O530   Zn540   1.946   .     S
O531   Zn538   1.924   .     S
O532   Zn539   1.935   .     S
O533   Zn540   1.929   .     S
O534   Zn537   1.921   .     S
O535   Zn538   1.952   .     S
O536   Zn539   1.942   .     S
C541   O591    1.270   .     A
C541   O593    1.270   .     A
C541   C547    1.437   .     S
C542   C556    1.405   .     A
C542   C564    1.422   .     A
C542   C560    1.454   .     S
C543   H568    1.085   .     S
C543   C555    1.392   .     A
C543   C556    1.394   .     A
C544   O592    1.288   .     A
C544   C546    1.455   .     S
C544   O594    1.284   .     A
C545   C563    1.420   .     A
C545   C554    1.466   .     S
C545   C557    1.403   .     A
C546   C607    1.335   .     S
C546   H636    1.088   .     S
C547   C666    1.335   1_455 S
C547   H691    1.086   1_455 S
C548   C551    1.460   .     S
C548   C729    1.354   .     S
C548   C738    1.454   .     S
C549   C550    1.430   .     S
C549   C908    1.354   1_545 S
C549   C919    1.450   1_545 S
C550   O595    1.274   .     A
C550   O589    1.273   .     A
C551   O596    1.275   .     A
C551   O590    1.268   .     A
C552   C557    1.384   .     A
C552   H575    1.083   .     S
C552   C561    1.387   .     A
C553   C556    1.454   .     S
C553   O585    1.270   .     A
C553   O587    1.278   .     A
C554   O586    1.281   .     A
C554   O588    1.286   .     A
C557   H573    1.084   .     S
C558   N579    1.157   .     T
C558   C908    1.454   1_545 S
C559   N580    1.158   .     T
C559   C729    1.450   .     S
C560   N582    1.158   .     T
C561   C562    1.416   .     A
C561   H34     1.078   1_556 S
C562   C563    1.425   .     A
C562   C24     1.426   1_556 S
C563   C567    1.423   .     A
C565   C566    1.397   .     A
C565   C24     1.423   1_556 S
C565   C15     1.408   1_556 S
C566   H572    1.084   .     S
C566   C567    1.388   .     A
C567   N583    1.438   .     S
H569   N583    1.044   .     S
H570   N583    1.044   .     S
H571   C607    1.086   .     S
H576   C666    1.088   1_455 S
H578   N581    1.046   .     S
N581   C15     1.434   1_556 S
N581   H37     1.046   1_556 S
O584   Zn597   1.969   .     S
O584   Zn600   1.933   .     S
O584   Zn599   1.942   .     S
O584   Zn598   1.942   .     S
O585   Zn598   1.936   .     S
O586   Zn600   1.946   .     S
O587   Zn599   1.936   .     S
O588   Zn597   1.928   .     S
O589   Zn597   1.939   .     S
O590   Zn600   1.946   .     S
O591   Zn598   1.924   .     S
O592   Zn599   1.935   .     S
O593   Zn600   1.929   .     S
O594   Zn597   1.921   .     S
O595   Zn598   1.952   .     S
O596   Zn599   1.942   .     S
C601   O651    1.270   .     A
C601   O653    1.270   .     A
C601   C607    1.437   .     S
C602   C616    1.405   .     A
C602   C624    1.422   .     A
C602   C620    1.454   .     S
C603   H628    1.085   .     S
C603   C615    1.392   .     A
C603   C616    1.394   .     A
C604   O652    1.288   .     A
C604   C606    1.455   .     S
C604   O654    1.284   .     A
C605   C623    1.420   .     A
C605   C614    1.466   .     S
C605   C617    1.403   .     A
C606   C667    1.335   .     S
C606   H696    1.088   .     S
C608   C611    1.460   .     S
C608   C789    1.354   .     S
C608   C798    1.454   .     S
C609   C610    1.430   .     S
C609   C968    1.354   1_545 S
C609   C979    1.450   1_545 S
C610   O655    1.274   .     A
C610   O649    1.273   .     A
C611   O656    1.275   .     A
C611   O650    1.268   .     A
C612   C617    1.384   .     A
C612   H635    1.083   .     S
C612   C621    1.387   .     A
C613   C616    1.454   .     S
C613   O645    1.270   .     A
C613   O647    1.278   .     A
C614   O646    1.281   .     A
C614   O648    1.286   .     A
C617   H633    1.084   .     S
C618   N639    1.157   .     T
C618   C968    1.454   1_545 S
C619   N640    1.158   .     T
C619   C789    1.450   .     S
C620   N642    1.158   .     T
C621   C622    1.416   .     A
C621   H94     1.078   1_556 S
C622   C623    1.425   .     A
C622   C84     1.426   1_556 S
C623   C627    1.423   .     A
C625   C626    1.397   .     A
C625   C84     1.423   1_556 S
C625   C75     1.408   1_556 S
C626   H632    1.084   .     S
C626   C627    1.388   .     A
C627   N643    1.438   .     S
H629   N643    1.044   .     S
H630   N643    1.044   .     S
H631   C667    1.086   .     S
H638   N641    1.046   .     S
N641   C75     1.434   1_556 S
N641   H97     1.046   1_556 S
O644   Zn657   1.969   .     S
O644   Zn660   1.933   .     S
O644   Zn659   1.942   .     S
O644   Zn658   1.942   .     S
O645   Zn658   1.936   .     S
O646   Zn660   1.946   .     S
O647   Zn659   1.936   .     S
O648   Zn657   1.928   .     S
O649   Zn657   1.939   .     S
O650   Zn660   1.946   .     S
O651   Zn658   1.924   .     S
O652   Zn659   1.935   .     S
O653   Zn660   1.929   .     S
O654   Zn657   1.921   .     S
O655   Zn658   1.952   .     S
O656   Zn659   1.942   .     S
C661   O711    1.270   .     A
C661   O713    1.270   .     A
C661   C667    1.437   .     S
C662   C676    1.405   .     A
C662   C684    1.422   .     A
C662   C680    1.454   .     S
C663   H688    1.085   .     S
C663   C675    1.392   .     A
C663   C676    1.394   .     A
C664   O712    1.288   .     A
C664   C666    1.455   .     S
C664   O714    1.284   .     A
C665   C683    1.420   .     A
C665   C674    1.466   .     S
C665   C677    1.403   .     A
C666   C547    1.335   1_655 S
C666   H576    1.088   1_655 S
C668   C671    1.460   .     S
C668   C849    1.354   .     S
C668   C858    1.454   .     S
C669   C670    1.430   .     S
C669   C1028   1.354   1_545 S
C669   C1039   1.450   1_545 S
C670   O715    1.274   .     A
C670   O709    1.273   .     A
C671   O716    1.275   .     A
C671   O710    1.268   .     A
C672   C677    1.384   .     A
C672   H695    1.083   .     S
C672   C681    1.387   .     A
C673   C676    1.454   .     S
C673   O705    1.270   .     A
C673   O707    1.278   .     A
C674   O706    1.281   .     A
C674   O708    1.286   .     A
C677   H693    1.084   .     S
C678   N699    1.157   .     T
C678   C1028   1.454   1_545 S
C679   N700    1.158   .     T
C679   C849    1.450   .     S
C680   N702    1.158   .     T
C681   C682    1.416   .     A
C681   H154    1.078   1_556 S
C682   C683    1.425   .     A
C682   C144    1.426   1_556 S
C683   C687    1.423   .     A
C685   C686    1.397   .     A
C685   C144    1.423   1_556 S
C685   C135    1.408   1_556 S
C686   H692    1.084   .     S
C686   C687    1.388   .     A
C687   N703    1.438   .     S
H689   N703    1.044   .     S
H690   N703    1.044   .     S
H691   C547    1.086   1_655 S
H698   N701    1.046   .     S
N701   C135    1.434   1_556 S
N701   H157    1.046   1_556 S
O704   Zn717   1.969   .     S
O704   Zn720   1.933   .     S
O704   Zn719   1.942   .     S
O704   Zn718   1.942   .     S
O705   Zn718   1.936   .     S
O706   Zn720   1.946   .     S
O707   Zn719   1.936   .     S
O708   Zn717   1.928   .     S
O709   Zn717   1.939   .     S
O710   Zn720   1.946   .     S
O711   Zn718   1.924   .     S
O712   Zn719   1.935   .     S
O713   Zn720   1.929   .     S
O714   Zn717   1.921   .     S
O715   Zn718   1.952   .     S
O716   Zn719   1.942   .     S
C721   O771    1.270   .     A
C721   O773    1.270   .     A
C721   C727    1.437   .     S
C722   C736    1.405   .     A
C722   C744    1.422   .     A
C722   C740    1.454   .     S
C723   H748    1.085   .     S
C723   C735    1.392   .     A
C723   C736    1.394   .     A
C724   O772    1.288   .     A
C724   C726    1.455   .     S
C724   O774    1.284   .     A
C725   C743    1.420   .     A
C725   C734    1.466   .     S
C725   C737    1.403   .     A
C726   C787    1.335   .     S
C726   H816    1.088   .     S
C727   C846    1.335   1_455 S
C727   H871    1.086   1_455 S
C728   C731    1.460   .     S
C728   C909    1.354   .     S
C728   C918    1.454   .     S
C729   C730    1.430   .     S
C730   O775    1.274   .     A
C730   O769    1.273   .     A
C731   O776    1.275   .     A
C731   O770    1.268   .     A
C732   C737    1.384   .     A
C732   H755    1.083   .     S
C732   C741    1.387   .     A
C733   C736    1.454   .     S
C733   O765    1.270   .     A
C733   O767    1.278   .     A
C734   O766    1.281   .     A
C734   O768    1.286   .     A
C737   H753    1.084   .     S
C738   N759    1.157   .     T
C739   N760    1.158   .     T
C739   C909    1.450   .     S
C740   N762    1.158   .     T
C741   C742    1.416   .     A
C741   H214    1.078   1_556 S
C742   C743    1.425   .     A
C742   C204    1.426   1_556 S
C743   C747    1.423   .     A
C745   C746    1.397   .     A
C745   C204    1.423   1_556 S
C745   C195    1.408   1_556 S
C746   H752    1.084   .     S
C746   C747    1.388   .     A
C747   N763    1.438   .     S
H749   N763    1.044   .     S
H750   N763    1.044   .     S
H751   C787    1.086   .     S
H756   C846    1.088   1_455 S
H758   N761    1.046   .     S
N761   C195    1.434   1_556 S
N761   H217    1.046   1_556 S
O764   Zn777   1.969   .     S
O764   Zn780   1.933   .     S
O764   Zn779   1.942   .     S
O764   Zn778   1.942   .     S
O765   Zn778   1.936   .     S
O766   Zn780   1.946   .     S
O767   Zn779   1.936   .     S
O768   Zn777   1.928   .     S
O769   Zn777   1.939   .     S
O770   Zn780   1.946   .     S
O771   Zn778   1.924   .     S
O772   Zn779   1.935   .     S
O773   Zn780   1.929   .     S
O774   Zn777   1.921   .     S
O775   Zn778   1.952   .     S
O776   Zn779   1.942   .     S
C781   O831    1.270   .     A
C781   O833    1.270   .     A
C781   C787    1.437   .     S
C782   C796    1.405   .     A
C782   C804    1.422   .     A
C782   C800    1.454   .     S
C783   H808    1.085   .     S
C783   C795    1.392   .     A
C783   C796    1.394   .     A
C784   O832    1.288   .     A
C784   C786    1.455   .     S
C784   O834    1.284   .     A
C785   C803    1.420   .     A
C785   C794    1.466   .     S
C785   C797    1.403   .     A
C786   C847    1.335   .     S
C786   H876    1.088   .     S
C788   C791    1.460   .     S
C788   C969    1.354   .     S
C788   C978    1.454   .     S
C789   C790    1.430   .     S
C790   O835    1.274   .     A
C790   O829    1.273   .     A
C791   O836    1.275   .     A
C791   O830    1.268   .     A
C792   C797    1.384   .     A
C792   H815    1.083   .     S
C792   C801    1.387   .     A
C793   C796    1.454   .     S
C793   O825    1.270   .     A
C793   O827    1.278   .     A
C794   O826    1.281   .     A
C794   O828    1.286   .     A
C797   H813    1.084   .     S
C798   N819    1.157   .     T
C799   N820    1.158   .     T
C799   C969    1.450   .     S
C800   N822    1.158   .     T
C801   C802    1.416   .     A
C801   H274    1.078   1_556 S
C802   C803    1.425   .     A
C802   C264    1.426   1_556 S
C803   C807    1.423   .     A
C805   C806    1.397   .     A
C805   C264    1.423   1_556 S
C805   C255    1.408   1_556 S
C806   H812    1.084   .     S
C806   C807    1.388   .     A
C807   N823    1.438   .     S
H809   N823    1.044   .     S
H810   N823    1.044   .     S
H811   C847    1.086   .     S
H818   N821    1.046   .     S
N821   C255    1.434   1_556 S
N821   H277    1.046   1_556 S
O824   Zn837   1.969   .     S
O824   Zn840   1.933   .     S
O824   Zn839   1.942   .     S
O824   Zn838   1.942   .     S
O825   Zn838   1.936   .     S
O826   Zn840   1.946   .     S
O827   Zn839   1.936   .     S
O828   Zn837   1.928   .     S
O829   Zn837   1.939   .     S
O830   Zn840   1.946   .     S
O831   Zn838   1.924   .     S
O832   Zn839   1.935   .     S
O833   Zn840   1.929   .     S
O834   Zn837   1.921   .     S
O835   Zn838   1.952   .     S
O836   Zn839   1.942   .     S
C841   O891    1.270   .     A
C841   O893    1.270   .     A
C841   C847    1.437   .     S
C842   C856    1.405   .     A
C842   C864    1.422   .     A
C842   C860    1.454   .     S
C843   H868    1.085   .     S
C843   C855    1.392   .     A
C843   C856    1.394   .     A
C844   O892    1.288   .     A
C844   C846    1.455   .     S
C844   O894    1.284   .     A
C845   C863    1.420   .     A
C845   C854    1.466   .     S
C845   C857    1.403   .     A
C846   C727    1.335   1_655 S
C846   H756    1.088   1_655 S
C848   C851    1.460   .     S
C848   C1029   1.354   .     S
C848   C1038   1.454   .     S
C849   C850    1.430   .     S
C850   O895    1.274   .     A
C850   O889    1.273   .     A
C851   O896    1.275   .     A
C851   O890    1.268   .     A
C852   C857    1.384   .     A
C852   H875    1.083   .     S
C852   C861    1.387   .     A
C853   C856    1.454   .     S
C853   O885    1.270   .     A
C853   O887    1.278   .     A
C854   O886    1.281   .     A
C854   O888    1.286   .     A
C857   H873    1.084   .     S
C858   N879    1.157   .     T
C859   N880    1.158   .     T
C859   C1029   1.450   .     S
C860   N882    1.158   .     T
C861   C862    1.416   .     A
C861   H334    1.078   1_556 S
C862   C863    1.425   .     A
C862   C324    1.426   1_556 S
C863   C867    1.423   .     A
C865   C866    1.397   .     A
C865   C324    1.423   1_556 S
C865   C315    1.408   1_556 S
C866   H872    1.084   .     S
C866   C867    1.388   .     A
C867   N883    1.438   .     S
H869   N883    1.044   .     S
H870   N883    1.044   .     S
H871   C727    1.086   1_655 S
H878   N881    1.046   .     S
N881   C315    1.434   1_556 S
N881   H337    1.046   1_556 S
O884   Zn897   1.969   .     S
O884   Zn900   1.933   .     S
O884   Zn899   1.942   .     S
O884   Zn898   1.942   .     S
O885   Zn898   1.936   .     S
O886   Zn900   1.946   .     S
O887   Zn899   1.936   .     S
O888   Zn897   1.928   .     S
O889   Zn897   1.939   .     S
O890   Zn900   1.946   .     S
O891   Zn898   1.924   .     S
O892   Zn899   1.935   .     S
O893   Zn900   1.929   .     S
O894   Zn897   1.921   .     S
O895   Zn898   1.952   .     S
O896   Zn899   1.942   .     S
C901   O951    1.270   .     A
C901   O953    1.270   .     A
C901   C907    1.437   .     S
C902   C916    1.405   .     A
C902   C924    1.422   .     A
C902   C920    1.454   .     S
C903   H928    1.085   .     S
C903   C915    1.392   .     A
C903   C916    1.394   .     A
C904   O952    1.288   .     A
C904   C906    1.455   .     S
C904   O954    1.284   .     A
C905   C923    1.420   .     A
C905   C914    1.466   .     S
C905   C917    1.403   .     A
C906   C967    1.335   .     S
C906   H996    1.088   .     S
C907   C1026   1.335   1_455 S
C907   H1051   1.086   1_455 S
C908   C911    1.460   .     S
C908   C549    1.354   1_565 S
C908   C558    1.454   1_565 S
C909   C910    1.430   .     S
C910   O955    1.274   .     A
C910   O949    1.273   .     A
C911   O956    1.275   .     A
C911   O950    1.268   .     A
C912   C917    1.384   .     A
C912   H935    1.083   .     S
C912   C921    1.387   .     A
C913   C916    1.454   .     S
C913   O945    1.270   .     A
C913   O947    1.278   .     A
C914   O946    1.281   .     A
C914   O948    1.286   .     A
C917   H933    1.084   .     S
C918   N939    1.157   .     T
C919   N940    1.158   .     T
C919   C549    1.450   1_565 S
C920   N942    1.158   .     T
C921   C922    1.416   .     A
C921   H394    1.078   1_556 S
C922   C923    1.425   .     A
C922   C384    1.426   1_556 S
C923   C927    1.423   .     A
C925   C926    1.397   .     A
C925   C384    1.423   1_556 S
C925   C375    1.408   1_556 S
C926   H932    1.084   .     S
C926   C927    1.388   .     A
C927   N943    1.438   .     S
H929   N943    1.044   .     S
H930   N943    1.044   .     S
H931   C967    1.086   .     S
H936   C1026   1.088   1_455 S
H938   N941    1.046   .     S
N941   C375    1.434   1_556 S
N941   H397    1.046   1_556 S
O944   Zn957   1.969   .     S
O944   Zn960   1.933   .     S
O944   Zn959   1.942   .     S
O944   Zn958   1.942   .     S
O945   Zn958   1.936   .     S
O946   Zn960   1.946   .     S
O947   Zn959   1.936   .     S
O948   Zn957   1.928   .     S
O949   Zn957   1.939   .     S
O950   Zn960   1.946   .     S
O951   Zn958   1.924   .     S
O952   Zn959   1.935   .     S
O953   Zn960   1.929   .     S
O954   Zn957   1.921   .     S
O955   Zn958   1.952   .     S
O956   Zn959   1.942   .     S
C961   O1011   1.270   .     A
C961   O1013   1.270   .     A
C961   C967    1.437   .     S
C962   C976    1.405   .     A
C962   C984    1.422   .     A
C962   C980    1.454   .     S
C963   H988    1.085   .     S
C963   C975    1.392   .     A
C963   C976    1.394   .     A
C964   O1012   1.288   .     A
C964   C966    1.455   .     S
C964   O1014   1.284   .     A
C965   C983    1.420   .     A
C965   C974    1.466   .     S
C965   C977    1.403   .     A
C966   C1027   1.335   .     S
C966   H1056   1.088   .     S
C968   C971    1.460   .     S
C968   C609    1.354   1_565 S
C968   C618    1.454   1_565 S
C969   C970    1.430   .     S
C970   O1015   1.274   .     A
C970   O1009   1.273   .     A
C971   O1016   1.275   .     A
C971   O1010   1.268   .     A
C972   C977    1.384   .     A
C972   H995    1.083   .     S
C972   C981    1.387   .     A
C973   C976    1.454   .     S
C973   O1005   1.270   .     A
C973   O1007   1.278   .     A
C974   O1006   1.281   .     A
C974   O1008   1.286   .     A
C977   H993    1.084   .     S
C978   N999    1.157   .     T
C979   N1000   1.158   .     T
C979   C609    1.450   1_565 S
C980   N1002   1.158   .     T
C981   C982    1.416   .     A
C981   H454    1.078   1_556 S
C982   C983    1.425   .     A
C982   C444    1.426   1_556 S
C983   C987    1.423   .     A
C985   C986    1.397   .     A
C985   C444    1.423   1_556 S
C985   C435    1.408   1_556 S
C986   H992    1.084   .     S
C986   C987    1.388   .     A
C987   N1003   1.438   .     S
H989   N1003   1.044   .     S
H990   N1003   1.044   .     S
H991   C1027   1.086   .     S
H998   N1001   1.046   .     S
N1001  C435    1.434   1_556 S
N1001  H457    1.046   1_556 S
O1004  Zn1017  1.969   .     S
O1004  Zn1020  1.933   .     S
O1004  Zn1019  1.942   .     S
O1004  Zn1018  1.942   .     S
O1005  Zn1018  1.936   .     S
O1006  Zn1020  1.946   .     S
O1007  Zn1019  1.936   .     S
O1008  Zn1017  1.928   .     S
O1009  Zn1017  1.939   .     S
O1010  Zn1020  1.946   .     S
O1011  Zn1018  1.924   .     S
O1012  Zn1019  1.935   .     S
O1013  Zn1020  1.929   .     S
O1014  Zn1017  1.921   .     S
O1015  Zn1018  1.952   .     S
O1016  Zn1019  1.942   .     S
C1021  O1071   1.270   .     A
C1021  O1073   1.270   .     A
C1021  C1027   1.437   .     S
C1022  C1036   1.405   .     A
C1022  C1044   1.422   .     A
C1022  C1040   1.454   .     S
C1023  H1048   1.085   .     S
C1023  C1035   1.392   .     A
C1023  C1036   1.394   .     A
C1024  O1072   1.288   .     A
C1024  C1026   1.455   .     S
C1024  O1074   1.284   .     A
C1025  C1043   1.420   .     A
C1025  C1034   1.466   .     S
C1025  C1037   1.403   .     A
C1026  C907    1.335   1_655 S
C1026  H936    1.088   1_655 S
C1028  C1031   1.460   .     S
C1028  C669    1.354   1_565 S
C1028  C678    1.454   1_565 S
C1029  C1030   1.430   .     S
C1030  O1075   1.274   .     A
C1030  O1069   1.273   .     A
C1031  O1076   1.275   .     A
C1031  O1070   1.268   .     A
C1032  C1037   1.384   .     A
C1032  H1055   1.083   .     S
C1032  C1041   1.387   .     A
C1033  C1036   1.454   .     S
C1033  O1065   1.270   .     A
C1033  O1067   1.278   .     A
C1034  O1066   1.281   .     A
C1034  O1068   1.286   .     A
C1037  H1053   1.084   .     S
C1038  N1059   1.157   .     T
C1039  N1060   1.158   .     T
C1039  C669    1.450   1_565 S
C1040  N1062   1.158   .     T
C1041  C1042   1.416   .     A
C1041  H514    1.078   1_556 S
C1042  C1043   1.425   .     A
C1042  C504    1.426   1_556 S
C1043  C1047   1.423   .     A
C1045  C1046   1.397   .     A
C1045  C504    1.423   1_556 S
C1045  C495    1.408   1_556 S
C1046  H1052   1.084   .     S
C1046  C1047   1.388   .     A
C1047  N1063   1.438   .     S
H1049  N1063   1.044   .     S
H1050  N1063   1.044   .     S
H1051  C907    1.086   1_655 S
H1058  N1061   1.046   .     S
N1061  C495    1.434   1_556 S
N1061  H517    1.046   1_556 S
O1064  Zn1077  1.969   .     S
O1064  Zn1080  1.933   .     S
O1064  Zn1079  1.942   .     S
O1064  Zn1078  1.942   .     S
O1065  Zn1078  1.936   .     S
O1066  Zn1080  1.946   .     S
O1067  Zn1079  1.936   .     S
O1068  Zn1077  1.928   .     S
O1069  Zn1077  1.939   .     S
O1070  Zn1080  1.946   .     S
O1071  Zn1078  1.924   .     S
O1072  Zn1079  1.935   .     S
O1073  Zn1080  1.929   .     S
O1074  Zn1077  1.921   .     S
O1075  Zn1078  1.952   .     S
O1076  Zn1079  1.942   .     S
