data_str_m1_o1_o2_pcu_sym.25
_audit_creation_date              2020-01-03
_audit_creation_method            'Materials Studio'
_symmetry_space_group_name_H-M    'P1'
_symmetry_Int_Tables_number       1
_symmetry_cell_setting            triclinic
loop_
_symmetry_equiv_pos_as_xyz
  x,y,z
_cell_length_a                    36.6245
_cell_length_b                    36.6243
_cell_length_c                    34.5016
_cell_angle_alpha                 89.9842
_cell_angle_beta                  89.9836
_cell_angle_gamma                 90.0067
loop_
_atom_site_label
_atom_site_type_symbol
_atom_site_fract_x
_atom_site_fract_y
_atom_site_fract_z
_atom_site_U_iso_or_equiv
_atom_site_adp_type
_atom_site_occupancy
C1     C     0.22142   0.01704   0.04172   0.00000  Uiso   1.00
C2     C     0.02952   0.26648   0.45842   0.00000  Uiso   1.00
C3     C     0.34803   0.40197   0.75000   0.00000  Uiso   1.00
C4     C     0.40197   0.15198   0.25000   0.00000  Uiso   1.00
C5     C     0.09803   0.34802   0.74999   0.00000  Uiso   1.00
C6     C     0.34803   0.40198   0.25000   0.00000  Uiso   1.00
C7     C     0.15197   0.09803   0.75000   0.00000  Uiso   1.00
C8     C     0.09802   0.15198   0.75000   0.00000  Uiso   1.00
C9     C     0.40197   0.34803   0.25000   0.00000  Uiso   1.00
C10    C     0.15197   0.40199   0.75000   0.00000  Uiso   1.00
C11    C     0.34803   0.09802   0.24999   0.00000  Uiso   1.00
C12    C     0.40198   0.34802   0.75000   0.00000  Uiso   1.00
C13    C     0.23077   0.47281   0.54185   0.00000  Uiso   1.00
C14    C     0.09803   0.15197   0.25000   0.00000  Uiso   1.00
C15    C     0.34801   0.09803   0.75000   0.00000  Uiso   1.00
C16    C     0.15198   0.40197   0.25002   0.00000  Uiso   1.00
C17    C     0.25012   0.00020   0.10239   0.00000  Uiso   1.00
C18    C     0.24985   0.00033   0.89754   0.00000  Uiso   1.00
C19    C     0.00032   0.24997   0.10241   0.00000  Uiso   1.00
C20    C     0.00038   0.24988   0.89748   0.00000  Uiso   1.00
C21    C     0.00016   0.25003   0.60249   0.00000  Uiso   1.00
C22    C     0.00003   0.25025   0.39764   0.00000  Uiso   1.00
C23    C     0.24977   0.00015   0.60246   0.00000  Uiso   1.00
C24    C     0.23205   0.02848   0.45839   0.00000  Uiso   1.00
C25    C     0.24956   0.49988   0.39761   0.00000  Uiso   1.00
C26    C     0.19828   0.07068   0.01985   0.00000  Uiso   1.00
C27    C     0.16903   0.08749   0.99416   0.00000  Uiso   1.00
C28    C     0.30670   0.07464   0.96767   0.00000  Uiso   1.00
C29    C     0.32528   0.09613   0.99980   0.00000  Uiso   1.00
C30    C     0.43631   0.19345   0.01448   0.00000  Uiso   1.00
C31    C     0.42110   0.15753   0.99939   0.00000  Uiso   1.00
C32    C     0.43013   0.29864   0.98486   0.00000  Uiso   1.00
C33    C     0.41142   0.33244   0.00100   0.00000  Uiso   1.00
C34    C     0.34190   0.47597   0.03317   0.00000  Uiso   1.00
C35    C     0.02826   0.23144   0.54161   0.00000  Uiso   1.00
C36    C     0.36914   0.46834   0.00089   0.00000  Uiso   1.00
C37    C     0.16051   0.46820   0.96676   0.00000  Uiso   1.00
C38    C     0.13406   0.45778   0.99891   0.00000  Uiso   1.00
C39    C     0.06894   0.30308   0.01831   0.00000  Uiso   1.00
C40    C     0.08530   0.33417   0.99479   0.00000  Uiso   1.00
C41    C     0.03668   0.16066   0.96441   0.00000  Uiso   1.00
C42    C     0.04775   0.13368   0.99581   0.00000  Uiso   1.00
C43    C     0.45599   0.32520   0.51985   0.00000  Uiso   1.00
C44    C     0.42904   0.34495   0.49370   0.00000  Uiso   1.00
C45    C     0.06438   0.31815   0.46766   0.00000  Uiso   1.00
C46    C     0.47097   0.23451   0.45853   0.00000  Uiso   1.00
C47    C     0.08495   0.33778   0.49977   0.00000  Uiso   1.00
C48    C     0.17550   0.45407   0.51986   0.00000  Uiso   1.00
C49    C     0.15638   0.42607   0.49444   0.00000  Uiso   1.00
C50    C     0.17976   0.06257   0.46753   0.00000  Uiso   1.00
C51    C     0.15974   0.08282   0.49961   0.00000  Uiso   1.00
C52    C     0.08926   0.21616   0.53381   0.00000  Uiso   1.00
C53    C     0.11570   0.20537   0.50178   0.00000  Uiso   1.00
C54    C     0.44769   0.18163   0.48209   0.00000  Uiso   1.00
C55    C     0.41712   0.16521   0.50633   0.00000  Uiso   1.00
C56    C     0.28065   0.09002   0.53337   0.00000  Uiso   1.00
C57    C     0.26750   0.02858   0.54143   0.00000  Uiso   1.00
C58    C     0.29032   0.11670   0.50117   0.00000  Uiso   1.00
C59    C     0.27458   0.40850   0.46707   0.00000  Uiso   1.00
C60    C     0.28274   0.38143   0.49936   0.00000  Uiso   1.00
C61    C     0.26555   0.47061   0.45866   0.00000  Uiso   1.00
C62    C     0.22115   0.01613   0.08213   0.00000  Uiso   1.00
C63    C     0.27747   0.01856   0.91770   0.00000  Uiso   1.00
C64    C     0.48691   0.21976   0.08205   0.00000  Uiso   1.00
C65    C     0.27706   0.01979   0.95831   0.00000  Uiso   1.00
C66    C     0.48329   0.27798   0.91795   0.00000  Uiso   1.00
C67    C     0.27920   0.48435   0.08210   0.00000  Uiso   1.00
C68    C     0.22212   0.48229   0.91781   0.00000  Uiso   1.00
C69    C     0.01449   0.27992   0.08216   0.00000  Uiso   1.00
C70    C     0.01846   0.22195   0.91740   0.00000  Uiso   1.00
C71    C     0.47283   0.26854   0.58216   0.00000  Uiso   1.00
C72    C     0.02972   0.26510   0.41779   0.00000  Uiso   1.00
C73    C     0.23179   0.47239   0.58225   0.00000  Uiso   1.00
C74    C     0.23330   0.02873   0.41777   0.00000  Uiso   1.00
C75    C     0.02768   0.23150   0.58236   0.00000  Uiso   1.00
C76    C     0.48644   0.21974   0.04164   0.00000  Uiso   1.00
C77    C     0.47044   0.23562   0.41810   0.00000  Uiso   1.00
C78    C     0.26756   0.02809   0.58219   0.00000  Uiso   1.00
C79    C     0.26557   0.47097   0.41794   0.00000  Uiso   1.00
C80    C     0.25018   0.00029   0.02127   0.00000  Uiso   1.00
C81    C     0.24989   0.00038   0.97859   0.00000  Uiso   1.00
C82    C     0.00141   0.24962   0.02122   0.00000  Uiso   1.00
C83    C     0.00142   0.24978   0.97854   0.00000  Uiso   1.00
C84    C     0.00055   0.25016   0.52143   0.00000  Uiso   1.00
C85    C     0.00043   0.25022   0.47877   0.00000  Uiso   1.00
C86    C     0.24952   0.00031   0.52138   0.00000  Uiso   1.00
C87    C     0.48300   0.27778   0.95832   0.00000  Uiso   1.00
C88    C     0.24942   0.49999   0.47869   0.00000  Uiso   1.00
C89    C     0.24999   0.49999   0.35523   0.00000  Uiso   1.00
C90    C     0.25002   0.00002   0.64480   0.00000  Uiso   1.00
C91    C    -0.00000   0.25002   0.35524   0.00000  Uiso   1.00
C92    C     0.00001   0.24996   0.64480   0.00000  Uiso   1.00
C93    C     0.00005   0.24999   0.85519   0.00000  Uiso   1.00
C94    C     0.00001   0.25000   0.14477   0.00000  Uiso   1.00
C95    C     0.24998   0.49999   0.85521   0.00000  Uiso   1.00
C96    C     0.25001   0.49998   0.14477   0.00000  Uiso   1.00
C97    C     0.18001   0.06998   0.25000   0.00000  Uiso   1.00
C98    C     0.27967   0.48443   0.04135   0.00000  Uiso   1.00
C99    C     0.31999   0.43001   0.75000   0.00000  Uiso   1.00
C100   C     0.43001   0.18002   0.25000   0.00000  Uiso   1.00
C101   C     0.06999   0.31999   0.75000   0.00000  Uiso   1.00
C102   C     0.31999   0.43001   0.25000   0.00000  Uiso   1.00
C103   C     0.18001   0.06999   0.75000   0.00000  Uiso   1.00
C104   C     0.06998   0.31999   0.25000   0.00000  Uiso   1.00
C105   C     0.43001   0.18001   0.75001   0.00000  Uiso   1.00
C106   C     0.18001   0.43002   0.75000   0.00000  Uiso   1.00
C107   C     0.31999   0.06999   0.24999   0.00000  Uiso   1.00
C108   C     0.43001   0.31999   0.75000   0.00000  Uiso   1.00
C109   C     0.22176   0.48218   0.95853   0.00000  Uiso   1.00
C110   C     0.06999   0.18001   0.25000   0.00000  Uiso   1.00
C111   C     0.31998   0.06999   0.75000   0.00000  Uiso   1.00
C112   C     0.18001   0.43001   0.25001   0.00000  Uiso   1.00
C113   C     0.06999   0.18001   0.75000   0.00000  Uiso   1.00
C114   C     0.43001   0.31999   0.25000   0.00000  Uiso   1.00
C115   C     0.14358   0.38331   0.21521   0.00000  Uiso   1.00
C116   C     0.35644   0.11666   0.78483   0.00000  Uiso   1.00
C117   C     0.11671   0.14357   0.21520   0.00000  Uiso   1.00
C118   C     0.38325   0.35638   0.78479   0.00000  Uiso   1.00
C119   C     0.35641   0.11674   0.21519   0.00000  Uiso   1.00
C120   C     0.01616   0.27946   0.04177   0.00000  Uiso   1.00
C121   C     0.14355   0.38331   0.78481   0.00000  Uiso   1.00
C122   C     0.38332   0.35645   0.21519   0.00000  Uiso   1.00
C123   C     0.11662   0.14349   0.78484   0.00000  Uiso   1.00
C124   C     0.14350   0.11663   0.78483   0.00000  Uiso   1.00
C125   C     0.35646   0.38333   0.21519   0.00000  Uiso   1.00
C126   C     0.11669   0.35642   0.78480   0.00000  Uiso   1.00
C127   C     0.38328   0.14361   0.21520   0.00000  Uiso   1.00
C128   C     0.35638   0.38324   0.78479   0.00000  Uiso   1.00
C129   C     0.14357   0.11670   0.21519   0.00000  Uiso   1.00
C130   C     0.38332   0.14353   0.78483   0.00000  Uiso   1.00
C131   C     0.01923   0.22152   0.95817   0.00000  Uiso   1.00
C132   C     0.11670   0.35645   0.21520   0.00000  Uiso   1.00
C133   C     0.39355   0.13333   0.71519   0.00000  Uiso   1.00
C134   C     0.10642   0.36668   0.28482   0.00000  Uiso   1.00
C135   C     0.36676   0.39362   0.71521   0.00000  Uiso   1.00
C136   C     0.13331   0.10643   0.28482   0.00000  Uiso   1.00
C137   C     0.10644   0.36671   0.71519   0.00000  Uiso   1.00
C138   C     0.39359   0.13327   0.28480   0.00000  Uiso   1.00
C139   C     0.13337   0.10650   0.71518   0.00000  Uiso   1.00
C140   C     0.36667   0.39355   0.28482   0.00000  Uiso   1.00
C141   C     0.39355   0.36668   0.28481   0.00000  Uiso   1.00
C142   C     0.47336   0.26947   0.54175   0.00000  Uiso   1.00
C143   C     0.10651   0.13338   0.71517   0.00000  Uiso   1.00
C144   C     0.36673   0.10638   0.28479   0.00000  Uiso   1.00
C145   C     0.13331   0.39358   0.71519   0.00000  Uiso   1.00
C146   C     0.10643   0.13329   0.28481   0.00000  Uiso   1.00
C147   C     0.39362   0.36675   0.71520   0.00000  Uiso   1.00
C148   C     0.13329   0.39356   0.28482   0.00000  Uiso   1.00
C149   C     0.36667   0.10648   0.71518   0.00000  Uiso   1.00
C150   C     0.09801   0.34803   0.25001   0.00000  Uiso   1.00
C151   C     0.40198   0.15197   0.75001   0.00000  Uiso   1.00
C152   C     0.15198   0.09802   0.25001   0.00000  Uiso   1.00
H153   H     0.19851   0.02840   0.09761   0.00000  Uiso   1.00
H154   H     0.05276   0.27602   0.40192   0.00000  Uiso   1.00
H155   H     0.40179   0.31469   0.81454   0.00000  Uiso   1.00
H156   H     0.31472   0.09823   0.18546   0.00000  Uiso   1.00
H157   H     0.18519   0.40186   0.81460   0.00000  Uiso   1.00
H158   H     0.40181   0.31476   0.18544   0.00000  Uiso   1.00
H159   H     0.09806   0.18511   0.81465   0.00000  Uiso   1.00
H160   H     0.18516   0.09813   0.81461   0.00000  Uiso   1.00
H161   H     0.31481   0.40188   0.18541   0.00000  Uiso   1.00
H162   H     0.09821   0.31470   0.81454   0.00000  Uiso   1.00
H163   H     0.40182   0.18531   0.18545   0.00000  Uiso   1.00
H164   H     0.31466   0.40173   0.81451   0.00000  Uiso   1.00
H165   H     0.21797   0.45069   0.59778   0.00000  Uiso   1.00
H166   H     0.18524   0.09816   0.18542   0.00000  Uiso   1.00
H167   H     0.40182   0.18520   0.81459   0.00000  Uiso   1.00
H168   H     0.09816   0.31479   0.18543   0.00000  Uiso   1.00
H169   H     0.43526   0.15181   0.68545   0.00000  Uiso   1.00
H170   H     0.06475   0.34812   0.31460   0.00000  Uiso   1.00
H171   H     0.34827   0.43534   0.68549   0.00000  Uiso   1.00
H172   H     0.15186   0.06478   0.31461   0.00000  Uiso   1.00
H173   H     0.06476   0.34821   0.68544   0.00000  Uiso   1.00
H174   H     0.43525   0.15181   0.31456   0.00000  Uiso   1.00
H175   H     0.15186   0.06483   0.68540   0.00000  Uiso   1.00
H176   H     0.22147   0.05131   0.40188   0.00000  Uiso   1.00
H177   H     0.34812   0.43520   0.31459   0.00000  Uiso   1.00
H178   H     0.43523   0.34819   0.31456   0.00000  Uiso   1.00
H179   H     0.06488   0.15193   0.68536   0.00000  Uiso   1.00
H180   H     0.34824   0.06465   0.31450   0.00000  Uiso   1.00
H181   H     0.15185   0.43527   0.68543   0.00000  Uiso   1.00
H182   H     0.06473   0.15178   0.31456   0.00000  Uiso   1.00
H183   H     0.43531   0.34821   0.68546   0.00000  Uiso   1.00
H184   H     0.15181   0.43523   0.31458   0.00000  Uiso   1.00
H185   H     0.34812   0.06484   0.68539   0.00000  Uiso   1.00
H186   H     0.04782   0.21614   0.59850   0.00000  Uiso   1.00
H187   H     0.44733   0.22410   0.40279   0.00000  Uiso   1.00
H188   H     0.28245   0.04867   0.59820   0.00000  Uiso   1.00
H189   H     0.27920   0.44947   0.40202   0.00000  Uiso   1.00
H190   H     0.22543   0.07712   0.00691   0.00000  Uiso   1.00
H191   H     0.19636   0.08330   0.04915   0.00000  Uiso   1.00
H192   H     0.14154   0.08203   0.00648   0.00000  Uiso   1.00
H193   H     0.29914   0.03200   0.90182   0.00000  Uiso   1.00
H194   H     0.17318   0.11747   0.99221   0.00000  Uiso   1.00
H195   H     0.17061   0.07560   0.96458   0.00000  Uiso   1.00
H196   H     0.27932   0.08710   0.96249   0.00000  Uiso   1.00
H197   H     0.32358   0.07715   0.94101   0.00000  Uiso   1.00
H198   H     0.35309   0.08511   0.00512   0.00000  Uiso   1.00
H199   H     0.32754   0.12529   0.99131   0.00000  Uiso   1.00
H200   H     0.30904   0.09414   0.02692   0.00000  Uiso   1.00
H201   H     0.43229   0.21446   0.99163   0.00000  Uiso   1.00
H202   H     0.42063   0.20117   0.04096   0.00000  Uiso   1.00
H203   H     0.42437   0.13585   0.02162   0.00000  Uiso   1.00
H204   H     0.47614   0.19632   0.09744   0.00000  Uiso   1.00
H205   H     0.39163   0.16068   0.99262   0.00000  Uiso   1.00
H206   H     0.43580   0.14932   0.97261   0.00000  Uiso   1.00
H207   H     0.42776   0.27656   0.00682   0.00000  Uiso   1.00
H208   H     0.41564   0.29043   0.95780   0.00000  Uiso   1.00
H209   H     0.41302   0.35511   0.97968   0.00000  Uiso   1.00
H210   H     0.38226   0.32635   0.00703   0.00000  Uiso   1.00
H211   H     0.42487   0.34101   0.02838   0.00000  Uiso   1.00
H212   H     0.34963   0.45906   0.05864   0.00000  Uiso   1.00
H213   H     0.34396   0.00551   0.04081   0.00000  Uiso   1.00
H214   H     0.36228   0.48489   0.97491   0.00000  Uiso   1.00
H215   H     0.46971   0.29997   0.90264   0.00000  Uiso   1.00
H216   H     0.39711   0.47556   0.01067   0.00000  Uiso   1.00
H217   H     0.36850   0.43893   0.99306   0.00000  Uiso   1.00
H218   H     0.15437   0.45089   0.94113   0.00000  Uiso   1.00
H219   H     0.15578   0.49750   0.95942   0.00000  Uiso   1.00
H220   H     0.10556   0.46251   0.98917   0.00000  Uiso   1.00
H221   H     0.13737   0.42847   0.00642   0.00000  Uiso   1.00
H222   H     0.13937   0.47461   0.02509   0.00000  Uiso   1.00
H223   H     0.07462   0.27702   0.00272   0.00000  Uiso   1.00
H224   H     0.08254   0.30249   0.04719   0.00000  Uiso   1.00
H225   H     0.08061   0.36059   0.00979   0.00000  Uiso   1.00
H226   H     0.30080   0.47094   0.09807   0.00000  Uiso   1.00
H227   H     0.11515   0.32990   0.99138   0.00000  Uiso   1.00
H228   H     0.07249   0.33515   0.96563   0.00000  Uiso   1.00
H229   H     0.05535   0.15672   0.93935   0.00000  Uiso   1.00
H230   H     0.00805   0.15432   0.95564   0.00000  Uiso   1.00
H231   H     0.02964   0.13667   0.02143   0.00000  Uiso   1.00
H232   H     0.04544   0.10535   0.98460   0.00000  Uiso   1.00
H233   H     0.07645   0.13870   0.00475   0.00000  Uiso   1.00
H234   H     0.48385   0.32882   0.50736   0.00000  Uiso   1.00
H235   H     0.45497   0.33795   0.54913   0.00000  Uiso   1.00
H236   H     0.40096   0.34240   0.50556   0.00000  Uiso   1.00
H237   H     0.20167   0.46722   0.90179   0.00000  Uiso   1.00
H238   H     0.43634   0.37433   0.49187   0.00000  Uiso   1.00
H239   H     0.42982   0.33298   0.46413   0.00000  Uiso   1.00
H240   H     0.03833   0.33318   0.46250   0.00000  Uiso   1.00
H241   H     0.08139   0.31901   0.44099   0.00000  Uiso   1.00
H242   H     0.11152   0.32408   0.50518   0.00000  Uiso   1.00
H243   H     0.09009   0.36655   0.49120   0.00000  Uiso   1.00
H244   H     0.06855   0.33747   0.52686   0.00000  Uiso   1.00
H245   H     0.17137   0.48153   0.50661   0.00000  Uiso   1.00
H246   H     0.16269   0.45349   0.54914   0.00000  Uiso   1.00
H247   H     0.15947   0.39835   0.50710   0.00000  Uiso   1.00
H248   H     0.02525   0.30331   0.09763   0.00000  Uiso   1.00
H249   H     0.12686   0.43269   0.49234   0.00000  Uiso   1.00
H250   H     0.16843   0.42633   0.46489   0.00000  Uiso   1.00
H251   H     0.16508   0.03635   0.46218   0.00000  Uiso   1.00
H252   H     0.17886   0.07969   0.44094   0.00000  Uiso   1.00
H253   H     0.13100   0.08783   0.49085   0.00000  Uiso   1.00
H254   H     0.15997   0.06628   0.52660   0.00000  Uiso   1.00
H255   H     0.17323   0.10946   0.50528   0.00000  Uiso   1.00
H256   H     0.09483   0.19854   0.55936   0.00000  Uiso   1.00
H257   H     0.09460   0.24530   0.54139   0.00000  Uiso   1.00
H258   H     0.11096   0.22251   0.47570   0.00000  Uiso   1.00
H259   H     0.03302   0.20145   0.90097   0.00000  Uiso   1.00
H260   H     0.14423   0.20938   0.51179   0.00000  Uiso   1.00
H261   H     0.11177   0.17620   0.49402   0.00000  Uiso   1.00
H262   H     0.47408   0.17588   0.49700   0.00000  Uiso   1.00
H263   H     0.44761   0.16813   0.45316   0.00000  Uiso   1.00
H264   H     0.39038   0.16997   0.49202   0.00000  Uiso   1.00
H265   H     0.42144   0.13535   0.50952   0.00000  Uiso   1.00
H266   H     0.41681   0.17793   0.53556   0.00000  Uiso   1.00
H267   H     0.29814   0.09634   0.55882   0.00000  Uiso   1.00
H268   H     0.25136   0.09432   0.54108   0.00000  Uiso   1.00
H269   H     0.28530   0.14511   0.51106   0.00000  Uiso   1.00
H270   H     0.45142   0.28288   0.59761   0.00000  Uiso   1.00
H271   H     0.31959   0.11383   0.49327   0.00000  Uiso   1.00
H272   H     0.27327   0.11122   0.47520   0.00000  Uiso   1.00
H273   H     0.29134   0.40085   0.44148   0.00000  Uiso   1.00
H274   H     0.24499   0.40615   0.45972   0.00000  Uiso   1.00
H275   H     0.26636   0.38821   0.52549   0.00000  Uiso   1.00
H276   H     0.27570   0.35337   0.48975   0.00000  Uiso   1.00
H277   H     0.31221   0.38238   0.50691   0.00000  Uiso   1.00
H278   H     0.18531   0.40178   0.18547   0.00000  Uiso   1.00
H279   H     0.31478   0.09810   0.81461   0.00000  Uiso   1.00
H280   H     0.09822   0.18527   0.18545   0.00000  Uiso   1.00
O281   O     0.25000  -0.00000   0.25000   0.00000  Uiso   1.00
O282   O     0.25000   0.46964   0.66317   0.00000  Uiso   1.00
O283   O     0.36048   0.08840   0.68056   0.00000  Uiso   1.00
O284   O     0.46964   0.25000   0.33683   0.00000  Uiso   1.00
O285   O     0.03036   0.25000   0.66317   0.00000  Uiso   1.00
O286   O     0.00000   0.21964   0.83683   0.00000  Uiso   1.00
O287   O     0.00000   0.28036   0.16317   0.00000  Uiso   1.00
O288   O     0.28036  -0.00000   0.83683   0.00000  Uiso   1.00
O289   O     0.21964  -0.00000   0.16317   0.00000  Uiso   1.00
O290   O    -0.00000   0.28036   0.83683   0.00000  Uiso   1.00
O291   O     0.00000   0.21964   0.16317   0.00000  Uiso   1.00
O292   O     0.21964  -0.00000   0.83683   0.00000  Uiso   1.00
O293   O     0.25000  -0.00000   0.75000   0.00000  Uiso   1.00
O294   O     0.28036  -0.00000   0.16317   0.00000  Uiso   1.00
O295   O     0.20725   0.07307   0.27282   0.00000  Uiso   1.00
O296   O     0.29274   0.42693   0.72718   0.00000  Uiso   1.00
O297   O     0.42693   0.20725   0.27282   0.00000  Uiso   1.00
O298   O     0.07307   0.29274   0.72718   0.00000  Uiso   1.00
O299   O     0.29274   0.42693   0.27282   0.00000  Uiso   1.00
O300   O     0.20725   0.07307   0.72718   0.00000  Uiso   1.00
O301   O     0.07307   0.29274   0.27282   0.00000  Uiso   1.00
O302   O     0.42693   0.20725   0.72718   0.00000  Uiso   1.00
O303   O     0.20725   0.42693   0.72718   0.00000  Uiso   1.00
O304   O     0.00000   0.25000   0.25000   0.00000  Uiso   1.00
O305   O     0.29274   0.07307   0.27282   0.00000  Uiso   1.00
O306   O     0.42693   0.29274   0.72718   0.00000  Uiso   1.00
O307   O     0.07307   0.20725   0.27282   0.00000  Uiso   1.00
O308   O     0.29274   0.07307   0.72718   0.00000  Uiso   1.00
O309   O     0.20725   0.42693   0.27282   0.00000  Uiso   1.00
O310   O     0.07307   0.20725   0.72718   0.00000  Uiso   1.00
O311   O     0.42693   0.29274   0.27282   0.00000  Uiso   1.00
O312   O     0.45725   0.32307   0.77282   0.00000  Uiso   1.00
O313   O     0.04274   0.17693   0.22718   0.00000  Uiso   1.00
O314   O     0.17693   0.45725   0.77282   0.00000  Uiso   1.00
O315   O     0.00000   0.25000   0.75000   0.00000  Uiso   1.00
O316   O     0.32307   0.04274   0.22718   0.00000  Uiso   1.00
O317   O     0.04274   0.17693   0.77282   0.00000  Uiso   1.00
O318   O     0.45725   0.32307   0.22718   0.00000  Uiso   1.00
O319   O     0.32307   0.04274   0.77282   0.00000  Uiso   1.00
O320   O     0.17693   0.45725   0.22718   0.00000  Uiso   1.00
O321   O     0.45725   0.17693   0.22718   0.00000  Uiso   1.00
O322   O     0.04274   0.32307   0.77282   0.00000  Uiso   1.00
O323   O     0.17693   0.04274   0.22718   0.00000  Uiso   1.00
O324   O     0.32307   0.45725   0.77282   0.00000  Uiso   1.00
O325   O     0.04274   0.32307   0.22718   0.00000  Uiso   1.00
O326   O     0.25000   0.46964   0.33683   0.00000  Uiso   1.00
O327   O     0.45725   0.17693   0.77282   0.00000  Uiso   1.00
O328   O     0.32307   0.45725   0.22718   0.00000  Uiso   1.00
O329   O     0.17693   0.04274   0.77282   0.00000  Uiso   1.00
O330   O     0.19251   0.03266   0.02205   0.00000  Uiso   1.00
O331   O     0.30420   0.03765   0.97901   0.00000  Uiso   1.00
O332   O     0.47382   0.18909   0.02247   0.00000  Uiso   1.00
O333   O     0.46718   0.30676   0.97775   0.00000  Uiso   1.00
O334   O     0.30653   0.46633   0.02030   0.00000  Uiso   1.00
O335   O     0.19661   0.46176   0.97960   0.00000  Uiso   1.00
O336   O     0.03106   0.30894   0.02239   0.00000  Uiso   1.00
O337   O     0.25000   0.03036   0.66317   0.00000  Uiso   1.00
O338   O     0.04015   0.19655   0.97903   0.00000  Uiso   1.00
O339   O     0.44629   0.28796   0.52193   0.00000  Uiso   1.00
O340   O     0.05837   0.28156   0.47901   0.00000  Uiso   1.00
O341   O     0.21291   0.44520   0.52223   0.00000  Uiso   1.00
O342   O     0.21634   0.05693   0.47910   0.00000  Uiso   1.00
O343   O     0.05313   0.21061   0.52064   0.00000  Uiso   1.00
O344   O     0.44177   0.21953   0.47830   0.00000  Uiso   1.00
O345   O     0.28749   0.05406   0.52035   0.00000  Uiso   1.00
O346   O     0.28398   0.44400   0.47973   0.00000  Uiso   1.00
O347   O     0.16173   0.38947   0.18061   0.00000  Uiso   1.00
O348   O     0.03036   0.25000   0.33683   0.00000  Uiso   1.00
O349   O     0.33834   0.11046   0.81945   0.00000  Uiso   1.00
O350   O     0.11056   0.16171   0.18059   0.00000  Uiso   1.00
O351   O     0.38936   0.33821   0.81939   0.00000  Uiso   1.00
O352   O     0.33826   0.11062   0.18060   0.00000  Uiso   1.00
O353   O     0.16165   0.38947   0.81943   0.00000  Uiso   1.00
O354   O     0.38949   0.33833   0.18058   0.00000  Uiso   1.00
O355   O     0.11038   0.16154   0.81947   0.00000  Uiso   1.00
O356   O     0.16157   0.11041   0.81946   0.00000  Uiso   1.00
O357   O     0.33836   0.38951   0.18057   0.00000  Uiso   1.00
O358   O     0.11053   0.33827   0.81940   0.00000  Uiso   1.00
O359   O     0.46964   0.25000   0.66317   0.00000  Uiso   1.00
O360   O     0.38943   0.16178   0.18060   0.00000  Uiso   1.00
O361   O     0.33819   0.38934   0.81938   0.00000  Uiso   1.00
O362   O     0.16170   0.11054   0.18058   0.00000  Uiso   1.00
O363   O     0.38949   0.16163   0.81944   0.00000  Uiso   1.00
O364   O     0.11054   0.33834   0.18059   0.00000  Uiso   1.00
O365   O     0.41168   0.13952   0.68058   0.00000  Uiso   1.00
O366   O     0.08829   0.36050   0.31944   0.00000  Uiso   1.00
O367   O     0.36066   0.41181   0.68062   0.00000  Uiso   1.00
O368   O     0.13947   0.08832   0.31944   0.00000  Uiso   1.00
O369   O     0.08832   0.36056   0.68058   0.00000  Uiso   1.00
O370   O     0.25000   0.03036   0.33683   0.00000  Uiso   1.00
O371   O     0.41173   0.13939   0.31940   0.00000  Uiso   1.00
O372   O     0.13958   0.08843   0.68055   0.00000  Uiso   1.00
O373   O     0.36049   0.41165   0.31943   0.00000  Uiso   1.00
O374   O     0.41167   0.36051   0.31942   0.00000  Uiso   1.00
O375   O     0.08846   0.13961   0.68054   0.00000  Uiso   1.00
O376   O     0.36060   0.08820   0.31938   0.00000  Uiso   1.00
O377   O     0.13949   0.41172   0.68058   0.00000  Uiso   1.00
O378   O     0.08829   0.13944   0.31942   0.00000  Uiso   1.00
O379   O     0.41180   0.36064   0.68061   0.00000  Uiso   1.00
O380   O     0.13944   0.41168   0.31943   0.00000  Uiso   1.00
Zn381  Zn    0.20660  -0.00000   0.21760   0.00000  Uiso   1.00
Zn382  Zn    0.04340   0.25000   0.28240   0.00000  Uiso   1.00
Zn383  Zn    0.25000   0.45660   0.71760   0.00000  Uiso   1.00
Zn384  Zn    0.25000   0.04340   0.28240   0.00000  Uiso   1.00
Zn385  Zn    0.04340   0.25000   0.71760   0.00000  Uiso   1.00
Zn386  Zn    0.45660   0.25000   0.28240   0.00000  Uiso   1.00
Zn387  Zn    0.25000   0.04340   0.71760   0.00000  Uiso   1.00
Zn388  Zn    0.25000   0.45660   0.28240   0.00000  Uiso   1.00
Zn389  Zn    0.29340  -0.00000   0.78240   0.00000  Uiso   1.00
Zn390  Zn    0.00000   0.20660   0.21760   0.00000  Uiso   1.00
Zn391  Zn    0.00000   0.29340   0.78240   0.00000  Uiso   1.00
Zn392  Zn    0.29340  -0.00000   0.21760   0.00000  Uiso   1.00
Zn393  Zn    0.20660  -0.00000   0.78240   0.00000  Uiso   1.00
Zn394  Zn   -0.00000   0.29340   0.21760   0.00000  Uiso   1.00
Zn395  Zn    0.00000   0.20660   0.78240   0.00000  Uiso   1.00
Zn396  Zn    0.45660   0.25000   0.71760   0.00000  Uiso   1.00
C397   C     0.72142   0.01704   0.04172   0.00000  Uiso   1.00
C398   C     0.52952   0.26648   0.45842   0.00000  Uiso   1.00
C399   C     0.84803   0.40197   0.75000   0.00000  Uiso   1.00
C400   C     0.90197   0.15198   0.25000   0.00000  Uiso   1.00
C401   C     0.59803   0.34802   0.74999   0.00000  Uiso   1.00
C402   C     0.84803   0.40198   0.25000   0.00000  Uiso   1.00
C403   C     0.65197   0.09803   0.75000   0.00000  Uiso   1.00
C404   C     0.59802   0.15198   0.75000   0.00000  Uiso   1.00
C405   C     0.90197   0.34803   0.25000   0.00000  Uiso   1.00
C406   C     0.65197   0.40199   0.75000   0.00000  Uiso   1.00
C407   C     0.84803   0.09802   0.24999   0.00000  Uiso   1.00
C408   C     0.90198   0.34802   0.75000   0.00000  Uiso   1.00
C409   C     0.73077   0.47281   0.54185   0.00000  Uiso   1.00
C410   C     0.59803   0.15197   0.25000   0.00000  Uiso   1.00
C411   C     0.84801   0.09803   0.75000   0.00000  Uiso   1.00
C412   C     0.65198   0.40197   0.25002   0.00000  Uiso   1.00
C413   C     0.75012   0.00020   0.10239   0.00000  Uiso   1.00
C414   C     0.74985   0.00033   0.89754   0.00000  Uiso   1.00
C415   C     0.50032   0.24997   0.10241   0.00000  Uiso   1.00
C416   C     0.50038   0.24988   0.89748   0.00000  Uiso   1.00
C417   C     0.50016   0.25003   0.60249   0.00000  Uiso   1.00
C418   C     0.50003   0.25025   0.39764   0.00000  Uiso   1.00
C419   C     0.74977   0.00015   0.60246   0.00000  Uiso   1.00
C420   C     0.73205   0.02848   0.45839   0.00000  Uiso   1.00
C421   C     0.74956   0.49988   0.39761   0.00000  Uiso   1.00
C422   C     0.69828   0.07068   0.01985   0.00000  Uiso   1.00
C423   C     0.66903   0.08749   0.99416   0.00000  Uiso   1.00
C424   C     0.80670   0.07464   0.96767   0.00000  Uiso   1.00
C425   C     0.82528   0.09613   0.99980   0.00000  Uiso   1.00
C426   C     0.93631   0.19345   0.01448   0.00000  Uiso   1.00
C427   C     0.92110   0.15753   0.99939   0.00000  Uiso   1.00
C428   C     0.93013   0.29864   0.98486   0.00000  Uiso   1.00
C429   C     0.91142   0.33244   0.00100   0.00000  Uiso   1.00
C430   C     0.84190   0.47597   0.03317   0.00000  Uiso   1.00
C431   C     0.52826   0.23144   0.54161   0.00000  Uiso   1.00
C432   C     0.86914   0.46834   0.00089   0.00000  Uiso   1.00
C433   C     0.66051   0.46820   0.96676   0.00000  Uiso   1.00
C434   C     0.63406   0.45778   0.99891   0.00000  Uiso   1.00
C435   C     0.56894   0.30308   0.01831   0.00000  Uiso   1.00
C436   C     0.58530   0.33417   0.99479   0.00000  Uiso   1.00
C437   C     0.53668   0.16066   0.96441   0.00000  Uiso   1.00
C438   C     0.54775   0.13368   0.99581   0.00000  Uiso   1.00
C439   C     0.95599   0.32520   0.51985   0.00000  Uiso   1.00
C440   C     0.92904   0.34495   0.49370   0.00000  Uiso   1.00
C441   C     0.56438   0.31815   0.46766   0.00000  Uiso   1.00
C442   C     0.97097   0.23451   0.45853   0.00000  Uiso   1.00
C443   C     0.58495   0.33778   0.49977   0.00000  Uiso   1.00
C444   C     0.67550   0.45407   0.51986   0.00000  Uiso   1.00
C445   C     0.65638   0.42607   0.49444   0.00000  Uiso   1.00
C446   C     0.67976   0.06257   0.46753   0.00000  Uiso   1.00
C447   C     0.65974   0.08282   0.49961   0.00000  Uiso   1.00
C448   C     0.58926   0.21616   0.53381   0.00000  Uiso   1.00
C449   C     0.61570   0.20537   0.50178   0.00000  Uiso   1.00
C450   C     0.94769   0.18163   0.48209   0.00000  Uiso   1.00
C451   C     0.91712   0.16521   0.50633   0.00000  Uiso   1.00
C452   C     0.78065   0.09002   0.53337   0.00000  Uiso   1.00
C453   C     0.76750   0.02858   0.54143   0.00000  Uiso   1.00
C454   C     0.79032   0.11670   0.50117   0.00000  Uiso   1.00
C455   C     0.77458   0.40850   0.46707   0.00000  Uiso   1.00
C456   C     0.78274   0.38143   0.49936   0.00000  Uiso   1.00
C457   C     0.76555   0.47061   0.45866   0.00000  Uiso   1.00
C458   C     0.72115   0.01613   0.08213   0.00000  Uiso   1.00
C459   C     0.77747   0.01856   0.91770   0.00000  Uiso   1.00
C460   C     0.98691   0.21976   0.08205   0.00000  Uiso   1.00
C461   C     0.77706   0.01979   0.95831   0.00000  Uiso   1.00
C462   C     0.98329   0.27798   0.91795   0.00000  Uiso   1.00
C463   C     0.77920   0.48435   0.08210   0.00000  Uiso   1.00
C464   C     0.72212   0.48229   0.91781   0.00000  Uiso   1.00
C465   C     0.51449   0.27992   0.08216   0.00000  Uiso   1.00
C466   C     0.51846   0.22195   0.91740   0.00000  Uiso   1.00
C467   C     0.97283   0.26854   0.58216   0.00000  Uiso   1.00
C468   C     0.52972   0.26510   0.41779   0.00000  Uiso   1.00
C469   C     0.73179   0.47239   0.58225   0.00000  Uiso   1.00
C470   C     0.73330   0.02873   0.41777   0.00000  Uiso   1.00
C471   C     0.52768   0.23150   0.58236   0.00000  Uiso   1.00
C472   C     0.98644   0.21974   0.04164   0.00000  Uiso   1.00
C473   C     0.97044   0.23562   0.41810   0.00000  Uiso   1.00
C474   C     0.76756   0.02809   0.58219   0.00000  Uiso   1.00
C475   C     0.76557   0.47097   0.41794   0.00000  Uiso   1.00
C476   C     0.75018   0.00029   0.02127   0.00000  Uiso   1.00
C477   C     0.74989   0.00038   0.97859   0.00000  Uiso   1.00
C478   C     0.50141   0.24962   0.02122   0.00000  Uiso   1.00
C479   C     0.50142   0.24978   0.97854   0.00000  Uiso   1.00
C480   C     0.50055   0.25016   0.52143   0.00000  Uiso   1.00
C481   C     0.50043   0.25022   0.47877   0.00000  Uiso   1.00
C482   C     0.74952   0.00031   0.52138   0.00000  Uiso   1.00
C483   C     0.98300   0.27778   0.95832   0.00000  Uiso   1.00
C484   C     0.74942   0.49999   0.47869   0.00000  Uiso   1.00
C485   C     0.74999   0.49999   0.35523   0.00000  Uiso   1.00
C486   C     0.75002   0.00002   0.64480   0.00000  Uiso   1.00
C487   C     0.50000   0.25002   0.35524   0.00000  Uiso   1.00
C488   C     0.50001   0.24996   0.64480   0.00000  Uiso   1.00
C489   C     0.50005   0.24999   0.85519   0.00000  Uiso   1.00
C490   C     0.50001   0.25000   0.14477   0.00000  Uiso   1.00
C491   C     0.74998   0.49999   0.85521   0.00000  Uiso   1.00
C492   C     0.75001   0.49998   0.14477   0.00000  Uiso   1.00
C493   C     0.68001   0.06998   0.25000   0.00000  Uiso   1.00
C494   C     0.77967   0.48443   0.04135   0.00000  Uiso   1.00
C495   C     0.81999   0.43001   0.75000   0.00000  Uiso   1.00
C496   C     0.93001   0.18002   0.25000   0.00000  Uiso   1.00
C497   C     0.56999   0.31999   0.75000   0.00000  Uiso   1.00
C498   C     0.81999   0.43001   0.25000   0.00000  Uiso   1.00
C499   C     0.68001   0.06999   0.75000   0.00000  Uiso   1.00
C500   C     0.56998   0.31999   0.25000   0.00000  Uiso   1.00
C501   C     0.93001   0.18001   0.75001   0.00000  Uiso   1.00
C502   C     0.68001   0.43002   0.75000   0.00000  Uiso   1.00
C503   C     0.81999   0.06999   0.24999   0.00000  Uiso   1.00
C504   C     0.93001   0.31999   0.75000   0.00000  Uiso   1.00
C505   C     0.72176   0.48218   0.95853   0.00000  Uiso   1.00
C506   C     0.56999   0.18001   0.25000   0.00000  Uiso   1.00
C507   C     0.81998   0.06999   0.75000   0.00000  Uiso   1.00
C508   C     0.68001   0.43001   0.25001   0.00000  Uiso   1.00
C509   C     0.56999   0.18001   0.75000   0.00000  Uiso   1.00
C510   C     0.93001   0.31999   0.25000   0.00000  Uiso   1.00
C511   C     0.64358   0.38331   0.21521   0.00000  Uiso   1.00
C512   C     0.85644   0.11666   0.78483   0.00000  Uiso   1.00
C513   C     0.61671   0.14357   0.21520   0.00000  Uiso   1.00
C514   C     0.88325   0.35638   0.78479   0.00000  Uiso   1.00
C515   C     0.85641   0.11674   0.21519   0.00000  Uiso   1.00
C516   C     0.51616   0.27946   0.04177   0.00000  Uiso   1.00
C517   C     0.64355   0.38331   0.78481   0.00000  Uiso   1.00
C518   C     0.88332   0.35645   0.21519   0.00000  Uiso   1.00
C519   C     0.61662   0.14349   0.78484   0.00000  Uiso   1.00
C520   C     0.64350   0.11663   0.78483   0.00000  Uiso   1.00
C521   C     0.85646   0.38333   0.21519   0.00000  Uiso   1.00
C522   C     0.61669   0.35642   0.78480   0.00000  Uiso   1.00
C523   C     0.88328   0.14361   0.21520   0.00000  Uiso   1.00
C524   C     0.85638   0.38324   0.78479   0.00000  Uiso   1.00
C525   C     0.64357   0.11670   0.21519   0.00000  Uiso   1.00
C526   C     0.88332   0.14353   0.78483   0.00000  Uiso   1.00
C527   C     0.51923   0.22152   0.95817   0.00000  Uiso   1.00
C528   C     0.61670   0.35645   0.21520   0.00000  Uiso   1.00
C529   C     0.89355   0.13333   0.71519   0.00000  Uiso   1.00
C530   C     0.60642   0.36668   0.28482   0.00000  Uiso   1.00
C531   C     0.86676   0.39362   0.71521   0.00000  Uiso   1.00
C532   C     0.63331   0.10643   0.28482   0.00000  Uiso   1.00
C533   C     0.60644   0.36671   0.71519   0.00000  Uiso   1.00
C534   C     0.89359   0.13327   0.28480   0.00000  Uiso   1.00
C535   C     0.63337   0.10650   0.71518   0.00000  Uiso   1.00
C536   C     0.86667   0.39355   0.28482   0.00000  Uiso   1.00
C537   C     0.89355   0.36668   0.28481   0.00000  Uiso   1.00
C538   C     0.97336   0.26947   0.54175   0.00000  Uiso   1.00
C539   C     0.60651   0.13338   0.71517   0.00000  Uiso   1.00
C540   C     0.86673   0.10638   0.28479   0.00000  Uiso   1.00
C541   C     0.63331   0.39358   0.71519   0.00000  Uiso   1.00
C542   C     0.60643   0.13329   0.28481   0.00000  Uiso   1.00
C543   C     0.89362   0.36675   0.71520   0.00000  Uiso   1.00
C544   C     0.63329   0.39356   0.28482   0.00000  Uiso   1.00
C545   C     0.86667   0.10648   0.71518   0.00000  Uiso   1.00
C546   C     0.59801   0.34803   0.25001   0.00000  Uiso   1.00
C547   C     0.90198   0.15197   0.75001   0.00000  Uiso   1.00
C548   C     0.65198   0.09802   0.25001   0.00000  Uiso   1.00
H549   H     0.69851   0.02840   0.09761   0.00000  Uiso   1.00
H550   H     0.55276   0.27602   0.40192   0.00000  Uiso   1.00
H551   H     0.90179   0.31469   0.81454   0.00000  Uiso   1.00
H552   H     0.81472   0.09823   0.18546   0.00000  Uiso   1.00
H553   H     0.68519   0.40186   0.81460   0.00000  Uiso   1.00
H554   H     0.90181   0.31476   0.18544   0.00000  Uiso   1.00
H555   H     0.59806   0.18511   0.81465   0.00000  Uiso   1.00
H556   H     0.68516   0.09813   0.81461   0.00000  Uiso   1.00
H557   H     0.81481   0.40188   0.18541   0.00000  Uiso   1.00
H558   H     0.59821   0.31470   0.81454   0.00000  Uiso   1.00
H559   H     0.90182   0.18531   0.18545   0.00000  Uiso   1.00
H560   H     0.81466   0.40173   0.81451   0.00000  Uiso   1.00
H561   H     0.71797   0.45069   0.59778   0.00000  Uiso   1.00
H562   H     0.68524   0.09816   0.18542   0.00000  Uiso   1.00
H563   H     0.90182   0.18520   0.81459   0.00000  Uiso   1.00
H564   H     0.59816   0.31479   0.18543   0.00000  Uiso   1.00
H565   H     0.93526   0.15181   0.68545   0.00000  Uiso   1.00
H566   H     0.56475   0.34812   0.31460   0.00000  Uiso   1.00
H567   H     0.84827   0.43534   0.68549   0.00000  Uiso   1.00
H568   H     0.65186   0.06478   0.31461   0.00000  Uiso   1.00
H569   H     0.56476   0.34821   0.68544   0.00000  Uiso   1.00
H570   H     0.93525   0.15181   0.31456   0.00000  Uiso   1.00
H571   H     0.65186   0.06483   0.68540   0.00000  Uiso   1.00
H572   H     0.72147   0.05131   0.40188   0.00000  Uiso   1.00
H573   H     0.84812   0.43520   0.31459   0.00000  Uiso   1.00
H574   H     0.93523   0.34819   0.31456   0.00000  Uiso   1.00
H575   H     0.56488   0.15193   0.68536   0.00000  Uiso   1.00
H576   H     0.84824   0.06465   0.31450   0.00000  Uiso   1.00
H577   H     0.65185   0.43527   0.68543   0.00000  Uiso   1.00
H578   H     0.56473   0.15178   0.31456   0.00000  Uiso   1.00
H579   H     0.93531   0.34821   0.68546   0.00000  Uiso   1.00
H580   H     0.65181   0.43523   0.31458   0.00000  Uiso   1.00
H581   H     0.84812   0.06484   0.68539   0.00000  Uiso   1.00
H582   H     0.54782   0.21614   0.59850   0.00000  Uiso   1.00
H583   H     0.94733   0.22410   0.40279   0.00000  Uiso   1.00
H584   H     0.78245   0.04867   0.59820   0.00000  Uiso   1.00
H585   H     0.77920   0.44947   0.40202   0.00000  Uiso   1.00
H586   H     0.72543   0.07712   0.00691   0.00000  Uiso   1.00
H587   H     0.69636   0.08330   0.04915   0.00000  Uiso   1.00
H588   H     0.64154   0.08203   0.00648   0.00000  Uiso   1.00
H589   H     0.79914   0.03200   0.90182   0.00000  Uiso   1.00
H590   H     0.67318   0.11747   0.99221   0.00000  Uiso   1.00
H591   H     0.67061   0.07560   0.96458   0.00000  Uiso   1.00
H592   H     0.77932   0.08710   0.96249   0.00000  Uiso   1.00
H593   H     0.82358   0.07715   0.94101   0.00000  Uiso   1.00
H594   H     0.85309   0.08511   0.00512   0.00000  Uiso   1.00
H595   H     0.82754   0.12529   0.99131   0.00000  Uiso   1.00
H596   H     0.80904   0.09414   0.02692   0.00000  Uiso   1.00
H597   H     0.93229   0.21446   0.99163   0.00000  Uiso   1.00
H598   H     0.92063   0.20117   0.04096   0.00000  Uiso   1.00
H599   H     0.92437   0.13585   0.02162   0.00000  Uiso   1.00
H600   H     0.97614   0.19632   0.09744   0.00000  Uiso   1.00
H601   H     0.89163   0.16068   0.99262   0.00000  Uiso   1.00
H602   H     0.93580   0.14932   0.97261   0.00000  Uiso   1.00
H603   H     0.92776   0.27656   0.00682   0.00000  Uiso   1.00
H604   H     0.91564   0.29043   0.95780   0.00000  Uiso   1.00
H605   H     0.91302   0.35511   0.97968   0.00000  Uiso   1.00
H606   H     0.88226   0.32635   0.00703   0.00000  Uiso   1.00
H607   H     0.92487   0.34101   0.02838   0.00000  Uiso   1.00
H608   H     0.84963   0.45906   0.05864   0.00000  Uiso   1.00
H609   H     0.84396   0.00551   0.04081   0.00000  Uiso   1.00
H610   H     0.86228   0.48489   0.97491   0.00000  Uiso   1.00
H611   H     0.96971   0.29997   0.90264   0.00000  Uiso   1.00
H612   H     0.89711   0.47556   0.01067   0.00000  Uiso   1.00
H613   H     0.86850   0.43893   0.99306   0.00000  Uiso   1.00
H614   H     0.65437   0.45089   0.94113   0.00000  Uiso   1.00
H615   H     0.65578   0.49750   0.95942   0.00000  Uiso   1.00
H616   H     0.60556   0.46251   0.98917   0.00000  Uiso   1.00
H617   H     0.63737   0.42847   0.00642   0.00000  Uiso   1.00
H618   H     0.63937   0.47461   0.02509   0.00000  Uiso   1.00
H619   H     0.57462   0.27702   0.00272   0.00000  Uiso   1.00
H620   H     0.58254   0.30249   0.04719   0.00000  Uiso   1.00
H621   H     0.58061   0.36059   0.00979   0.00000  Uiso   1.00
H622   H     0.80080   0.47094   0.09807   0.00000  Uiso   1.00
H623   H     0.61515   0.32990   0.99138   0.00000  Uiso   1.00
H624   H     0.57249   0.33515   0.96563   0.00000  Uiso   1.00
H625   H     0.55535   0.15672   0.93935   0.00000  Uiso   1.00
H626   H     0.50805   0.15432   0.95564   0.00000  Uiso   1.00
H627   H     0.52964   0.13667   0.02143   0.00000  Uiso   1.00
H628   H     0.54544   0.10535   0.98460   0.00000  Uiso   1.00
H629   H     0.57645   0.13870   0.00475   0.00000  Uiso   1.00
H630   H     0.98385   0.32882   0.50736   0.00000  Uiso   1.00
H631   H     0.95497   0.33795   0.54913   0.00000  Uiso   1.00
H632   H     0.90096   0.34240   0.50556   0.00000  Uiso   1.00
H633   H     0.70167   0.46722   0.90179   0.00000  Uiso   1.00
H634   H     0.93634   0.37433   0.49187   0.00000  Uiso   1.00
H635   H     0.92982   0.33298   0.46413   0.00000  Uiso   1.00
H636   H     0.53833   0.33318   0.46250   0.00000  Uiso   1.00
H637   H     0.58139   0.31901   0.44099   0.00000  Uiso   1.00
H638   H     0.61152   0.32408   0.50518   0.00000  Uiso   1.00
H639   H     0.59009   0.36655   0.49120   0.00000  Uiso   1.00
H640   H     0.56855   0.33747   0.52686   0.00000  Uiso   1.00
H641   H     0.67137   0.48153   0.50661   0.00000  Uiso   1.00
H642   H     0.66269   0.45349   0.54914   0.00000  Uiso   1.00
H643   H     0.65947   0.39835   0.50710   0.00000  Uiso   1.00
H644   H     0.52525   0.30331   0.09763   0.00000  Uiso   1.00
H645   H     0.62686   0.43269   0.49234   0.00000  Uiso   1.00
H646   H     0.66843   0.42633   0.46489   0.00000  Uiso   1.00
H647   H     0.66508   0.03635   0.46218   0.00000  Uiso   1.00
H648   H     0.67886   0.07969   0.44094   0.00000  Uiso   1.00
H649   H     0.63100   0.08783   0.49085   0.00000  Uiso   1.00
H650   H     0.65997   0.06628   0.52660   0.00000  Uiso   1.00
H651   H     0.67323   0.10946   0.50528   0.00000  Uiso   1.00
H652   H     0.59483   0.19854   0.55936   0.00000  Uiso   1.00
H653   H     0.59460   0.24530   0.54139   0.00000  Uiso   1.00
H654   H     0.61096   0.22251   0.47570   0.00000  Uiso   1.00
H655   H     0.53302   0.20145   0.90097   0.00000  Uiso   1.00
H656   H     0.64423   0.20938   0.51179   0.00000  Uiso   1.00
H657   H     0.61177   0.17620   0.49402   0.00000  Uiso   1.00
H658   H     0.97408   0.17588   0.49700   0.00000  Uiso   1.00
H659   H     0.94761   0.16813   0.45316   0.00000  Uiso   1.00
H660   H     0.89038   0.16997   0.49202   0.00000  Uiso   1.00
H661   H     0.92144   0.13535   0.50952   0.00000  Uiso   1.00
H662   H     0.91681   0.17793   0.53556   0.00000  Uiso   1.00
H663   H     0.79814   0.09634   0.55882   0.00000  Uiso   1.00
H664   H     0.75136   0.09432   0.54108   0.00000  Uiso   1.00
H665   H     0.78530   0.14511   0.51106   0.00000  Uiso   1.00
H666   H     0.95142   0.28288   0.59761   0.00000  Uiso   1.00
H667   H     0.81959   0.11383   0.49327   0.00000  Uiso   1.00
H668   H     0.77327   0.11122   0.47520   0.00000  Uiso   1.00
H669   H     0.79134   0.40085   0.44148   0.00000  Uiso   1.00
H670   H     0.74499   0.40615   0.45972   0.00000  Uiso   1.00
H671   H     0.76636   0.38821   0.52549   0.00000  Uiso   1.00
H672   H     0.77570   0.35337   0.48975   0.00000  Uiso   1.00
H673   H     0.81221   0.38238   0.50691   0.00000  Uiso   1.00
H674   H     0.68531   0.40178   0.18547   0.00000  Uiso   1.00
H675   H     0.81478   0.09810   0.81461   0.00000  Uiso   1.00
H676   H     0.59822   0.18527   0.18545   0.00000  Uiso   1.00
O677   O     0.75000  -0.00000   0.25000   0.00000  Uiso   1.00
O678   O     0.75000   0.46964   0.66317   0.00000  Uiso   1.00
O679   O     0.86048   0.08840   0.68056   0.00000  Uiso   1.00
O680   O     0.96964   0.25000   0.33683   0.00000  Uiso   1.00
O681   O     0.53036   0.25000   0.66317   0.00000  Uiso   1.00
O682   O     0.50000   0.21964   0.83683   0.00000  Uiso   1.00
O683   O     0.50000   0.28036   0.16317   0.00000  Uiso   1.00
O684   O     0.78036  -0.00000   0.83683   0.00000  Uiso   1.00
O685   O     0.71964  -0.00000   0.16317   0.00000  Uiso   1.00
O686   O     0.50000   0.28036   0.83683   0.00000  Uiso   1.00
O687   O     0.50000   0.21964   0.16317   0.00000  Uiso   1.00
O688   O     0.71964  -0.00000   0.83683   0.00000  Uiso   1.00
O689   O     0.75000  -0.00000   0.75000   0.00000  Uiso   1.00
O690   O     0.78036  -0.00000   0.16317   0.00000  Uiso   1.00
O691   O     0.70725   0.07307   0.27282   0.00000  Uiso   1.00
O692   O     0.79274   0.42693   0.72718   0.00000  Uiso   1.00
O693   O     0.92693   0.20725   0.27282   0.00000  Uiso   1.00
O694   O     0.57307   0.29274   0.72718   0.00000  Uiso   1.00
O695   O     0.79274   0.42693   0.27282   0.00000  Uiso   1.00
O696   O     0.70725   0.07307   0.72718   0.00000  Uiso   1.00
O697   O     0.57307   0.29274   0.27282   0.00000  Uiso   1.00
O698   O     0.92693   0.20725   0.72718   0.00000  Uiso   1.00
O699   O     0.70725   0.42693   0.72718   0.00000  Uiso   1.00
O700   O     0.50000   0.25000   0.25000   0.00000  Uiso   1.00
O701   O     0.79274   0.07307   0.27282   0.00000  Uiso   1.00
O702   O     0.92693   0.29274   0.72718   0.00000  Uiso   1.00
O703   O     0.57307   0.20725   0.27282   0.00000  Uiso   1.00
O704   O     0.79274   0.07307   0.72718   0.00000  Uiso   1.00
O705   O     0.70725   0.42693   0.27282   0.00000  Uiso   1.00
O706   O     0.57307   0.20725   0.72718   0.00000  Uiso   1.00
O707   O     0.92693   0.29274   0.27282   0.00000  Uiso   1.00
O708   O     0.95725   0.32307   0.77282   0.00000  Uiso   1.00
O709   O     0.54274   0.17693   0.22718   0.00000  Uiso   1.00
O710   O     0.67693   0.45725   0.77282   0.00000  Uiso   1.00
O711   O     0.50000   0.25000   0.75000   0.00000  Uiso   1.00
O712   O     0.82307   0.04274   0.22718   0.00000  Uiso   1.00
O713   O     0.54274   0.17693   0.77282   0.00000  Uiso   1.00
O714   O     0.95725   0.32307   0.22718   0.00000  Uiso   1.00
O715   O     0.82307   0.04274   0.77282   0.00000  Uiso   1.00
O716   O     0.67693   0.45725   0.22718   0.00000  Uiso   1.00
O717   O     0.95725   0.17693   0.22718   0.00000  Uiso   1.00
O718   O     0.54274   0.32307   0.77282   0.00000  Uiso   1.00
O719   O     0.67693   0.04274   0.22718   0.00000  Uiso   1.00
O720   O     0.82307   0.45725   0.77282   0.00000  Uiso   1.00
O721   O     0.54274   0.32307   0.22718   0.00000  Uiso   1.00
O722   O     0.75000   0.46964   0.33683   0.00000  Uiso   1.00
O723   O     0.95725   0.17693   0.77282   0.00000  Uiso   1.00
O724   O     0.82307   0.45725   0.22718   0.00000  Uiso   1.00
O725   O     0.67693   0.04274   0.77282   0.00000  Uiso   1.00
O726   O     0.69251   0.03266   0.02205   0.00000  Uiso   1.00
O727   O     0.80420   0.03765   0.97901   0.00000  Uiso   1.00
O728   O     0.97382   0.18909   0.02247   0.00000  Uiso   1.00
O729   O     0.96718   0.30676   0.97775   0.00000  Uiso   1.00
O730   O     0.80653   0.46633   0.02030   0.00000  Uiso   1.00
O731   O     0.69661   0.46176   0.97960   0.00000  Uiso   1.00
O732   O     0.53106   0.30894   0.02239   0.00000  Uiso   1.00
O733   O     0.75000   0.03036   0.66317   0.00000  Uiso   1.00
O734   O     0.54015   0.19655   0.97903   0.00000  Uiso   1.00
O735   O     0.94629   0.28796   0.52193   0.00000  Uiso   1.00
O736   O     0.55837   0.28156   0.47901   0.00000  Uiso   1.00
O737   O     0.71291   0.44520   0.52223   0.00000  Uiso   1.00
O738   O     0.71634   0.05693   0.47910   0.00000  Uiso   1.00
O739   O     0.55313   0.21061   0.52064   0.00000  Uiso   1.00
O740   O     0.94177   0.21953   0.47830   0.00000  Uiso   1.00
O741   O     0.78749   0.05406   0.52035   0.00000  Uiso   1.00
O742   O     0.78398   0.44400   0.47973   0.00000  Uiso   1.00
O743   O     0.66173   0.38947   0.18061   0.00000  Uiso   1.00
O744   O     0.53036   0.25000   0.33683   0.00000  Uiso   1.00
O745   O     0.83834   0.11046   0.81945   0.00000  Uiso   1.00
O746   O     0.61056   0.16171   0.18059   0.00000  Uiso   1.00
O747   O     0.88936   0.33821   0.81939   0.00000  Uiso   1.00
O748   O     0.83826   0.11062   0.18060   0.00000  Uiso   1.00
O749   O     0.66165   0.38947   0.81943   0.00000  Uiso   1.00
O750   O     0.88949   0.33833   0.18058   0.00000  Uiso   1.00
O751   O     0.61038   0.16154   0.81947   0.00000  Uiso   1.00
O752   O     0.66157   0.11041   0.81946   0.00000  Uiso   1.00
O753   O     0.83836   0.38951   0.18057   0.00000  Uiso   1.00
O754   O     0.61053   0.33827   0.81940   0.00000  Uiso   1.00
O755   O     0.96964   0.25000   0.66317   0.00000  Uiso   1.00
O756   O     0.88943   0.16178   0.18060   0.00000  Uiso   1.00
O757   O     0.83819   0.38934   0.81938   0.00000  Uiso   1.00
O758   O     0.66170   0.11054   0.18058   0.00000  Uiso   1.00
O759   O     0.88949   0.16163   0.81944   0.00000  Uiso   1.00
O760   O     0.61054   0.33834   0.18059   0.00000  Uiso   1.00
O761   O     0.91168   0.13952   0.68058   0.00000  Uiso   1.00
O762   O     0.58829   0.36050   0.31944   0.00000  Uiso   1.00
O763   O     0.86066   0.41181   0.68062   0.00000  Uiso   1.00
O764   O     0.63947   0.08832   0.31944   0.00000  Uiso   1.00
O765   O     0.58832   0.36056   0.68058   0.00000  Uiso   1.00
O766   O     0.75000   0.03036   0.33683   0.00000  Uiso   1.00
O767   O     0.91173   0.13939   0.31940   0.00000  Uiso   1.00
O768   O     0.63958   0.08843   0.68055   0.00000  Uiso   1.00
O769   O     0.86049   0.41165   0.31943   0.00000  Uiso   1.00
O770   O     0.91167   0.36051   0.31942   0.00000  Uiso   1.00
O771   O     0.58846   0.13961   0.68054   0.00000  Uiso   1.00
O772   O     0.86060   0.08820   0.31938   0.00000  Uiso   1.00
O773   O     0.63949   0.41172   0.68058   0.00000  Uiso   1.00
O774   O     0.58829   0.13944   0.31942   0.00000  Uiso   1.00
O775   O     0.91180   0.36064   0.68061   0.00000  Uiso   1.00
O776   O     0.63944   0.41168   0.31943   0.00000  Uiso   1.00
Zn777  Zn    0.70660  -0.00000   0.21760   0.00000  Uiso   1.00
Zn778  Zn    0.54340   0.25000   0.28240   0.00000  Uiso   1.00
Zn779  Zn    0.75000   0.45660   0.71760   0.00000  Uiso   1.00
Zn780  Zn    0.75000   0.04340   0.28240   0.00000  Uiso   1.00
Zn781  Zn    0.54340   0.25000   0.71760   0.00000  Uiso   1.00
Zn782  Zn    0.95660   0.25000   0.28240   0.00000  Uiso   1.00
Zn783  Zn    0.75000   0.04340   0.71760   0.00000  Uiso   1.00
Zn784  Zn    0.75000   0.45660   0.28240   0.00000  Uiso   1.00
Zn785  Zn    0.79340  -0.00000   0.78240   0.00000  Uiso   1.00
Zn786  Zn    0.50000   0.20660   0.21760   0.00000  Uiso   1.00
Zn787  Zn    0.50000   0.29340   0.78240   0.00000  Uiso   1.00
Zn788  Zn    0.79340  -0.00000   0.21760   0.00000  Uiso   1.00
Zn789  Zn    0.70660  -0.00000   0.78240   0.00000  Uiso   1.00
Zn790  Zn    0.50000   0.29340   0.21760   0.00000  Uiso   1.00
Zn791  Zn    0.50000   0.20660   0.78240   0.00000  Uiso   1.00
Zn792  Zn    0.95660   0.25000   0.71760   0.00000  Uiso   1.00
C793   C     0.22142   0.51704   0.04172   0.00000  Uiso   1.00
C794   C     0.02952   0.76648   0.45842   0.00000  Uiso   1.00
C795   C     0.34803   0.90197   0.75000   0.00000  Uiso   1.00
C796   C     0.40197   0.65198   0.25000   0.00000  Uiso   1.00
C797   C     0.09803   0.84802   0.74999   0.00000  Uiso   1.00
C798   C     0.34803   0.90198   0.25000   0.00000  Uiso   1.00
C799   C     0.15197   0.59803   0.75000   0.00000  Uiso   1.00
C800   C     0.09802   0.65198   0.75000   0.00000  Uiso   1.00
C801   C     0.40197   0.84803   0.25000   0.00000  Uiso   1.00
C802   C     0.15197   0.90199   0.75000   0.00000  Uiso   1.00
C803   C     0.34803   0.59802   0.24999   0.00000  Uiso   1.00
C804   C     0.40198   0.84802   0.75000   0.00000  Uiso   1.00
C805   C     0.23077   0.97281   0.54185   0.00000  Uiso   1.00
C806   C     0.09803   0.65197   0.25000   0.00000  Uiso   1.00
C807   C     0.34801   0.59803   0.75000   0.00000  Uiso   1.00
C808   C     0.15198   0.90197   0.25002   0.00000  Uiso   1.00
C809   C     0.25012   0.50020   0.10239   0.00000  Uiso   1.00
C810   C     0.24985   0.50033   0.89754   0.00000  Uiso   1.00
C811   C     0.00032   0.74997   0.10241   0.00000  Uiso   1.00
C812   C     0.00038   0.74988   0.89748   0.00000  Uiso   1.00
C813   C     0.00016   0.75003   0.60249   0.00000  Uiso   1.00
C814   C     0.00003   0.75025   0.39764   0.00000  Uiso   1.00
C815   C     0.24977   0.50015   0.60246   0.00000  Uiso   1.00
C816   C     0.23205   0.52848   0.45839   0.00000  Uiso   1.00
C817   C     0.24956   0.99988   0.39761   0.00000  Uiso   1.00
C818   C     0.19828   0.57068   0.01985   0.00000  Uiso   1.00
C819   C     0.16903   0.58749   0.99416   0.00000  Uiso   1.00
C820   C     0.30670   0.57464   0.96767   0.00000  Uiso   1.00
C821   C     0.32528   0.59613   0.99980   0.00000  Uiso   1.00
C822   C     0.43631   0.69345   0.01448   0.00000  Uiso   1.00
C823   C     0.42110   0.65753   0.99939   0.00000  Uiso   1.00
C824   C     0.43013   0.79864   0.98486   0.00000  Uiso   1.00
C825   C     0.41142   0.83244   0.00100   0.00000  Uiso   1.00
C826   C     0.34190   0.97597   0.03317   0.00000  Uiso   1.00
C827   C     0.02826   0.73144   0.54161   0.00000  Uiso   1.00
C828   C     0.36914   0.96834   0.00089   0.00000  Uiso   1.00
C829   C     0.16051   0.96820   0.96676   0.00000  Uiso   1.00
C830   C     0.13406   0.95778   0.99891   0.00000  Uiso   1.00
C831   C     0.06894   0.80308   0.01831   0.00000  Uiso   1.00
C832   C     0.08530   0.83417   0.99479   0.00000  Uiso   1.00
C833   C     0.03668   0.66066   0.96441   0.00000  Uiso   1.00
C834   C     0.04775   0.63368   0.99581   0.00000  Uiso   1.00
C835   C     0.45599   0.82520   0.51985   0.00000  Uiso   1.00
C836   C     0.42904   0.84495   0.49370   0.00000  Uiso   1.00
C837   C     0.06438   0.81815   0.46766   0.00000  Uiso   1.00
C838   C     0.47097   0.73451   0.45853   0.00000  Uiso   1.00
C839   C     0.08495   0.83778   0.49977   0.00000  Uiso   1.00
C840   C     0.17550   0.95407   0.51986   0.00000  Uiso   1.00
C841   C     0.15638   0.92607   0.49444   0.00000  Uiso   1.00
C842   C     0.17976   0.56257   0.46753   0.00000  Uiso   1.00
C843   C     0.15974   0.58282   0.49961   0.00000  Uiso   1.00
C844   C     0.08926   0.71616   0.53381   0.00000  Uiso   1.00
C845   C     0.11570   0.70537   0.50178   0.00000  Uiso   1.00
C846   C     0.44769   0.68163   0.48209   0.00000  Uiso   1.00
C847   C     0.41712   0.66521   0.50633   0.00000  Uiso   1.00
C848   C     0.28065   0.59002   0.53337   0.00000  Uiso   1.00
C849   C     0.26750   0.52858   0.54143   0.00000  Uiso   1.00
C850   C     0.29032   0.61670   0.50117   0.00000  Uiso   1.00
C851   C     0.27458   0.90850   0.46707   0.00000  Uiso   1.00
C852   C     0.28274   0.88143   0.49936   0.00000  Uiso   1.00
C853   C     0.26555   0.97061   0.45866   0.00000  Uiso   1.00
C854   C     0.22115   0.51613   0.08213   0.00000  Uiso   1.00
C855   C     0.27747   0.51856   0.91770   0.00000  Uiso   1.00
C856   C     0.48691   0.71976   0.08205   0.00000  Uiso   1.00
C857   C     0.27706   0.51979   0.95831   0.00000  Uiso   1.00
C858   C     0.48329   0.77798   0.91795   0.00000  Uiso   1.00
C859   C     0.27920   0.98435   0.08210   0.00000  Uiso   1.00
C860   C     0.22212   0.98229   0.91781   0.00000  Uiso   1.00
C861   C     0.01449   0.77992   0.08216   0.00000  Uiso   1.00
C862   C     0.01846   0.72195   0.91740   0.00000  Uiso   1.00
C863   C     0.47283   0.76854   0.58216   0.00000  Uiso   1.00
C864   C     0.02972   0.76510   0.41779   0.00000  Uiso   1.00
C865   C     0.23179   0.97239   0.58225   0.00000  Uiso   1.00
C866   C     0.23330   0.52873   0.41777   0.00000  Uiso   1.00
C867   C     0.02768   0.73150   0.58236   0.00000  Uiso   1.00
C868   C     0.48644   0.71974   0.04164   0.00000  Uiso   1.00
C869   C     0.47044   0.73562   0.41810   0.00000  Uiso   1.00
C870   C     0.26756   0.52809   0.58219   0.00000  Uiso   1.00
C871   C     0.26557   0.97097   0.41794   0.00000  Uiso   1.00
C872   C     0.25018   0.50029   0.02127   0.00000  Uiso   1.00
C873   C     0.24989   0.50038   0.97859   0.00000  Uiso   1.00
C874   C     0.00141   0.74962   0.02122   0.00000  Uiso   1.00
C875   C     0.00142   0.74978   0.97854   0.00000  Uiso   1.00
C876   C     0.00055   0.75016   0.52143   0.00000  Uiso   1.00
C877   C     0.00043   0.75022   0.47877   0.00000  Uiso   1.00
C878   C     0.24952   0.50031   0.52138   0.00000  Uiso   1.00
C879   C     0.48300   0.77778   0.95832   0.00000  Uiso   1.00
C880   C     0.24942   0.99999   0.47869   0.00000  Uiso   1.00
C881   C     0.24999   0.99999   0.35523   0.00000  Uiso   1.00
C882   C     0.25002   0.50002   0.64480   0.00000  Uiso   1.00
C883   C    -0.00000   0.75002   0.35524   0.00000  Uiso   1.00
C884   C     0.00001   0.74996   0.64480   0.00000  Uiso   1.00
C885   C     0.00005   0.74999   0.85519   0.00000  Uiso   1.00
C886   C     0.00001   0.75000   0.14477   0.00000  Uiso   1.00
C887   C     0.24998   0.99999   0.85521   0.00000  Uiso   1.00
C888   C     0.25001   0.99998   0.14477   0.00000  Uiso   1.00
C889   C     0.18001   0.56998   0.25000   0.00000  Uiso   1.00
C890   C     0.27967   0.98443   0.04135   0.00000  Uiso   1.00
C891   C     0.31999   0.93001   0.75000   0.00000  Uiso   1.00
C892   C     0.43001   0.68002   0.25000   0.00000  Uiso   1.00
C893   C     0.06999   0.81999   0.75000   0.00000  Uiso   1.00
C894   C     0.31999   0.93001   0.25000   0.00000  Uiso   1.00
C895   C     0.18001   0.56999   0.75000   0.00000  Uiso   1.00
C896   C     0.06998   0.81999   0.25000   0.00000  Uiso   1.00
C897   C     0.43001   0.68001   0.75001   0.00000  Uiso   1.00
C898   C     0.18001   0.93002   0.75000   0.00000  Uiso   1.00
C899   C     0.31999   0.56999   0.24999   0.00000  Uiso   1.00
C900   C     0.43001   0.81999   0.75000   0.00000  Uiso   1.00
C901   C     0.22176   0.98218   0.95853   0.00000  Uiso   1.00
C902   C     0.06999   0.68001   0.25000   0.00000  Uiso   1.00
C903   C     0.31998   0.56999   0.75000   0.00000  Uiso   1.00
C904   C     0.18001   0.93001   0.25001   0.00000  Uiso   1.00
C905   C     0.06999   0.68001   0.75000   0.00000  Uiso   1.00
C906   C     0.43001   0.81999   0.25000   0.00000  Uiso   1.00
C907   C     0.14358   0.88331   0.21521   0.00000  Uiso   1.00
C908   C     0.35644   0.61666   0.78483   0.00000  Uiso   1.00
C909   C     0.11671   0.64357   0.21520   0.00000  Uiso   1.00
C910   C     0.38325   0.85638   0.78479   0.00000  Uiso   1.00
C911   C     0.35641   0.61674   0.21519   0.00000  Uiso   1.00
C912   C     0.01616   0.77946   0.04177   0.00000  Uiso   1.00
C913   C     0.14355   0.88331   0.78481   0.00000  Uiso   1.00
C914   C     0.38332   0.85645   0.21519   0.00000  Uiso   1.00
C915   C     0.11662   0.64349   0.78484   0.00000  Uiso   1.00
C916   C     0.14350   0.61663   0.78483   0.00000  Uiso   1.00
C917   C     0.35646   0.88333   0.21519   0.00000  Uiso   1.00
C918   C     0.11669   0.85642   0.78480   0.00000  Uiso   1.00
C919   C     0.38328   0.64361   0.21520   0.00000  Uiso   1.00
C920   C     0.35638   0.88324   0.78479   0.00000  Uiso   1.00
C921   C     0.14357   0.61670   0.21519   0.00000  Uiso   1.00
C922   C     0.38332   0.64353   0.78483   0.00000  Uiso   1.00
C923   C     0.01923   0.72152   0.95817   0.00000  Uiso   1.00
C924   C     0.11670   0.85645   0.21520   0.00000  Uiso   1.00
C925   C     0.39355   0.63333   0.71519   0.00000  Uiso   1.00
C926   C     0.10642   0.86668   0.28482   0.00000  Uiso   1.00
C927   C     0.36676   0.89362   0.71521   0.00000  Uiso   1.00
C928   C     0.13331   0.60643   0.28482   0.00000  Uiso   1.00
C929   C     0.10644   0.86671   0.71519   0.00000  Uiso   1.00
C930   C     0.39359   0.63327   0.28480   0.00000  Uiso   1.00
C931   C     0.13337   0.60650   0.71518   0.00000  Uiso   1.00
C932   C     0.36667   0.89355   0.28482   0.00000  Uiso   1.00
C933   C     0.39355   0.86668   0.28481   0.00000  Uiso   1.00
C934   C     0.47336   0.76947   0.54175   0.00000  Uiso   1.00
C935   C     0.10651   0.63338   0.71517   0.00000  Uiso   1.00
C936   C     0.36673   0.60638   0.28479   0.00000  Uiso   1.00
C937   C     0.13331   0.89358   0.71519   0.00000  Uiso   1.00
C938   C     0.10643   0.63329   0.28481   0.00000  Uiso   1.00
C939   C     0.39362   0.86675   0.71520   0.00000  Uiso   1.00
C940   C     0.13329   0.89356   0.28482   0.00000  Uiso   1.00
C941   C     0.36667   0.60648   0.71518   0.00000  Uiso   1.00
C942   C     0.09801   0.84803   0.25001   0.00000  Uiso   1.00
C943   C     0.40198   0.65197   0.75001   0.00000  Uiso   1.00
C944   C     0.15198   0.59802   0.25001   0.00000  Uiso   1.00
H945   H     0.19851   0.52840   0.09761   0.00000  Uiso   1.00
H946   H     0.05276   0.77602   0.40192   0.00000  Uiso   1.00
H947   H     0.40179   0.81469   0.81454   0.00000  Uiso   1.00
H948   H     0.31472   0.59823   0.18546   0.00000  Uiso   1.00
H949   H     0.18519   0.90186   0.81460   0.00000  Uiso   1.00
H950   H     0.40181   0.81476   0.18544   0.00000  Uiso   1.00
H951   H     0.09806   0.68511   0.81465   0.00000  Uiso   1.00
H952   H     0.18516   0.59813   0.81461   0.00000  Uiso   1.00
H953   H     0.31481   0.90188   0.18541   0.00000  Uiso   1.00
H954   H     0.09821   0.81470   0.81454   0.00000  Uiso   1.00
H955   H     0.40182   0.68531   0.18545   0.00000  Uiso   1.00
H956   H     0.31466   0.90173   0.81451   0.00000  Uiso   1.00
H957   H     0.21797   0.95069   0.59778   0.00000  Uiso   1.00
H958   H     0.18524   0.59816   0.18542   0.00000  Uiso   1.00
H959   H     0.40182   0.68520   0.81459   0.00000  Uiso   1.00
H960   H     0.09816   0.81479   0.18543   0.00000  Uiso   1.00
H961   H     0.43526   0.65181   0.68545   0.00000  Uiso   1.00
H962   H     0.06475   0.84812   0.31460   0.00000  Uiso   1.00
H963   H     0.34827   0.93534   0.68549   0.00000  Uiso   1.00
H964   H     0.15186   0.56478   0.31461   0.00000  Uiso   1.00
H965   H     0.06476   0.84821   0.68544   0.00000  Uiso   1.00
H966   H     0.43525   0.65181   0.31456   0.00000  Uiso   1.00
H967   H     0.15186   0.56483   0.68540   0.00000  Uiso   1.00
H968   H     0.22147   0.55131   0.40188   0.00000  Uiso   1.00
H969   H     0.34812   0.93520   0.31459   0.00000  Uiso   1.00
H970   H     0.43523   0.84819   0.31456   0.00000  Uiso   1.00
H971   H     0.06488   0.65193   0.68536   0.00000  Uiso   1.00
H972   H     0.34824   0.56465   0.31450   0.00000  Uiso   1.00
H973   H     0.15185   0.93527   0.68543   0.00000  Uiso   1.00
H974   H     0.06473   0.65178   0.31456   0.00000  Uiso   1.00
H975   H     0.43531   0.84821   0.68546   0.00000  Uiso   1.00
H976   H     0.15181   0.93523   0.31458   0.00000  Uiso   1.00
H977   H     0.34812   0.56484   0.68539   0.00000  Uiso   1.00
H978   H     0.04782   0.71614   0.59850   0.00000  Uiso   1.00
H979   H     0.44733   0.72410   0.40279   0.00000  Uiso   1.00
H980   H     0.28245   0.54867   0.59820   0.00000  Uiso   1.00
H981   H     0.27920   0.94947   0.40202   0.00000  Uiso   1.00
H982   H     0.22543   0.57712   0.00691   0.00000  Uiso   1.00
H983   H     0.19636   0.58330   0.04915   0.00000  Uiso   1.00
H984   H     0.14154   0.58203   0.00648   0.00000  Uiso   1.00
H985   H     0.29914   0.53200   0.90182   0.00000  Uiso   1.00
H986   H     0.17318   0.61747   0.99221   0.00000  Uiso   1.00
H987   H     0.17061   0.57560   0.96458   0.00000  Uiso   1.00
H988   H     0.27932   0.58710   0.96249   0.00000  Uiso   1.00
H989   H     0.32358   0.57715   0.94101   0.00000  Uiso   1.00
H990   H     0.35309   0.58511   0.00512   0.00000  Uiso   1.00
H991   H     0.32754   0.62529   0.99131   0.00000  Uiso   1.00
H992   H     0.30904   0.59414   0.02692   0.00000  Uiso   1.00
H993   H     0.43229   0.71446   0.99163   0.00000  Uiso   1.00
H994   H     0.42063   0.70117   0.04096   0.00000  Uiso   1.00
H995   H     0.42437   0.63585   0.02162   0.00000  Uiso   1.00
H996   H     0.47614   0.69632   0.09744   0.00000  Uiso   1.00
H997   H     0.39163   0.66068   0.99262   0.00000  Uiso   1.00
H998   H     0.43580   0.64932   0.97261   0.00000  Uiso   1.00
H999   H     0.42776   0.77656   0.00682   0.00000  Uiso   1.00
H1000  H     0.41564   0.79043   0.95780   0.00000  Uiso   1.00
H1001  H     0.41302   0.85511   0.97968   0.00000  Uiso   1.00
H1002  H     0.38226   0.82635   0.00703   0.00000  Uiso   1.00
H1003  H     0.42487   0.84101   0.02838   0.00000  Uiso   1.00
H1004  H     0.34963   0.95906   0.05864   0.00000  Uiso   1.00
H1005  H     0.34396   0.50551   0.04081   0.00000  Uiso   1.00
H1006  H     0.36228   0.98489   0.97491   0.00000  Uiso   1.00
H1007  H     0.46971   0.79997   0.90264   0.00000  Uiso   1.00
H1008  H     0.39711   0.97556   0.01067   0.00000  Uiso   1.00
H1009  H     0.36850   0.93893   0.99306   0.00000  Uiso   1.00
H1010  H     0.15437   0.95089   0.94113   0.00000  Uiso   1.00
H1011  H     0.15578   0.99750   0.95942   0.00000  Uiso   1.00
H1012  H     0.10556   0.96251   0.98917   0.00000  Uiso   1.00
H1013  H     0.13737   0.92847   0.00642   0.00000  Uiso   1.00
H1014  H     0.13937   0.97461   0.02509   0.00000  Uiso   1.00
H1015  H     0.07462   0.77702   0.00272   0.00000  Uiso   1.00
H1016  H     0.08254   0.80249   0.04719   0.00000  Uiso   1.00
H1017  H     0.08061   0.86059   0.00979   0.00000  Uiso   1.00
H1018  H     0.30080   0.97094   0.09807   0.00000  Uiso   1.00
H1019  H     0.11515   0.82990   0.99138   0.00000  Uiso   1.00
H1020  H     0.07249   0.83515   0.96563   0.00000  Uiso   1.00
H1021  H     0.05535   0.65672   0.93935   0.00000  Uiso   1.00
H1022  H     0.00805   0.65432   0.95564   0.00000  Uiso   1.00
H1023  H     0.02964   0.63667   0.02143   0.00000  Uiso   1.00
H1024  H     0.04544   0.60535   0.98460   0.00000  Uiso   1.00
H1025  H     0.07645   0.63870   0.00475   0.00000  Uiso   1.00
H1026  H     0.48385   0.82882   0.50736   0.00000  Uiso   1.00
H1027  H     0.45497   0.83795   0.54913   0.00000  Uiso   1.00
H1028  H     0.40096   0.84240   0.50556   0.00000  Uiso   1.00
H1029  H     0.20167   0.96722   0.90179   0.00000  Uiso   1.00
H1030  H     0.43634   0.87433   0.49187   0.00000  Uiso   1.00
H1031  H     0.42982   0.83298   0.46413   0.00000  Uiso   1.00
H1032  H     0.03833   0.83318   0.46250   0.00000  Uiso   1.00
H1033  H     0.08139   0.81901   0.44099   0.00000  Uiso   1.00
H1034  H     0.11152   0.82408   0.50518   0.00000  Uiso   1.00
H1035  H     0.09009   0.86655   0.49120   0.00000  Uiso   1.00
H1036  H     0.06855   0.83747   0.52686   0.00000  Uiso   1.00
H1037  H     0.17137   0.98153   0.50661   0.00000  Uiso   1.00
H1038  H     0.16269   0.95349   0.54914   0.00000  Uiso   1.00
H1039  H     0.15947   0.89835   0.50710   0.00000  Uiso   1.00
H1040  H     0.02525   0.80331   0.09763   0.00000  Uiso   1.00
H1041  H     0.12686   0.93269   0.49234   0.00000  Uiso   1.00
H1042  H     0.16843   0.92633   0.46489   0.00000  Uiso   1.00
H1043  H     0.16508   0.53635   0.46218   0.00000  Uiso   1.00
H1044  H     0.17886   0.57969   0.44094   0.00000  Uiso   1.00
H1045  H     0.13100   0.58783   0.49085   0.00000  Uiso   1.00
H1046  H     0.15997   0.56628   0.52660   0.00000  Uiso   1.00
H1047  H     0.17323   0.60946   0.50528   0.00000  Uiso   1.00
H1048  H     0.09483   0.69854   0.55936   0.00000  Uiso   1.00
H1049  H     0.09460   0.74530   0.54139   0.00000  Uiso   1.00
H1050  H     0.11096   0.72251   0.47570   0.00000  Uiso   1.00
H1051  H     0.03302   0.70145   0.90097   0.00000  Uiso   1.00
H1052  H     0.14423   0.70938   0.51179   0.00000  Uiso   1.00
H1053  H     0.11177   0.67620   0.49402   0.00000  Uiso   1.00
H1054  H     0.47408   0.67588   0.49700   0.00000  Uiso   1.00
H1055  H     0.44761   0.66813   0.45316   0.00000  Uiso   1.00
H1056  H     0.39038   0.66997   0.49202   0.00000  Uiso   1.00
H1057  H     0.42144   0.63535   0.50952   0.00000  Uiso   1.00
H1058  H     0.41681   0.67793   0.53556   0.00000  Uiso   1.00
H1059  H     0.29814   0.59634   0.55882   0.00000  Uiso   1.00
H1060  H     0.25136   0.59432   0.54108   0.00000  Uiso   1.00
H1061  H     0.28530   0.64511   0.51106   0.00000  Uiso   1.00
H1062  H     0.45142   0.78288   0.59761   0.00000  Uiso   1.00
H1063  H     0.31959   0.61383   0.49327   0.00000  Uiso   1.00
H1064  H     0.27327   0.61122   0.47520   0.00000  Uiso   1.00
H1065  H     0.29134   0.90085   0.44148   0.00000  Uiso   1.00
H1066  H     0.24499   0.90615   0.45972   0.00000  Uiso   1.00
H1067  H     0.26636   0.88821   0.52549   0.00000  Uiso   1.00
H1068  H     0.27570   0.85337   0.48975   0.00000  Uiso   1.00
H1069  H     0.31221   0.88238   0.50691   0.00000  Uiso   1.00
H1070  H     0.18531   0.90178   0.18547   0.00000  Uiso   1.00
H1071  H     0.31478   0.59810   0.81461   0.00000  Uiso   1.00
H1072  H     0.09822   0.68527   0.18545   0.00000  Uiso   1.00
O1073  O     0.25000   0.50000   0.25000   0.00000  Uiso   1.00
O1074  O     0.25000   0.96964   0.66317   0.00000  Uiso   1.00
O1075  O     0.36048   0.58840   0.68056   0.00000  Uiso   1.00
O1076  O     0.46964   0.75000   0.33683   0.00000  Uiso   1.00
O1077  O     0.03036   0.75000   0.66317   0.00000  Uiso   1.00
O1078  O     0.00000   0.71964   0.83683   0.00000  Uiso   1.00
O1079  O     0.00000   0.78036   0.16317   0.00000  Uiso   1.00
O1080  O     0.28036   0.50000   0.83683   0.00000  Uiso   1.00
O1081  O     0.21964   0.50000   0.16317   0.00000  Uiso   1.00
O1082  O    -0.00000   0.78036   0.83683   0.00000  Uiso   1.00
O1083  O     0.00000   0.71964   0.16317   0.00000  Uiso   1.00
O1084  O     0.21964   0.50000   0.83683   0.00000  Uiso   1.00
O1085  O     0.25000   0.50000   0.75000   0.00000  Uiso   1.00
O1086  O     0.28036   0.50000   0.16317   0.00000  Uiso   1.00
O1087  O     0.20725   0.57307   0.27282   0.00000  Uiso   1.00
O1088  O     0.29274   0.92693   0.72718   0.00000  Uiso   1.00
O1089  O     0.42693   0.70725   0.27282   0.00000  Uiso   1.00
O1090  O     0.07307   0.79274   0.72718   0.00000  Uiso   1.00
O1091  O     0.29274   0.92693   0.27282   0.00000  Uiso   1.00
O1092  O     0.20725   0.57307   0.72718   0.00000  Uiso   1.00
O1093  O     0.07307   0.79274   0.27282   0.00000  Uiso   1.00
O1094  O     0.42693   0.70725   0.72718   0.00000  Uiso   1.00
O1095  O     0.20725   0.92693   0.72718   0.00000  Uiso   1.00
O1096  O     0.00000   0.75000   0.25000   0.00000  Uiso   1.00
O1097  O     0.29274   0.57307   0.27282   0.00000  Uiso   1.00
O1098  O     0.42693   0.79274   0.72718   0.00000  Uiso   1.00
O1099  O     0.07307   0.70725   0.27282   0.00000  Uiso   1.00
O1100  O     0.29274   0.57307   0.72718   0.00000  Uiso   1.00
O1101  O     0.20725   0.92693   0.27282   0.00000  Uiso   1.00
O1102  O     0.07307   0.70725   0.72718   0.00000  Uiso   1.00
O1103  O     0.42693   0.79274   0.27282   0.00000  Uiso   1.00
O1104  O     0.45725   0.82307   0.77282   0.00000  Uiso   1.00
O1105  O     0.04274   0.67693   0.22718   0.00000  Uiso   1.00
O1106  O     0.17693   0.95725   0.77282   0.00000  Uiso   1.00
O1107  O     0.00000   0.75000   0.75000   0.00000  Uiso   1.00
O1108  O     0.32307   0.54274   0.22718   0.00000  Uiso   1.00
O1109  O     0.04274   0.67693   0.77282   0.00000  Uiso   1.00
O1110  O     0.45725   0.82307   0.22718   0.00000  Uiso   1.00
O1111  O     0.32307   0.54274   0.77282   0.00000  Uiso   1.00
O1112  O     0.17693   0.95725   0.22718   0.00000  Uiso   1.00
O1113  O     0.45725   0.67693   0.22718   0.00000  Uiso   1.00
O1114  O     0.04274   0.82307   0.77282   0.00000  Uiso   1.00
O1115  O     0.17693   0.54274   0.22718   0.00000  Uiso   1.00
O1116  O     0.32307   0.95725   0.77282   0.00000  Uiso   1.00
O1117  O     0.04274   0.82307   0.22718   0.00000  Uiso   1.00
O1118  O     0.25000   0.96964   0.33683   0.00000  Uiso   1.00
O1119  O     0.45725   0.67693   0.77282   0.00000  Uiso   1.00
O1120  O     0.32307   0.95725   0.22718   0.00000  Uiso   1.00
O1121  O     0.17693   0.54274   0.77282   0.00000  Uiso   1.00
O1122  O     0.19251   0.53266   0.02205   0.00000  Uiso   1.00
O1123  O     0.30420   0.53765   0.97901   0.00000  Uiso   1.00
O1124  O     0.47382   0.68909   0.02247   0.00000  Uiso   1.00
O1125  O     0.46718   0.80676   0.97775   0.00000  Uiso   1.00
O1126  O     0.30653   0.96633   0.02030   0.00000  Uiso   1.00
O1127  O     0.19661   0.96176   0.97960   0.00000  Uiso   1.00
O1128  O     0.03106   0.80894   0.02239   0.00000  Uiso   1.00
O1129  O     0.25000   0.53036   0.66317   0.00000  Uiso   1.00
O1130  O     0.04015   0.69655   0.97903   0.00000  Uiso   1.00
O1131  O     0.44629   0.78796   0.52193   0.00000  Uiso   1.00
O1132  O     0.05837   0.78156   0.47901   0.00000  Uiso   1.00
O1133  O     0.21291   0.94520   0.52223   0.00000  Uiso   1.00
O1134  O     0.21634   0.55693   0.47910   0.00000  Uiso   1.00
O1135  O     0.05313   0.71061   0.52064   0.00000  Uiso   1.00
O1136  O     0.44177   0.71953   0.47830   0.00000  Uiso   1.00
O1137  O     0.28749   0.55406   0.52035   0.00000  Uiso   1.00
O1138  O     0.28398   0.94400   0.47973   0.00000  Uiso   1.00
O1139  O     0.16173   0.88947   0.18061   0.00000  Uiso   1.00
O1140  O     0.03036   0.75000   0.33683   0.00000  Uiso   1.00
O1141  O     0.33834   0.61046   0.81945   0.00000  Uiso   1.00
O1142  O     0.11056   0.66171   0.18059   0.00000  Uiso   1.00
O1143  O     0.38936   0.83821   0.81939   0.00000  Uiso   1.00
O1144  O     0.33826   0.61062   0.18060   0.00000  Uiso   1.00
O1145  O     0.16165   0.88947   0.81943   0.00000  Uiso   1.00
O1146  O     0.38949   0.83833   0.18058   0.00000  Uiso   1.00
O1147  O     0.11038   0.66154   0.81947   0.00000  Uiso   1.00
O1148  O     0.16157   0.61041   0.81946   0.00000  Uiso   1.00
O1149  O     0.33836   0.88951   0.18057   0.00000  Uiso   1.00
O1150  O     0.11053   0.83827   0.81940   0.00000  Uiso   1.00
O1151  O     0.46964   0.75000   0.66317   0.00000  Uiso   1.00
O1152  O     0.38943   0.66178   0.18060   0.00000  Uiso   1.00
O1153  O     0.33819   0.88934   0.81938   0.00000  Uiso   1.00
O1154  O     0.16170   0.61054   0.18058   0.00000  Uiso   1.00
O1155  O     0.38949   0.66163   0.81944   0.00000  Uiso   1.00
O1156  O     0.11054   0.83834   0.18059   0.00000  Uiso   1.00
O1157  O     0.41168   0.63952   0.68058   0.00000  Uiso   1.00
O1158  O     0.08829   0.86050   0.31944   0.00000  Uiso   1.00
O1159  O     0.36066   0.91181   0.68062   0.00000  Uiso   1.00
O1160  O     0.13947   0.58832   0.31944   0.00000  Uiso   1.00
O1161  O     0.08832   0.86056   0.68058   0.00000  Uiso   1.00
O1162  O     0.25000   0.53036   0.33683   0.00000  Uiso   1.00
O1163  O     0.41173   0.63939   0.31940   0.00000  Uiso   1.00
O1164  O     0.13958   0.58843   0.68055   0.00000  Uiso   1.00
O1165  O     0.36049   0.91165   0.31943   0.00000  Uiso   1.00
O1166  O     0.41167   0.86051   0.31942   0.00000  Uiso   1.00
O1167  O     0.08846   0.63961   0.68054   0.00000  Uiso   1.00
O1168  O     0.36060   0.58820   0.31938   0.00000  Uiso   1.00
O1169  O     0.13949   0.91172   0.68058   0.00000  Uiso   1.00
O1170  O     0.08829   0.63944   0.31942   0.00000  Uiso   1.00
O1171  O     0.41180   0.86064   0.68061   0.00000  Uiso   1.00
O1172  O     0.13944   0.91168   0.31943   0.00000  Uiso   1.00
Zn1173 Zn    0.20660   0.50000   0.21760   0.00000  Uiso   1.00
Zn1174 Zn    0.04340   0.75000   0.28240   0.00000  Uiso   1.00
Zn1175 Zn    0.25000   0.95660   0.71760   0.00000  Uiso   1.00
Zn1176 Zn    0.25000   0.54340   0.28240   0.00000  Uiso   1.00
Zn1177 Zn    0.04340   0.75000   0.71760   0.00000  Uiso   1.00
Zn1178 Zn    0.45660   0.75000   0.28240   0.00000  Uiso   1.00
Zn1179 Zn    0.25000   0.54340   0.71760   0.00000  Uiso   1.00
Zn1180 Zn    0.25000   0.95660   0.28240   0.00000  Uiso   1.00
Zn1181 Zn    0.29340   0.50000   0.78240   0.00000  Uiso   1.00
Zn1182 Zn    0.00000   0.70660   0.21760   0.00000  Uiso   1.00
Zn1183 Zn    0.00000   0.79340   0.78240   0.00000  Uiso   1.00
Zn1184 Zn    0.29340   0.50000   0.21760   0.00000  Uiso   1.00
Zn1185 Zn    0.20660   0.50000   0.78240   0.00000  Uiso   1.00
Zn1186 Zn   -0.00000   0.79340   0.21760   0.00000  Uiso   1.00
Zn1187 Zn    0.00000   0.70660   0.78240   0.00000  Uiso   1.00
Zn1188 Zn    0.45660   0.75000   0.71760   0.00000  Uiso   1.00
C1189  C     0.72142   0.51704   0.04172   0.00000  Uiso   1.00
C1190  C     0.52952   0.76648   0.45842   0.00000  Uiso   1.00
C1191  C     0.84803   0.90197   0.75000   0.00000  Uiso   1.00
C1192  C     0.90197   0.65198   0.25000   0.00000  Uiso   1.00
C1193  C     0.59803   0.84802   0.74999   0.00000  Uiso   1.00
C1194  C     0.84803   0.90198   0.25000   0.00000  Uiso   1.00
C1195  C     0.65197   0.59803   0.75000   0.00000  Uiso   1.00
C1196  C     0.59802   0.65198   0.75000   0.00000  Uiso   1.00
C1197  C     0.90197   0.84803   0.25000   0.00000  Uiso   1.00
C1198  C     0.65197   0.90199   0.75000   0.00000  Uiso   1.00
C1199  C     0.84803   0.59802   0.24999   0.00000  Uiso   1.00
C1200  C     0.90198   0.84802   0.75000   0.00000  Uiso   1.00
C1201  C     0.73077   0.97281   0.54185   0.00000  Uiso   1.00
C1202  C     0.59803   0.65197   0.25000   0.00000  Uiso   1.00
C1203  C     0.84801   0.59803   0.75000   0.00000  Uiso   1.00
C1204  C     0.65198   0.90197   0.25002   0.00000  Uiso   1.00
C1205  C     0.75012   0.50020   0.10239   0.00000  Uiso   1.00
C1206  C     0.74985   0.50033   0.89754   0.00000  Uiso   1.00
C1207  C     0.50032   0.74997   0.10241   0.00000  Uiso   1.00
C1208  C     0.50038   0.74988   0.89748   0.00000  Uiso   1.00
C1209  C     0.50016   0.75003   0.60249   0.00000  Uiso   1.00
C1210  C     0.50003   0.75025   0.39764   0.00000  Uiso   1.00
C1211  C     0.74977   0.50015   0.60246   0.00000  Uiso   1.00
C1212  C     0.73205   0.52848   0.45839   0.00000  Uiso   1.00
C1213  C     0.74956   0.99988   0.39761   0.00000  Uiso   1.00
C1214  C     0.69828   0.57068   0.01985   0.00000  Uiso   1.00
C1215  C     0.66903   0.58749   0.99416   0.00000  Uiso   1.00
C1216  C     0.80670   0.57464   0.96767   0.00000  Uiso   1.00
C1217  C     0.82528   0.59613   0.99980   0.00000  Uiso   1.00
C1218  C     0.93631   0.69345   0.01448   0.00000  Uiso   1.00
C1219  C     0.92110   0.65753   0.99939   0.00000  Uiso   1.00
C1220  C     0.93013   0.79864   0.98486   0.00000  Uiso   1.00
C1221  C     0.91142   0.83244   0.00100   0.00000  Uiso   1.00
C1222  C     0.84190   0.97597   0.03317   0.00000  Uiso   1.00
C1223  C     0.52826   0.73144   0.54161   0.00000  Uiso   1.00
C1224  C     0.86914   0.96834   0.00089   0.00000  Uiso   1.00
C1225  C     0.66051   0.96820   0.96676   0.00000  Uiso   1.00
C1226  C     0.63406   0.95778   0.99891   0.00000  Uiso   1.00
C1227  C     0.56894   0.80308   0.01831   0.00000  Uiso   1.00
C1228  C     0.58530   0.83417   0.99479   0.00000  Uiso   1.00
C1229  C     0.53668   0.66066   0.96441   0.00000  Uiso   1.00
C1230  C     0.54775   0.63368   0.99581   0.00000  Uiso   1.00
C1231  C     0.95599   0.82520   0.51985   0.00000  Uiso   1.00
C1232  C     0.92904   0.84495   0.49370   0.00000  Uiso   1.00
C1233  C     0.56438   0.81815   0.46766   0.00000  Uiso   1.00
C1234  C     0.97097   0.73451   0.45853   0.00000  Uiso   1.00
C1235  C     0.58495   0.83778   0.49977   0.00000  Uiso   1.00
C1236  C     0.67550   0.95407   0.51986   0.00000  Uiso   1.00
C1237  C     0.65638   0.92607   0.49444   0.00000  Uiso   1.00
C1238  C     0.67976   0.56257   0.46753   0.00000  Uiso   1.00
C1239  C     0.65974   0.58282   0.49961   0.00000  Uiso   1.00
C1240  C     0.58926   0.71616   0.53381   0.00000  Uiso   1.00
C1241  C     0.61570   0.70537   0.50178   0.00000  Uiso   1.00
C1242  C     0.94769   0.68163   0.48209   0.00000  Uiso   1.00
C1243  C     0.91712   0.66521   0.50633   0.00000  Uiso   1.00
C1244  C     0.78065   0.59002   0.53337   0.00000  Uiso   1.00
C1245  C     0.76750   0.52858   0.54143   0.00000  Uiso   1.00
C1246  C     0.79032   0.61670   0.50117   0.00000  Uiso   1.00
C1247  C     0.77458   0.90850   0.46707   0.00000  Uiso   1.00
C1248  C     0.78274   0.88143   0.49936   0.00000  Uiso   1.00
C1249  C     0.76555   0.97061   0.45866   0.00000  Uiso   1.00
C1250  C     0.72115   0.51613   0.08213   0.00000  Uiso   1.00
C1251  C     0.77747   0.51856   0.91770   0.00000  Uiso   1.00
C1252  C     0.98691   0.71976   0.08205   0.00000  Uiso   1.00
C1253  C     0.77706   0.51979   0.95831   0.00000  Uiso   1.00
C1254  C     0.98329   0.77798   0.91795   0.00000  Uiso   1.00
C1255  C     0.77920   0.98435   0.08210   0.00000  Uiso   1.00
C1256  C     0.72212   0.98229   0.91781   0.00000  Uiso   1.00
C1257  C     0.51449   0.77992   0.08216   0.00000  Uiso   1.00
C1258  C     0.51846   0.72195   0.91740   0.00000  Uiso   1.00
C1259  C     0.97283   0.76854   0.58216   0.00000  Uiso   1.00
C1260  C     0.52972   0.76510   0.41779   0.00000  Uiso   1.00
C1261  C     0.73179   0.97239   0.58225   0.00000  Uiso   1.00
C1262  C     0.73330   0.52873   0.41777   0.00000  Uiso   1.00
C1263  C     0.52768   0.73150   0.58236   0.00000  Uiso   1.00
C1264  C     0.98644   0.71974   0.04164   0.00000  Uiso   1.00
C1265  C     0.97044   0.73562   0.41810   0.00000  Uiso   1.00
C1266  C     0.76756   0.52809   0.58219   0.00000  Uiso   1.00
C1267  C     0.76557   0.97097   0.41794   0.00000  Uiso   1.00
C1268  C     0.75018   0.50029   0.02127   0.00000  Uiso   1.00
C1269  C     0.74989   0.50038   0.97859   0.00000  Uiso   1.00
C1270  C     0.50141   0.74962   0.02122   0.00000  Uiso   1.00
C1271  C     0.50142   0.74978   0.97854   0.00000  Uiso   1.00
C1272  C     0.50055   0.75016   0.52143   0.00000  Uiso   1.00
C1273  C     0.50043   0.75022   0.47877   0.00000  Uiso   1.00
C1274  C     0.74952   0.50031   0.52138   0.00000  Uiso   1.00
C1275  C     0.98300   0.77778   0.95832   0.00000  Uiso   1.00
C1276  C     0.74942   0.99999   0.47869   0.00000  Uiso   1.00
C1277  C     0.74999   0.99999   0.35523   0.00000  Uiso   1.00
C1278  C     0.75002   0.50002   0.64480   0.00000  Uiso   1.00
C1279  C     0.50000   0.75002   0.35524   0.00000  Uiso   1.00
C1280  C     0.50001   0.74996   0.64480   0.00000  Uiso   1.00
C1281  C     0.50005   0.74999   0.85519   0.00000  Uiso   1.00
C1282  C     0.50001   0.75000   0.14477   0.00000  Uiso   1.00
C1283  C     0.74998   0.99999   0.85521   0.00000  Uiso   1.00
C1284  C     0.75001   0.99998   0.14477   0.00000  Uiso   1.00
C1285  C     0.68001   0.56998   0.25000   0.00000  Uiso   1.00
C1286  C     0.77967   0.98443   0.04135   0.00000  Uiso   1.00
C1287  C     0.81999   0.93001   0.75000   0.00000  Uiso   1.00
C1288  C     0.93001   0.68002   0.25000   0.00000  Uiso   1.00
C1289  C     0.56999   0.81999   0.75000   0.00000  Uiso   1.00
C1290  C     0.81999   0.93001   0.25000   0.00000  Uiso   1.00
C1291  C     0.68001   0.56999   0.75000   0.00000  Uiso   1.00
C1292  C     0.56998   0.81999   0.25000   0.00000  Uiso   1.00
C1293  C     0.93001   0.68001   0.75001   0.00000  Uiso   1.00
C1294  C     0.68001   0.93002   0.75000   0.00000  Uiso   1.00
C1295  C     0.81999   0.56999   0.24999   0.00000  Uiso   1.00
C1296  C     0.93001   0.81999   0.75000   0.00000  Uiso   1.00
C1297  C     0.72176   0.98218   0.95853   0.00000  Uiso   1.00
C1298  C     0.56999   0.68001   0.25000   0.00000  Uiso   1.00
C1299  C     0.81998   0.56999   0.75000   0.00000  Uiso   1.00
C1300  C     0.68001   0.93001   0.25001   0.00000  Uiso   1.00
C1301  C     0.56999   0.68001   0.75000   0.00000  Uiso   1.00
C1302  C     0.93001   0.81999   0.25000   0.00000  Uiso   1.00
C1303  C     0.64358   0.88331   0.21521   0.00000  Uiso   1.00
C1304  C     0.85644   0.61666   0.78483   0.00000  Uiso   1.00
C1305  C     0.61671   0.64357   0.21520   0.00000  Uiso   1.00
C1306  C     0.88325   0.85638   0.78479   0.00000  Uiso   1.00
C1307  C     0.85641   0.61674   0.21519   0.00000  Uiso   1.00
C1308  C     0.51616   0.77946   0.04177   0.00000  Uiso   1.00
C1309  C     0.64355   0.88331   0.78481   0.00000  Uiso   1.00
C1310  C     0.88332   0.85645   0.21519   0.00000  Uiso   1.00
C1311  C     0.61662   0.64349   0.78484   0.00000  Uiso   1.00
C1312  C     0.64350   0.61663   0.78483   0.00000  Uiso   1.00
C1313  C     0.85646   0.88333   0.21519   0.00000  Uiso   1.00
C1314  C     0.61669   0.85642   0.78480   0.00000  Uiso   1.00
C1315  C     0.88328   0.64361   0.21520   0.00000  Uiso   1.00
C1316  C     0.85638   0.88324   0.78479   0.00000  Uiso   1.00
C1317  C     0.64357   0.61670   0.21519   0.00000  Uiso   1.00
C1318  C     0.88332   0.64353   0.78483   0.00000  Uiso   1.00
C1319  C     0.51923   0.72152   0.95817   0.00000  Uiso   1.00
C1320  C     0.61670   0.85645   0.21520   0.00000  Uiso   1.00
C1321  C     0.89355   0.63333   0.71519   0.00000  Uiso   1.00
C1322  C     0.60642   0.86668   0.28482   0.00000  Uiso   1.00
C1323  C     0.86676   0.89362   0.71521   0.00000  Uiso   1.00
C1324  C     0.63331   0.60643   0.28482   0.00000  Uiso   1.00
C1325  C     0.60644   0.86671   0.71519   0.00000  Uiso   1.00
C1326  C     0.89359   0.63327   0.28480   0.00000  Uiso   1.00
C1327  C     0.63337   0.60650   0.71518   0.00000  Uiso   1.00
C1328  C     0.86667   0.89355   0.28482   0.00000  Uiso   1.00
C1329  C     0.89355   0.86668   0.28481   0.00000  Uiso   1.00
C1330  C     0.97336   0.76947   0.54175   0.00000  Uiso   1.00
C1331  C     0.60651   0.63338   0.71517   0.00000  Uiso   1.00
C1332  C     0.86673   0.60638   0.28479   0.00000  Uiso   1.00
C1333  C     0.63331   0.89358   0.71519   0.00000  Uiso   1.00
C1334  C     0.60643   0.63329   0.28481   0.00000  Uiso   1.00
C1335  C     0.89362   0.86675   0.71520   0.00000  Uiso   1.00
C1336  C     0.63329   0.89356   0.28482   0.00000  Uiso   1.00
C1337  C     0.86667   0.60648   0.71518   0.00000  Uiso   1.00
C1338  C     0.59801   0.84803   0.25001   0.00000  Uiso   1.00
C1339  C     0.90198   0.65197   0.75001   0.00000  Uiso   1.00
C1340  C     0.65198   0.59802   0.25001   0.00000  Uiso   1.00
H1341  H     0.69851   0.52840   0.09761   0.00000  Uiso   1.00
H1342  H     0.55276   0.77602   0.40192   0.00000  Uiso   1.00
H1343  H     0.90179   0.81469   0.81454   0.00000  Uiso   1.00
H1344  H     0.81472   0.59823   0.18546   0.00000  Uiso   1.00
H1345  H     0.68519   0.90186   0.81460   0.00000  Uiso   1.00
H1346  H     0.90181   0.81476   0.18544   0.00000  Uiso   1.00
H1347  H     0.59806   0.68511   0.81465   0.00000  Uiso   1.00
H1348  H     0.68516   0.59813   0.81461   0.00000  Uiso   1.00
H1349  H     0.81481   0.90188   0.18541   0.00000  Uiso   1.00
H1350  H     0.59821   0.81470   0.81454   0.00000  Uiso   1.00
H1351  H     0.90182   0.68531   0.18545   0.00000  Uiso   1.00
H1352  H     0.81466   0.90173   0.81451   0.00000  Uiso   1.00
H1353  H     0.71797   0.95069   0.59778   0.00000  Uiso   1.00
H1354  H     0.68524   0.59816   0.18542   0.00000  Uiso   1.00
H1355  H     0.90182   0.68520   0.81459   0.00000  Uiso   1.00
H1356  H     0.59816   0.81479   0.18543   0.00000  Uiso   1.00
H1357  H     0.93526   0.65181   0.68545   0.00000  Uiso   1.00
H1358  H     0.56475   0.84812   0.31460   0.00000  Uiso   1.00
H1359  H     0.84827   0.93534   0.68549   0.00000  Uiso   1.00
H1360  H     0.65186   0.56478   0.31461   0.00000  Uiso   1.00
H1361  H     0.56476   0.84821   0.68544   0.00000  Uiso   1.00
H1362  H     0.93525   0.65181   0.31456   0.00000  Uiso   1.00
H1363  H     0.65186   0.56483   0.68540   0.00000  Uiso   1.00
H1364  H     0.72147   0.55131   0.40188   0.00000  Uiso   1.00
H1365  H     0.84812   0.93520   0.31459   0.00000  Uiso   1.00
H1366  H     0.93523   0.84819   0.31456   0.00000  Uiso   1.00
H1367  H     0.56488   0.65193   0.68536   0.00000  Uiso   1.00
H1368  H     0.84824   0.56465   0.31450   0.00000  Uiso   1.00
H1369  H     0.65185   0.93527   0.68543   0.00000  Uiso   1.00
H1370  H     0.56473   0.65178   0.31456   0.00000  Uiso   1.00
H1371  H     0.93531   0.84821   0.68546   0.00000  Uiso   1.00
H1372  H     0.65181   0.93523   0.31458   0.00000  Uiso   1.00
H1373  H     0.84812   0.56484   0.68539   0.00000  Uiso   1.00
H1374  H     0.54782   0.71614   0.59850   0.00000  Uiso   1.00
H1375  H     0.94733   0.72410   0.40279   0.00000  Uiso   1.00
H1376  H     0.78245   0.54867   0.59820   0.00000  Uiso   1.00
H1377  H     0.77920   0.94947   0.40202   0.00000  Uiso   1.00
H1378  H     0.72543   0.57712   0.00691   0.00000  Uiso   1.00
H1379  H     0.69636   0.58330   0.04915   0.00000  Uiso   1.00
H1380  H     0.64154   0.58203   0.00648   0.00000  Uiso   1.00
H1381  H     0.79914   0.53200   0.90182   0.00000  Uiso   1.00
H1382  H     0.67318   0.61747   0.99221   0.00000  Uiso   1.00
H1383  H     0.67061   0.57560   0.96458   0.00000  Uiso   1.00
H1384  H     0.77932   0.58710   0.96249   0.00000  Uiso   1.00
H1385  H     0.82358   0.57715   0.94101   0.00000  Uiso   1.00
H1386  H     0.85309   0.58511   0.00512   0.00000  Uiso   1.00
H1387  H     0.82754   0.62529   0.99131   0.00000  Uiso   1.00
H1388  H     0.80904   0.59414   0.02692   0.00000  Uiso   1.00
H1389  H     0.93229   0.71446   0.99163   0.00000  Uiso   1.00
H1390  H     0.92063   0.70117   0.04096   0.00000  Uiso   1.00
H1391  H     0.92437   0.63585   0.02162   0.00000  Uiso   1.00
H1392  H     0.97614   0.69632   0.09744   0.00000  Uiso   1.00
H1393  H     0.89163   0.66068   0.99262   0.00000  Uiso   1.00
H1394  H     0.93580   0.64932   0.97261   0.00000  Uiso   1.00
H1395  H     0.92776   0.77656   0.00682   0.00000  Uiso   1.00
H1396  H     0.91564   0.79043   0.95780   0.00000  Uiso   1.00
H1397  H     0.91302   0.85511   0.97968   0.00000  Uiso   1.00
H1398  H     0.88226   0.82635   0.00703   0.00000  Uiso   1.00
H1399  H     0.92487   0.84101   0.02838   0.00000  Uiso   1.00
H1400  H     0.84963   0.95906   0.05864   0.00000  Uiso   1.00
H1401  H     0.84396   0.50551   0.04081   0.00000  Uiso   1.00
H1402  H     0.86228   0.98489   0.97491   0.00000  Uiso   1.00
H1403  H     0.96971   0.79997   0.90264   0.00000  Uiso   1.00
H1404  H     0.89711   0.97556   0.01067   0.00000  Uiso   1.00
H1405  H     0.86850   0.93893   0.99306   0.00000  Uiso   1.00
H1406  H     0.65437   0.95089   0.94113   0.00000  Uiso   1.00
H1407  H     0.65578   0.99750   0.95942   0.00000  Uiso   1.00
H1408  H     0.60556   0.96251   0.98917   0.00000  Uiso   1.00
H1409  H     0.63737   0.92847   0.00642   0.00000  Uiso   1.00
H1410  H     0.63937   0.97461   0.02509   0.00000  Uiso   1.00
H1411  H     0.57462   0.77702   0.00272   0.00000  Uiso   1.00
H1412  H     0.58254   0.80249   0.04719   0.00000  Uiso   1.00
H1413  H     0.58061   0.86059   0.00979   0.00000  Uiso   1.00
H1414  H     0.80080   0.97094   0.09807   0.00000  Uiso   1.00
H1415  H     0.61515   0.82990   0.99138   0.00000  Uiso   1.00
H1416  H     0.57249   0.83515   0.96563   0.00000  Uiso   1.00
H1417  H     0.55535   0.65672   0.93935   0.00000  Uiso   1.00
H1418  H     0.50805   0.65432   0.95564   0.00000  Uiso   1.00
H1419  H     0.52964   0.63667   0.02143   0.00000  Uiso   1.00
H1420  H     0.54544   0.60535   0.98460   0.00000  Uiso   1.00
H1421  H     0.57645   0.63870   0.00475   0.00000  Uiso   1.00
H1422  H     0.98385   0.82882   0.50736   0.00000  Uiso   1.00
H1423  H     0.95497   0.83795   0.54913   0.00000  Uiso   1.00
H1424  H     0.90096   0.84240   0.50556   0.00000  Uiso   1.00
H1425  H     0.70167   0.96722   0.90179   0.00000  Uiso   1.00
H1426  H     0.93634   0.87433   0.49187   0.00000  Uiso   1.00
H1427  H     0.92982   0.83298   0.46413   0.00000  Uiso   1.00
H1428  H     0.53833   0.83318   0.46250   0.00000  Uiso   1.00
H1429  H     0.58139   0.81901   0.44099   0.00000  Uiso   1.00
H1430  H     0.61152   0.82408   0.50518   0.00000  Uiso   1.00
H1431  H     0.59009   0.86655   0.49120   0.00000  Uiso   1.00
H1432  H     0.56855   0.83747   0.52686   0.00000  Uiso   1.00
H1433  H     0.67137   0.98153   0.50661   0.00000  Uiso   1.00
H1434  H     0.66269   0.95349   0.54914   0.00000  Uiso   1.00
H1435  H     0.65947   0.89835   0.50710   0.00000  Uiso   1.00
H1436  H     0.52525   0.80331   0.09763   0.00000  Uiso   1.00
H1437  H     0.62686   0.93269   0.49234   0.00000  Uiso   1.00
H1438  H     0.66843   0.92633   0.46489   0.00000  Uiso   1.00
H1439  H     0.66508   0.53635   0.46218   0.00000  Uiso   1.00
H1440  H     0.67886   0.57969   0.44094   0.00000  Uiso   1.00
H1441  H     0.63100   0.58783   0.49085   0.00000  Uiso   1.00
H1442  H     0.65997   0.56628   0.52660   0.00000  Uiso   1.00
H1443  H     0.67323   0.60946   0.50528   0.00000  Uiso   1.00
H1444  H     0.59483   0.69854   0.55936   0.00000  Uiso   1.00
H1445  H     0.59460   0.74530   0.54139   0.00000  Uiso   1.00
H1446  H     0.61096   0.72251   0.47570   0.00000  Uiso   1.00
H1447  H     0.53302   0.70145   0.90097   0.00000  Uiso   1.00
H1448  H     0.64423   0.70938   0.51179   0.00000  Uiso   1.00
H1449  H     0.61177   0.67620   0.49402   0.00000  Uiso   1.00
H1450  H     0.97408   0.67588   0.49700   0.00000  Uiso   1.00
H1451  H     0.94761   0.66813   0.45316   0.00000  Uiso   1.00
H1452  H     0.89038   0.66997   0.49202   0.00000  Uiso   1.00
H1453  H     0.92144   0.63535   0.50952   0.00000  Uiso   1.00
H1454  H     0.91681   0.67793   0.53556   0.00000  Uiso   1.00
H1455  H     0.79814   0.59634   0.55882   0.00000  Uiso   1.00
H1456  H     0.75136   0.59432   0.54108   0.00000  Uiso   1.00
H1457  H     0.78530   0.64511   0.51106   0.00000  Uiso   1.00
H1458  H     0.95142   0.78288   0.59761   0.00000  Uiso   1.00
H1459  H     0.81959   0.61383   0.49327   0.00000  Uiso   1.00
H1460  H     0.77327   0.61122   0.47520   0.00000  Uiso   1.00
H1461  H     0.79134   0.90085   0.44148   0.00000  Uiso   1.00
H1462  H     0.74499   0.90615   0.45972   0.00000  Uiso   1.00
H1463  H     0.76636   0.88821   0.52549   0.00000  Uiso   1.00
H1464  H     0.77570   0.85337   0.48975   0.00000  Uiso   1.00
H1465  H     0.81221   0.88238   0.50691   0.00000  Uiso   1.00
H1466  H     0.68531   0.90178   0.18547   0.00000  Uiso   1.00
H1467  H     0.81478   0.59810   0.81461   0.00000  Uiso   1.00
H1468  H     0.59822   0.68527   0.18545   0.00000  Uiso   1.00
O1469  O     0.75000   0.50000   0.25000   0.00000  Uiso   1.00
O1470  O     0.75000   0.96964   0.66317   0.00000  Uiso   1.00
O1471  O     0.86048   0.58840   0.68056   0.00000  Uiso   1.00
O1472  O     0.96964   0.75000   0.33683   0.00000  Uiso   1.00
O1473  O     0.53036   0.75000   0.66317   0.00000  Uiso   1.00
O1474  O     0.50000   0.71964   0.83683   0.00000  Uiso   1.00
O1475  O     0.50000   0.78036   0.16317   0.00000  Uiso   1.00
O1476  O     0.78036   0.50000   0.83683   0.00000  Uiso   1.00
O1477  O     0.71964   0.50000   0.16317   0.00000  Uiso   1.00
O1478  O     0.50000   0.78036   0.83683   0.00000  Uiso   1.00
O1479  O     0.50000   0.71964   0.16317   0.00000  Uiso   1.00
O1480  O     0.71964   0.50000   0.83683   0.00000  Uiso   1.00
O1481  O     0.75000   0.50000   0.75000   0.00000  Uiso   1.00
O1482  O     0.78036   0.50000   0.16317   0.00000  Uiso   1.00
O1483  O     0.70725   0.57307   0.27282   0.00000  Uiso   1.00
O1484  O     0.79274   0.92693   0.72718   0.00000  Uiso   1.00
O1485  O     0.92693   0.70725   0.27282   0.00000  Uiso   1.00
O1486  O     0.57307   0.79274   0.72718   0.00000  Uiso   1.00
O1487  O     0.79274   0.92693   0.27282   0.00000  Uiso   1.00
O1488  O     0.70725   0.57307   0.72718   0.00000  Uiso   1.00
O1489  O     0.57307   0.79274   0.27282   0.00000  Uiso   1.00
O1490  O     0.92693   0.70725   0.72718   0.00000  Uiso   1.00
O1491  O     0.70725   0.92693   0.72718   0.00000  Uiso   1.00
O1492  O     0.50000   0.75000   0.25000   0.00000  Uiso   1.00
O1493  O     0.79274   0.57307   0.27282   0.00000  Uiso   1.00
O1494  O     0.92693   0.79274   0.72718   0.00000  Uiso   1.00
O1495  O     0.57307   0.70725   0.27282   0.00000  Uiso   1.00
O1496  O     0.79274   0.57307   0.72718   0.00000  Uiso   1.00
O1497  O     0.70725   0.92693   0.27282   0.00000  Uiso   1.00
O1498  O     0.57307   0.70725   0.72718   0.00000  Uiso   1.00
O1499  O     0.92693   0.79274   0.27282   0.00000  Uiso   1.00
O1500  O     0.95725   0.82307   0.77282   0.00000  Uiso   1.00
O1501  O     0.54274   0.67693   0.22718   0.00000  Uiso   1.00
O1502  O     0.67693   0.95725   0.77282   0.00000  Uiso   1.00
O1503  O     0.50000   0.75000   0.75000   0.00000  Uiso   1.00
O1504  O     0.82307   0.54274   0.22718   0.00000  Uiso   1.00
O1505  O     0.54274   0.67693   0.77282   0.00000  Uiso   1.00
O1506  O     0.95725   0.82307   0.22718   0.00000  Uiso   1.00
O1507  O     0.82307   0.54274   0.77282   0.00000  Uiso   1.00
O1508  O     0.67693   0.95725   0.22718   0.00000  Uiso   1.00
O1509  O     0.95725   0.67693   0.22718   0.00000  Uiso   1.00
O1510  O     0.54274   0.82307   0.77282   0.00000  Uiso   1.00
O1511  O     0.67693   0.54274   0.22718   0.00000  Uiso   1.00
O1512  O     0.82307   0.95725   0.77282   0.00000  Uiso   1.00
O1513  O     0.54274   0.82307   0.22718   0.00000  Uiso   1.00
O1514  O     0.75000   0.96964   0.33683   0.00000  Uiso   1.00
O1515  O     0.95725   0.67693   0.77282   0.00000  Uiso   1.00
O1516  O     0.82307   0.95725   0.22718   0.00000  Uiso   1.00
O1517  O     0.67693   0.54274   0.77282   0.00000  Uiso   1.00
O1518  O     0.69251   0.53266   0.02205   0.00000  Uiso   1.00
O1519  O     0.80420   0.53765   0.97901   0.00000  Uiso   1.00
O1520  O     0.97382   0.68909   0.02247   0.00000  Uiso   1.00
O1521  O     0.96718   0.80676   0.97775   0.00000  Uiso   1.00
O1522  O     0.80653   0.96633   0.02030   0.00000  Uiso   1.00
O1523  O     0.69661   0.96176   0.97960   0.00000  Uiso   1.00
O1524  O     0.53106   0.80894   0.02239   0.00000  Uiso   1.00
O1525  O     0.75000   0.53036   0.66317   0.00000  Uiso   1.00
O1526  O     0.54015   0.69655   0.97903   0.00000  Uiso   1.00
O1527  O     0.94629   0.78796   0.52193   0.00000  Uiso   1.00
O1528  O     0.55837   0.78156   0.47901   0.00000  Uiso   1.00
O1529  O     0.71291   0.94520   0.52223   0.00000  Uiso   1.00
O1530  O     0.71634   0.55693   0.47910   0.00000  Uiso   1.00
O1531  O     0.55313   0.71061   0.52064   0.00000  Uiso   1.00
O1532  O     0.94177   0.71953   0.47830   0.00000  Uiso   1.00
O1533  O     0.78749   0.55406   0.52035   0.00000  Uiso   1.00
O1534  O     0.78398   0.94400   0.47973   0.00000  Uiso   1.00
O1535  O     0.66173   0.88947   0.18061   0.00000  Uiso   1.00
O1536  O     0.53036   0.75000   0.33683   0.00000  Uiso   1.00
O1537  O     0.83834   0.61046   0.81945   0.00000  Uiso   1.00
O1538  O     0.61056   0.66171   0.18059   0.00000  Uiso   1.00
O1539  O     0.88936   0.83821   0.81939   0.00000  Uiso   1.00
O1540  O     0.83826   0.61062   0.18060   0.00000  Uiso   1.00
O1541  O     0.66165   0.88947   0.81943   0.00000  Uiso   1.00
O1542  O     0.88949   0.83833   0.18058   0.00000  Uiso   1.00
O1543  O     0.61038   0.66154   0.81947   0.00000  Uiso   1.00
O1544  O     0.66157   0.61041   0.81946   0.00000  Uiso   1.00
O1545  O     0.83836   0.88951   0.18057   0.00000  Uiso   1.00
O1546  O     0.61053   0.83827   0.81940   0.00000  Uiso   1.00
O1547  O     0.96964   0.75000   0.66317   0.00000  Uiso   1.00
O1548  O     0.88943   0.66178   0.18060   0.00000  Uiso   1.00
O1549  O     0.83819   0.88934   0.81938   0.00000  Uiso   1.00
O1550  O     0.66170   0.61054   0.18058   0.00000  Uiso   1.00
O1551  O     0.88949   0.66163   0.81944   0.00000  Uiso   1.00
O1552  O     0.61054   0.83834   0.18059   0.00000  Uiso   1.00
O1553  O     0.91168   0.63952   0.68058   0.00000  Uiso   1.00
O1554  O     0.58829   0.86050   0.31944   0.00000  Uiso   1.00
O1555  O     0.86066   0.91181   0.68062   0.00000  Uiso   1.00
O1556  O     0.63947   0.58832   0.31944   0.00000  Uiso   1.00
O1557  O     0.58832   0.86056   0.68058   0.00000  Uiso   1.00
O1558  O     0.75000   0.53036   0.33683   0.00000  Uiso   1.00
O1559  O     0.91173   0.63939   0.31940   0.00000  Uiso   1.00
O1560  O     0.63958   0.58843   0.68055   0.00000  Uiso   1.00
O1561  O     0.86049   0.91165   0.31943   0.00000  Uiso   1.00
O1562  O     0.91167   0.86051   0.31942   0.00000  Uiso   1.00
O1563  O     0.58846   0.63961   0.68054   0.00000  Uiso   1.00
O1564  O     0.86060   0.58820   0.31938   0.00000  Uiso   1.00
O1565  O     0.63949   0.91172   0.68058   0.00000  Uiso   1.00
O1566  O     0.58829   0.63944   0.31942   0.00000  Uiso   1.00
O1567  O     0.91180   0.86064   0.68061   0.00000  Uiso   1.00
O1568  O     0.63944   0.91168   0.31943   0.00000  Uiso   1.00
Zn1569 Zn    0.70660   0.50000   0.21760   0.00000  Uiso   1.00
Zn1570 Zn    0.54340   0.75000   0.28240   0.00000  Uiso   1.00
Zn1571 Zn    0.75000   0.95660   0.71760   0.00000  Uiso   1.00
Zn1572 Zn    0.75000   0.54340   0.28240   0.00000  Uiso   1.00
Zn1573 Zn    0.54340   0.75000   0.71760   0.00000  Uiso   1.00
Zn1574 Zn    0.95660   0.75000   0.28240   0.00000  Uiso   1.00
Zn1575 Zn    0.75000   0.54340   0.71760   0.00000  Uiso   1.00
Zn1576 Zn    0.75000   0.95660   0.28240   0.00000  Uiso   1.00
Zn1577 Zn    0.79340   0.50000   0.78240   0.00000  Uiso   1.00
Zn1578 Zn    0.50000   0.70660   0.21760   0.00000  Uiso   1.00
Zn1579 Zn    0.50000   0.79340   0.78240   0.00000  Uiso   1.00
Zn1580 Zn    0.79340   0.50000   0.21760   0.00000  Uiso   1.00
Zn1581 Zn    0.70660   0.50000   0.78240   0.00000  Uiso   1.00
Zn1582 Zn    0.50000   0.79340   0.21760   0.00000  Uiso   1.00
Zn1583 Zn    0.50000   0.70660   0.78240   0.00000  Uiso   1.00
Zn1584 Zn    0.95660   0.75000   0.71760   0.00000  Uiso   1.00
loop_
_geom_bond_atom_site_label_1
_geom_bond_atom_site_label_2
_geom_bond_distance
_geom_bond_site_symmetry_2
_ccdc_geom_bond_type
C1     C62     1.395   .     A
C1     O330    1.382   .     S
C1     C80     1.408   .     A
C2     C85     1.408   .     A
C2     C72     1.403   .     A
C2     O340    1.388   .     S
C3     C128    1.416   .     A
C3     C99     1.452   .     S
C3     C135    1.416   .     A
C4     C127    1.416   .     A
C4     C138    1.416   .     A
C4     C100    1.452   .     S
C5     C126    1.416   .     A
C5     C101    1.452   .     S
C5     C137    1.416   .     A
C6     C125    1.416   .     A
C6     C102    1.452   .     S
C6     C140    1.416   .     A
C7     C103    1.452   .     S
C7     C124    1.416   .     A
C7     C139    1.416   .     A
C8     C123    1.416   .     A
C8     C143    1.416   .     A
C8     C113    1.452   .     S
C9     C114    1.452   .     S
C9     C122    1.416   .     A
C9     C141    1.416   .     A
C10    C106    1.452   .     S
C10    C121    1.416   .     A
C10    C145    1.416   .     A
C11    C119    1.416   .     A
C11    C107    1.452   .     S
C11    C144    1.416   .     A
C12    C108    1.452   .     S
C12    C147    1.416   .     A
C12    C118    1.416   .     A
C13    C73     1.395   .     A
C13    O341    1.382   .     S
C13    C878    1.409   .     S
C14    C117    1.416   .     A
C14    C110    1.452   .     S
C14    C146    1.416   .     A
C15    C111    1.452   .     S
C15    C149    1.416   .     A
C15    C116    1.416   .     A
C16    C115    1.416   .     A
C16    C112    1.452   .     S
C16    C148    1.416   .     A
C17    C62     1.398   .     A
C17    C859    1.400   1_545 S
C17    C888    1.462   1_545 S
C18    C63     1.398   .     A
C18    C860    1.399   1_545 S
C18    C887    1.461   1_545 S
C19    C94     1.462   .     S
C19    C69     1.400   .     A
C19    C460    1.400   1_455 S
C20    C70     1.399   .     A
C20    C93     1.459   .     S
C20    C462    1.397   1_455 S
C21    C75     1.400   .     A
C21    C92     1.460   .     S
C21    C467    1.398   1_455 S
C22    C72     1.400   .     A
C22    C473    1.400   1_455 S
C22    C91     1.463   .     S
C23    C90     1.461   .     S
C23    C78     1.400   .     A
C23    C865    1.398   1_545 S
C24    O342    1.388   .     S
C24    C74     1.402   .     A
C24    C880    1.408   1_545 S
C25    C89     1.462   .     S
C25    C79     1.399   .     A
C25    C866    1.398   .     S
C26    H191    1.114   .     S
C26    O330    1.411   .     S
C26    H190    1.115   .     S
C26    C27     1.521   1_554 S
C27    H194    1.110   .     S
C27    H195    1.111   .     S
C27    C26     1.521   1_556 S
C27    H192    1.111   1_556 S
C28    H197    1.112   .     S
C28    H196    1.116   .     S
C28    C29     1.521   .     S
C28    O331    1.413   .     S
C29    H199    1.110   .     S
C29    H198    1.111   1_556 S
C29    H200    1.111   1_556 S
C30    H202    1.115   .     S
C30    O332    1.410   .     S
C30    C31     1.521   1_554 S
C30    H201    1.111   1_554 S
C31    H205    1.110   .     S
C31    H206    1.111   .     S
C31    C30     1.521   1_556 S
C31    H203    1.111   1_556 S
C32    O333    1.410   .     S
C32    H208    1.115   .     S
C32    C33     1.521   1_556 S
C32    H207    1.112   1_556 S
C33    H210    1.110   .     S
C33    H211    1.111   .     S
C33    C32     1.521   1_554 S
C33    H209    1.111   1_554 S
C34    O334    1.414   .     S
C34    C36     1.521   .     S
C34    H212    1.111   .     S
C34    H1005   1.116   .     S
C35    C84     1.409   .     A
C35    O343    1.391   .     S
C35    C75     1.406   .     A
C36    H216    1.110   .     S
C36    H214    1.111   1_554 S
C36    H217    1.111   1_554 S
C37    C38     1.521   .     S
C37    O335    1.414   .     S
C37    H218    1.111   .     S
C37    H219    1.116   .     S
C38    H220    1.110   .     S
C38    H221    1.111   1_556 S
C38    H222    1.111   1_556 S
C39    H224    1.114   .     S
C39    H223    1.115   .     S
C39    O336    1.411   .     S
C39    C40     1.521   1_554 S
C40    H228    1.111   .     S
C40    H227    1.110   .     S
C40    C39     1.521   1_556 S
C40    H225    1.111   1_556 S
C41    H230    1.116   .     S
C41    C42     1.521   .     S
C41    O338    1.414   .     S
C41    H229    1.111   .     S
C42    H232    1.110   .     S
C42    H231    1.111   1_556 S
C42    H233    1.111   1_556 S
C43    H234    1.115   .     S
C43    C44     1.520   .     S
C43    H235    1.114   .     S
C43    O339    1.411   .     S
C44    H236    1.111   .     S
C44    H238    1.110   .     S
C44    H239    1.111   .     S
C45    C47     1.521   .     S
C45    O340    1.413   .     S
C45    H241    1.112   .     S
C45    H240    1.116   .     S
C46    C77     1.395   .     A
C46    O344    1.382   .     S
C46    C481    1.408   .     S
C47    H244    1.111   .     S
C47    H242    1.111   .     S
C47    H243    1.110   .     S
C48    H246    1.114   .     S
C48    O341    1.411   .     S
C48    H245    1.115   .     S
C48    C49     1.521   .     S
C49    H250    1.111   .     S
C49    H249    1.110   .     S
C49    H247    1.111   .     S
C50    H252    1.111   .     S
C50    O342    1.413   .     S
C50    H251    1.116   .     S
C50    C51     1.521   .     S
C51    H255    1.111   .     S
C51    H254    1.111   .     S
C51    H253    1.111   .     S
C52    O343    1.414   .     S
C52    C53     1.521   .     S
C52    H256    1.111   .     S
C52    H257    1.116   .     S
C53    H258    1.111   .     S
C53    H261    1.111   .     S
C53    H260    1.110   .     S
C54    O344    1.411   .     S
C54    H263    1.114   .     S
C54    C55     1.521   .     S
C54    H262    1.115   .     S
C55    H265    1.110   .     S
C55    H264    1.111   .     S
C55    H266    1.111   .     S
C56    O345    1.414   .     S
C56    H267    1.111   .     S
C56    C58     1.521   .     S
C56    H268    1.116   .     S
C57    O345    1.391   .     S
C57    C78     1.406   .     A
C57    C86     1.409   .     A
C58    H272    1.111   .     S
C58    H271    1.111   .     S
C58    H269    1.110   .     S
C59    C60     1.521   .     S
C59    O346    1.414   .     S
C59    H274    1.116   .     S
C59    H273    1.111   .     S
C60    H275    1.111   .     S
C60    H277    1.111   .     S
C60    H276    1.110   .     S
C61    C79     1.405   .     A
C61    O346    1.391   .     S
C61    C88     1.409   .     A
C62    H153    1.084   .     S
C63    C65     1.402   .     A
C63    H193    1.083   .     S
C64    H204    1.084   .     S
C64    C76     1.394   .     A
C64    C415    1.400   .     S
C65    O331    1.388   .     S
C65    C81     1.409   .     A
C66    H215    1.084   .     S
C66    C87     1.393   .     A
C66    C416    1.397   .     S
C67    H226    1.082   .     S
C67    C98     1.406   .     A
C67    C809    1.400   .     S
C68    H237    1.082   .     S
C68    C109    1.405   .     A
C68    C810    1.399   .     S
C69    C120    1.395   .     A
C69    H248    1.084   .     S
C70    H259    1.082   .     S
C70    C131    1.407   .     A
C71    H270    1.084   .     S
C71    C142    1.395   .     A
C71    C417    1.398   .     S
C72    H154    1.083   .     S
C73    H165    1.084   .     S
C73    C815    1.398   .     S
C74    H176    1.082   .     S
C74    C817    1.398   1_545 S
C75    H186    1.082   .     S
C76    O332    1.383   .     S
C76    C478    1.412   .     S
C77    H187    1.084   .     S
C77    C418    1.400   .     S
C78    H188    1.082   .     S
C79    H189    1.082   .     S
C80    C81     1.473   1_554 S
C80    C890    1.409   1_545 S
C81    C80     1.473   1_556 S
C81    C901    1.409   1_545 S
C82    C120    1.410   .     A
C82    C472    1.412   1_455 S
C82    C83     1.473   1_554 S
C83    C131    1.411   .     A
C83    C82     1.473   1_556 S
C83    C483    1.412   1_455 S
C84    C85     1.472   .     S
C84    C538    1.408   1_455 S
C85    C442    1.408   1_455 S
C86    C805    1.409   1_545 S
C86    C880    1.473   1_545 S
C87    O333    1.383   .     S
C87    C479    1.412   .     S
C88    C816    1.408   .     S
C88    C878    1.473   .     S
C89    O326    1.280   .     A
C89    O1162   1.281   .     S
C90    O337    1.280   .     A
C90    O1074   1.280   1_545 S
C91    O680    1.281   1_455 A
C91    O348    1.280   .     S
C92    O285    1.279   .     A
C92    O755    1.280   1_455 S
C93    O286    1.279   .     A
C93    O290    1.280   .     S
C94    O287    1.280   .     A
C94    O291    1.280   .     A
C95    O1080   1.280   .     A
C95    O1084   1.280   .     A
C95    C810    1.461   .     S
C96    O1081   1.281   .     A
C96    O1086   1.280   .     A
C96    C809    1.462   .     S
C97    O323    1.276   .     A
C97    C152    1.452   .     S
C97    O295    1.276   .     A
C98    O334    1.391   .     S
C98    C872    1.409   .     S
C99    O324    1.276   .     A
C99    O296    1.276   .     A
C100   O321    1.276   .     A
C100   O297    1.276   .     A
C101   O298    1.276   .     A
C101   O322    1.276   .     A
C102   O299    1.276   .     A
C102   O328    1.276   .     A
C103   O300    1.276   .     A
C103   O329    1.276   .     A
C104   C150    1.452   .     S
C104   O301    1.276   .     A
C104   O325    1.276   .     A
C105   O327    1.276   .     A
C105   C151    1.452   .     S
C105   O302    1.276   .     A
C106   O303    1.276   .     A
C106   O314    1.276   .     A
C107   O305    1.276   .     A
C107   O316    1.276   .     A
C108   O306    1.276   .     A
C108   O312    1.276   .     A
C109   O335    1.391   .     S
C109   C873    1.409   .     S
C110   O307    1.276   .     A
C110   O313    1.276   .     A
C111   O319    1.276   .     A
C111   O308    1.276   .     A
C112   O309    1.276   .     A
C112   O320    1.276   .     A
C113   O317    1.276   .     A
C113   O310    1.276   .     A
C114   O318    1.276   .     A
C114   O311    1.276   .     A
C115   O347    1.385   .     S
C115   C132    1.392   .     A
C116   C130    1.392   .     A
C116   O349    1.385   .     S
C117   C129    1.392   .     A
C117   O350    1.385   .     S
C118   O351    1.385   .     S
C118   C128    1.392   .     A
C119   O352    1.385   .     S
C119   C127    1.392   .     A
C120   O336    1.382   .     S
C121   O353    1.385   .     S
C121   C126    1.392   .     A
C122   O354    1.385   .     S
C122   C125    1.392   .     A
C123   C124    1.392   .     A
C123   O355    1.385   .     S
C124   O356    1.385   .     S
C125   O357    1.385   .     S
C126   O358    1.385   .     S
C127   O360    1.385   .     S
C128   O361    1.385   .     S
C129   C152    1.416   .     A
C129   O362    1.385   .     S
C130   O363    1.385   .     S
C130   C151    1.416   .     A
C131   O338    1.393   .     S
C132   C150    1.416   .     A
C132   O364    1.385   .     S
C133   C151    1.416   .     A
C133   C149    1.392   .     A
C133   O365    1.385   .     S
C134   C150    1.416   .     A
C134   O366    1.385   .     S
C134   C148    1.392   .     A
C135   C147    1.392   .     A
C135   O367    1.385   .     S
C136   C152    1.416   .     A
C136   C146    1.392   .     A
C136   O368    1.385   .     S
C137   O369    1.385   .     S
C137   C145    1.392   .     A
C138   C144    1.392   .     A
C138   O371    1.385   .     S
C139   C143    1.392   .     A
C139   O372    1.385   .     S
C140   C141    1.392   .     A
C140   O373    1.385   .     S
C141   O374    1.385   .     S
C142   O339    1.382   .     S
C142   C480    1.408   .     S
C143   O375    1.385   .     S
C144   O376    1.385   .     S
C145   O377    1.385   .     S
C146   O378    1.385   .     S
C147   O379    1.385   .     S
C148   O380    1.385   .     S
C149   O283    1.385   .     S
H155   O351    0.988   .     S
H156   O352    0.988   .     S
H157   O353    0.988   .     S
H158   O354    0.988   .     S
H159   O355    0.988   .     S
H160   O356    0.988   .     S
H161   O357    0.988   .     S
H162   O358    0.988   .     S
H163   O360    0.988   .     S
H164   O361    0.988   .     S
H166   O362    0.988   .     S
H167   O363    0.988   .     S
H168   O364    0.988   .     S
H169   O365    0.988   .     S
H170   O366    0.988   .     S
H171   O367    0.988   .     S
H172   O368    0.988   .     S
H173   O369    0.988   .     S
H174   O371    0.988   .     S
H175   O372    0.988   .     S
H177   O373    0.988   .     S
H178   O374    0.988   .     S
H179   O375    0.988   .     S
H180   O376    0.988   .     S
H181   O377    0.988   .     S
H182   O378    0.988   .     S
H183   O379    0.988   .     S
H184   O380    0.988   .     S
H185   O283    0.988   .     S
H192   C27     1.111   1_554 S
H198   C29     1.111   1_554 S
H200   C29     1.111   1_554 S
H201   C30     1.111   1_556 S
H203   C31     1.111   1_554 S
H207   C32     1.112   1_554 S
H209   C33     1.111   1_556 S
H213   C826    1.116   1_545 S
H214   C36     1.111   1_556 S
H217   C36     1.111   1_556 S
H221   C38     1.111   1_554 S
H222   C38     1.111   1_554 S
H225   C40     1.111   1_554 S
H231   C42     1.111   1_554 S
H233   C42     1.111   1_554 S
H278   O347    0.988   .     S
H279   O349    0.988   .     S
H280   O350    0.988   .     S
O281   Zn384   1.943   .     S
O281   Zn381   1.943   .     S
O281   Zn1180  1.943   1_545 S
O281   Zn392   1.943   .     S
O282   Zn383   1.938   .     S
O282   C882    1.280   .     S
O284   Zn386   1.938   .     S
O284   C487    1.281   .     A
O285   Zn385   1.938   .     S
O286   Zn395   1.938   .     S
O287   Zn394   1.938   .     S
O288   C887    1.280   1_545 A
O288   Zn389   1.938   .     S
O289   Zn381   1.938   .     S
O289   C888    1.281   1_545 A
O290   Zn391   1.938   .     S
O291   Zn390   1.938   .     S
O292   C887    1.280   1_545 A
O292   Zn393   1.938   .     S
O293   Zn393   1.943   .     S
O293   Zn389   1.943   .     S
O293   Zn387   1.943   .     S
O293   Zn1175  1.943   1_545 S
O294   Zn392   1.938   .     S
O294   C888    1.280   1_545 A
O295   Zn384   1.934   .     S
O296   Zn383   1.934   .     S
O297   Zn386   1.934   .     S
O298   Zn385   1.934   .     S
O299   Zn388   1.934   .     S
O300   Zn387   1.934   .     S
O301   Zn382   1.934   .     S
O302   Zn396   1.934   .     S
O303   Zn383   1.934   .     S
O304   Zn390   1.943   .     S
O304   Zn382   1.943   .     S
O304   Zn782   1.943   1_455 S
O304   Zn394   1.943   .     S
O305   Zn384   1.934   .     S
O306   Zn396   1.934   .     S
O307   Zn382   1.934   .     S
O308   Zn387   1.934   .     S
O309   Zn388   1.934   .     S
O310   Zn385   1.934   .     S
O311   Zn386   1.934   .     S
O312   Zn787   1.934   .     S
O313   Zn390   1.934   .     S
O314   Zn1185  1.934   .     S
O315   Zn385   1.943   .     S
O315   Zn391   1.943   .     S
O315   Zn395   1.943   .     S
O315   Zn792   1.943   1_455 S
O316   Zn392   1.934   .     S
O317   Zn395   1.934   .     S
O318   Zn790   1.934   .     S
O319   Zn389   1.934   .     S
O320   Zn1173  1.934   .     S
O321   Zn786   1.934   .     S
O322   Zn391   1.934   .     S
O323   Zn381   1.934   .     S
O324   Zn1181  1.934   .     S
O325   Zn394   1.934   .     S
O326   Zn388   1.938   .     S
O327   Zn791   1.934   .     S
O328   Zn1184  1.934   .     S
O329   Zn393   1.934   .     S
O337   Zn387   1.938   .     S
O348   Zn382   1.938   .     S
O359   Zn396   1.938   .     S
O359   C488    1.280   .     S
O370   Zn384   1.938   .     S
O370   C881    1.281   1_545 S
Zn381  O1112   1.934   1_545 S
Zn383  O1085   1.943   .     S
Zn386  O700    1.943   .     S
Zn388  O1073   1.943   .     S
Zn389  O1116   1.934   1_545 S
Zn390  O717    1.934   1_455 S
Zn391  O708    1.934   1_455 S
Zn392  O1120   1.934   1_545 S
Zn393  O1106   1.934   1_545 S
Zn394  O714    1.934   1_455 S
Zn395  O723    1.934   1_455 S
Zn396  O711    1.943   .     S
C397   C458    1.395   .     A
C397   O726    1.382   .     S
C397   C476    1.408   .     A
C398   C481    1.408   .     A
C398   C468    1.403   .     A
C398   O736    1.388   .     S
C399   C524    1.416   .     A
C399   C495    1.452   .     S
C399   C531    1.416   .     A
C400   C523    1.416   .     A
C400   C534    1.416   .     A
C400   C496    1.452   .     S
C401   C522    1.416   .     A
C401   C497    1.452   .     S
C401   C533    1.416   .     A
C402   C521    1.416   .     A
C402   C498    1.452   .     S
C402   C536    1.416   .     A
C403   C499    1.452   .     S
C403   C520    1.416   .     A
C403   C535    1.416   .     A
C404   C519    1.416   .     A
C404   C539    1.416   .     A
C404   C509    1.452   .     S
C405   C510    1.452   .     S
C405   C518    1.416   .     A
C405   C537    1.416   .     A
C406   C502    1.452   .     S
C406   C517    1.416   .     A
C406   C541    1.416   .     A
C407   C515    1.416   .     A
C407   C503    1.452   .     S
C407   C540    1.416   .     A
C408   C504    1.452   .     S
C408   C543    1.416   .     A
C408   C514    1.416   .     A
C409   C469    1.395   .     A
C409   O737    1.382   .     S
C409   C1274   1.409   .     S
C410   C513    1.416   .     A
C410   C506    1.452   .     S
C410   C542    1.416   .     A
C411   C507    1.452   .     S
C411   C545    1.416   .     A
C411   C512    1.416   .     A
C412   C511    1.416   .     A
C412   C508    1.452   .     S
C412   C544    1.416   .     A
C413   C458    1.398   .     A
C413   C1255   1.400   1_545 S
C413   C1284   1.462   1_545 S
C414   C459    1.398   .     A
C414   C1256   1.399   1_545 S
C414   C1283   1.461   1_545 S
C415   C490    1.462   .     S
C415   C465    1.400   .     A
C416   C466    1.399   .     A
C416   C489    1.459   .     S
C417   C471    1.400   .     A
C417   C488    1.460   .     S
C418   C468    1.400   .     A
C418   C487    1.463   .     S
C419   C486    1.461   .     S
C419   C474    1.400   .     A
C419   C1261   1.398   1_545 S
C420   O738    1.388   .     S
C420   C470    1.402   .     A
C420   C1276   1.408   1_545 S
C421   C485    1.462   .     S
C421   C475    1.399   .     A
C421   C1262   1.398   .     S
C422   H587    1.114   .     S
C422   O726    1.411   .     S
C422   H586    1.115   .     S
C422   C423    1.521   1_554 S
C423   H590    1.110   .     S
C423   H591    1.111   .     S
C423   C422    1.521   1_556 S
C423   H588    1.111   1_556 S
C424   H593    1.112   .     S
C424   H592    1.116   .     S
C424   C425    1.521   .     S
C424   O727    1.413   .     S
C425   H595    1.110   .     S
C425   H594    1.111   1_556 S
C425   H596    1.111   1_556 S
C426   H598    1.115   .     S
C426   O728    1.410   .     S
C426   C427    1.521   1_554 S
C426   H597    1.111   1_554 S
C427   H601    1.110   .     S
C427   H602    1.111   .     S
C427   C426    1.521   1_556 S
C427   H599    1.111   1_556 S
C428   O729    1.410   .     S
C428   H604    1.115   .     S
C428   C429    1.521   1_556 S
C428   H603    1.112   1_556 S
C429   H606    1.110   .     S
C429   H607    1.111   .     S
C429   C428    1.521   1_554 S
C429   H605    1.111   1_554 S
C430   O730    1.414   .     S
C430   C432    1.521   .     S
C430   H608    1.111   .     S
C430   H1401   1.116   .     S
C431   C480    1.409   .     A
C431   O739    1.391   .     S
C431   C471    1.406   .     A
C432   H612    1.110   .     S
C432   H610    1.111   1_554 S
C432   H613    1.111   1_554 S
C433   C434    1.521   .     S
C433   O731    1.414   .     S
C433   H614    1.111   .     S
C433   H615    1.116   .     S
C434   H616    1.110   .     S
C434   H617    1.111   1_556 S
C434   H618    1.111   1_556 S
C435   H620    1.114   .     S
C435   H619    1.115   .     S
C435   O732    1.411   .     S
C435   C436    1.521   1_554 S
C436   H624    1.111   .     S
C436   H623    1.110   .     S
C436   C435    1.521   1_556 S
C436   H621    1.111   1_556 S
C437   H626    1.116   .     S
C437   C438    1.521   .     S
C437   O734    1.414   .     S
C437   H625    1.111   .     S
C438   H628    1.110   .     S
C438   H627    1.111   1_556 S
C438   H629    1.111   1_556 S
C439   H630    1.115   .     S
C439   C440    1.520   .     S
C439   H631    1.114   .     S
C439   O735    1.411   .     S
C440   H632    1.111   .     S
C440   H634    1.110   .     S
C440   H635    1.111   .     S
C441   C443    1.521   .     S
C441   O736    1.413   .     S
C441   H637    1.112   .     S
C441   H636    1.116   .     S
C442   C473    1.395   .     A
C442   O740    1.382   .     S
C442   C85     1.408   1_655 S
C443   H640    1.111   .     S
C443   H638    1.111   .     S
C443   H639    1.110   .     S
C444   H642    1.114   .     S
C444   O737    1.411   .     S
C444   H641    1.115   .     S
C444   C445    1.521   .     S
C445   H646    1.111   .     S
C445   H645    1.110   .     S
C445   H643    1.111   .     S
C446   H648    1.111   .     S
C446   O738    1.413   .     S
C446   H647    1.116   .     S
C446   C447    1.521   .     S
C447   H651    1.111   .     S
C447   H650    1.111   .     S
C447   H649    1.111   .     S
C448   O739    1.414   .     S
C448   C449    1.521   .     S
C448   H652    1.111   .     S
C448   H653    1.116   .     S
C449   H654    1.111   .     S
C449   H657    1.111   .     S
C449   H656    1.110   .     S
C450   O740    1.411   .     S
C450   H659    1.114   .     S
C450   C451    1.521   .     S
C450   H658    1.115   .     S
C451   H661    1.110   .     S
C451   H660    1.111   .     S
C451   H662    1.111   .     S
C452   O741    1.414   .     S
C452   H663    1.111   .     S
C452   C454    1.521   .     S
C452   H664    1.116   .     S
C453   O741    1.391   .     S
C453   C474    1.406   .     A
C453   C482    1.409   .     A
C454   H668    1.111   .     S
C454   H667    1.111   .     S
C454   H665    1.110   .     S
C455   C456    1.521   .     S
C455   O742    1.414   .     S
C455   H670    1.116   .     S
C455   H669    1.111   .     S
C456   H671    1.111   .     S
C456   H673    1.111   .     S
C456   H672    1.110   .     S
C457   C475    1.405   .     A
C457   O742    1.391   .     S
C457   C484    1.409   .     A
C458   H549    1.084   .     S
C459   C461    1.402   .     A
C459   H589    1.083   .     S
C460   H600    1.084   .     S
C460   C472    1.394   .     A
C460   C19     1.400   1_655 S
C461   O727    1.388   .     S
C461   C477    1.409   .     A
C462   H611    1.084   .     S
C462   C483    1.393   .     A
C462   C20     1.397   1_655 S
C463   H622    1.082   .     S
C463   C494    1.406   .     A
C463   C1205   1.400   .     S
C464   H633    1.082   .     S
C464   C505    1.405   .     A
C464   C1206   1.399   .     S
C465   C516    1.395   .     A
C465   H644    1.084   .     S
C466   H655    1.082   .     S
C466   C527    1.407   .     A
C467   H666    1.084   .     S
C467   C538    1.395   .     A
C467   C21     1.398   1_655 S
C468   H550    1.083   .     S
C469   H561    1.084   .     S
C469   C1211   1.398   .     S
C470   H572    1.082   .     S
C470   C1213   1.398   1_545 S
C471   H582    1.082   .     S
C472   O728    1.383   .     S
C472   C82     1.412   1_655 S
C473   H583    1.084   .     S
C473   C22     1.400   1_655 S
C474   H584    1.082   .     S
C475   H585    1.082   .     S
C476   C477    1.473   1_554 S
C476   C1286   1.409   1_545 S
C477   C476    1.473   1_556 S
C477   C1297   1.409   1_545 S
C478   C516    1.410   .     A
C478   C479    1.473   1_554 S
C479   C527    1.411   .     A
C479   C478    1.473   1_556 S
C480   C481    1.472   .     S
C482   C1201   1.409   1_545 S
C482   C1276   1.473   1_545 S
C483   O729    1.383   .     S
C483   C83     1.412   1_655 S
C484   C1212   1.408   .     S
C484   C1274   1.473   .     S
C485   O722    1.280   .     A
C485   O1558   1.281   .     S
C486   O733    1.280   .     A
C486   O1470   1.280   1_545 S
C487   O744    1.280   .     S
C488   O681    1.279   .     A
C489   O682    1.279   .     A
C489   O686    1.280   .     S
C490   O683    1.280   .     A
C490   O687    1.280   .     A
C491   O1476   1.280   .     A
C491   O1480   1.280   .     A
C491   C1206   1.461   .     S
C492   O1477   1.281   .     A
C492   O1482   1.280   .     A
C492   C1205   1.462   .     S
C493   O719    1.276   .     A
C493   C548    1.452   .     S
C493   O691    1.276   .     A
C494   O730    1.391   .     S
C494   C1268   1.409   .     S
C495   O720    1.276   .     A
C495   O692    1.276   .     A
C496   O717    1.276   .     A
C496   O693    1.276   .     A
C497   O694    1.276   .     A
C497   O718    1.276   .     A
C498   O695    1.276   .     A
C498   O724    1.276   .     A
C499   O696    1.276   .     A
C499   O725    1.276   .     A
C500   C546    1.452   .     S
C500   O697    1.276   .     A
C500   O721    1.276   .     A
C501   O723    1.276   .     A
C501   C547    1.452   .     S
C501   O698    1.276   .     A
C502   O699    1.276   .     A
C502   O710    1.276   .     A
C503   O701    1.276   .     A
C503   O712    1.276   .     A
C504   O702    1.276   .     A
C504   O708    1.276   .     A
C505   O731    1.391   .     S
C505   C1269   1.409   .     S
C506   O703    1.276   .     A
C506   O709    1.276   .     A
C507   O715    1.276   .     A
C507   O704    1.276   .     A
C508   O705    1.276   .     A
C508   O716    1.276   .     A
C509   O713    1.276   .     A
C509   O706    1.276   .     A
C510   O714    1.276   .     A
C510   O707    1.276   .     A
C511   O743    1.385   .     S
C511   C528    1.392   .     A
C512   C526    1.392   .     A
C512   O745    1.385   .     S
C513   C525    1.392   .     A
C513   O746    1.385   .     S
C514   O747    1.385   .     S
C514   C524    1.392   .     A
C515   O748    1.385   .     S
C515   C523    1.392   .     A
C516   O732    1.382   .     S
C517   O749    1.385   .     S
C517   C522    1.392   .     A
C518   O750    1.385   .     S
C518   C521    1.392   .     A
C519   C520    1.392   .     A
C519   O751    1.385   .     S
C520   O752    1.385   .     S
C521   O753    1.385   .     S
C522   O754    1.385   .     S
C523   O756    1.385   .     S
C524   O757    1.385   .     S
C525   C548    1.416   .     A
C525   O758    1.385   .     S
C526   O759    1.385   .     S
C526   C547    1.416   .     A
C527   O734    1.393   .     S
C528   C546    1.416   .     A
C528   O760    1.385   .     S
C529   C547    1.416   .     A
C529   C545    1.392   .     A
C529   O761    1.385   .     S
C530   C546    1.416   .     A
C530   O762    1.385   .     S
C530   C544    1.392   .     A
C531   C543    1.392   .     A
C531   O763    1.385   .     S
C532   C548    1.416   .     A
C532   C542    1.392   .     A
C532   O764    1.385   .     S
C533   O765    1.385   .     S
C533   C541    1.392   .     A
C534   C540    1.392   .     A
C534   O767    1.385   .     S
C535   C539    1.392   .     A
C535   O768    1.385   .     S
C536   C537    1.392   .     A
C536   O769    1.385   .     S
C537   O770    1.385   .     S
C538   O735    1.382   .     S
C538   C84     1.408   1_655 S
C539   O771    1.385   .     S
C540   O772    1.385   .     S
C541   O773    1.385   .     S
C542   O774    1.385   .     S
C543   O775    1.385   .     S
C544   O776    1.385   .     S
C545   O679    1.385   .     S
H551   O747    0.988   .     S
H552   O748    0.988   .     S
H553   O749    0.988   .     S
H554   O750    0.988   .     S
H555   O751    0.988   .     S
H556   O752    0.988   .     S
H557   O753    0.988   .     S
H558   O754    0.988   .     S
H559   O756    0.988   .     S
H560   O757    0.988   .     S
H562   O758    0.988   .     S
H563   O759    0.988   .     S
H564   O760    0.988   .     S
H565   O761    0.988   .     S
H566   O762    0.988   .     S
H567   O763    0.988   .     S
H568   O764    0.988   .     S
H569   O765    0.988   .     S
H570   O767    0.988   .     S
H571   O768    0.988   .     S
H573   O769    0.988   .     S
H574   O770    0.988   .     S
H575   O771    0.988   .     S
H576   O772    0.988   .     S
H577   O773    0.988   .     S
H578   O774    0.988   .     S
H579   O775    0.988   .     S
H580   O776    0.988   .     S
H581   O679    0.988   .     S
H588   C423    1.111   1_554 S
H594   C425    1.111   1_554 S
H596   C425    1.111   1_554 S
H597   C426    1.111   1_556 S
H599   C427    1.111   1_554 S
H603   C428    1.112   1_554 S
H605   C429    1.111   1_556 S
H609   C1222   1.116   1_545 S
H610   C432    1.111   1_556 S
H613   C432    1.111   1_556 S
H617   C434    1.111   1_554 S
H618   C434    1.111   1_554 S
H621   C436    1.111   1_554 S
H627   C438    1.111   1_554 S
H629   C438    1.111   1_554 S
H674   O743    0.988   .     S
H675   O745    0.988   .     S
H676   O746    0.988   .     S
O677   Zn780   1.943   .     S
O677   Zn777   1.943   .     S
O677   Zn1576  1.943   1_545 S
O677   Zn788   1.943   .     S
O678   Zn779   1.938   .     S
O678   C1278   1.280   .     S
O680   Zn782   1.938   .     S
O680   C91     1.281   1_655 A
O681   Zn781   1.938   .     S
O682   Zn791   1.938   .     S
O683   Zn790   1.938   .     S
O684   C1283   1.280   1_545 A
O684   Zn785   1.938   .     S
O685   Zn777   1.938   .     S
O685   C1284   1.281   1_545 A
O686   Zn787   1.938   .     S
O687   Zn786   1.938   .     S
O688   C1283   1.280   1_545 A
O688   Zn789   1.938   .     S
O689   Zn789   1.943   .     S
O689   Zn785   1.943   .     S
O689   Zn783   1.943   .     S
O689   Zn1571  1.943   1_545 S
O690   Zn788   1.938   .     S
O690   C1284   1.280   1_545 A
O691   Zn780   1.934   .     S
O692   Zn779   1.934   .     S
O693   Zn782   1.934   .     S
O694   Zn781   1.934   .     S
O695   Zn784   1.934   .     S
O696   Zn783   1.934   .     S
O697   Zn778   1.934   .     S
O698   Zn792   1.934   .     S
O699   Zn779   1.934   .     S
O700   Zn786   1.943   .     S
O700   Zn778   1.943   .     S
O700   Zn790   1.943   .     S
O701   Zn780   1.934   .     S
O702   Zn792   1.934   .     S
O703   Zn778   1.934   .     S
O704   Zn783   1.934   .     S
O705   Zn784   1.934   .     S
O706   Zn781   1.934   .     S
O707   Zn782   1.934   .     S
O708   Zn391   1.934   1_655 S
O709   Zn786   1.934   .     S
O710   Zn1581  1.934   .     S
O711   Zn781   1.943   .     S
O711   Zn787   1.943   .     S
O711   Zn791   1.943   .     S
O712   Zn788   1.934   .     S
O713   Zn791   1.934   .     S
O714   Zn394   1.934   1_655 S
O715   Zn785   1.934   .     S
O716   Zn1569  1.934   .     S
O717   Zn390   1.934   1_655 S
O718   Zn787   1.934   .     S
O719   Zn777   1.934   .     S
O720   Zn1577  1.934   .     S
O721   Zn790   1.934   .     S
O722   Zn784   1.938   .     S
O723   Zn395   1.934   1_655 S
O724   Zn1580  1.934   .     S
O725   Zn789   1.934   .     S
O733   Zn783   1.938   .     S
O744   Zn778   1.938   .     S
O755   Zn792   1.938   .     S
O755   C92     1.280   1_655 S
O766   Zn780   1.938   .     S
O766   C1277   1.281   1_545 S
Zn777  O1508   1.934   1_545 S
Zn779  O1481   1.943   .     S
Zn782  O304    1.943   1_655 S
Zn784  O1469   1.943   .     S
Zn785  O1512   1.934   1_545 S
Zn788  O1516   1.934   1_545 S
Zn789  O1502   1.934   1_545 S
Zn792  O315    1.943   1_655 S
C793   C854    1.395   .     A
C793   O1122   1.382   .     S
C793   C872    1.408   .     A
C794   C877    1.408   .     A
C794   C864    1.403   .     A
C794   O1132   1.388   .     S
C795   C920    1.416   .     A
C795   C891    1.452   .     S
C795   C927    1.416   .     A
C796   C919    1.416   .     A
C796   C930    1.416   .     A
C796   C892    1.452   .     S
C797   C918    1.416   .     A
C797   C893    1.452   .     S
C797   C929    1.416   .     A
C798   C917    1.416   .     A
C798   C894    1.452   .     S
C798   C932    1.416   .     A
C799   C895    1.452   .     S
C799   C916    1.416   .     A
C799   C931    1.416   .     A
C800   C915    1.416   .     A
C800   C935    1.416   .     A
C800   C905    1.452   .     S
C801   C906    1.452   .     S
C801   C914    1.416   .     A
C801   C933    1.416   .     A
C802   C898    1.452   .     S
C802   C913    1.416   .     A
C802   C937    1.416   .     A
C803   C911    1.416   .     A
C803   C899    1.452   .     S
C803   C936    1.416   .     A
C804   C900    1.452   .     S
C804   C939    1.416   .     A
C804   C910    1.416   .     A
C805   C865    1.395   .     A
C805   O1133   1.382   .     S
C805   C86     1.409   1_565 S
C806   C909    1.416   .     A
C806   C902    1.452   .     S
C806   C938    1.416   .     A
C807   C903    1.452   .     S
C807   C941    1.416   .     A
C807   C908    1.416   .     A
C808   C907    1.416   .     A
C808   C904    1.452   .     S
C808   C940    1.416   .     A
C809   C854    1.398   .     A
C810   C855    1.398   .     A
C811   C886    1.462   .     S
C811   C861    1.400   .     A
C811   C1252   1.400   1_455 S
C812   C862    1.399   .     A
C812   C885    1.459   .     S
C812   C1254   1.397   1_455 S
C813   C867    1.400   .     A
C813   C884    1.460   .     S
C813   C1259   1.398   1_455 S
C814   C864    1.400   .     A
C814   C1265   1.400   1_455 S
C814   C883    1.463   .     S
C815   C882    1.461   .     S
C815   C870    1.400   .     A
C816   O1134   1.388   .     S
C816   C866    1.402   .     A
C817   C881    1.462   .     S
C817   C871    1.399   .     A
C817   C74     1.398   1_565 S
C818   H983    1.114   .     S
C818   O1122   1.411   .     S
C818   H982    1.115   .     S
C818   C819    1.521   1_554 S
C819   H986    1.110   .     S
C819   H987    1.111   .     S
C819   C818    1.521   1_556 S
C819   H984    1.111   1_556 S
C820   H989    1.112   .     S
C820   H988    1.116   .     S
C820   C821    1.521   .     S
C820   O1123   1.413   .     S
C821   H991    1.110   .     S
C821   H990    1.111   1_556 S
C821   H992    1.111   1_556 S
C822   H994    1.115   .     S
C822   O1124   1.410   .     S
C822   C823    1.521   1_554 S
C822   H993    1.111   1_554 S
C823   H997    1.110   .     S
C823   H998    1.111   .     S
C823   C822    1.521   1_556 S
C823   H995    1.111   1_556 S
C824   O1125   1.410   .     S
C824   H1000   1.115   .     S
C824   C825    1.521   1_556 S
C824   H999    1.112   1_556 S
C825   H1002   1.110   .     S
C825   H1003   1.111   .     S
C825   C824    1.521   1_554 S
C825   H1001   1.111   1_554 S
C826   O1126   1.414   .     S
C826   C828    1.521   .     S
C826   H1004   1.111   .     S
C826   H213    1.116   1_565 S
C827   C876    1.409   .     A
C827   O1135   1.391   .     S
C827   C867    1.406   .     A
C828   H1008   1.110   .     S
C828   H1006   1.111   1_554 S
C828   H1009   1.111   1_554 S
C829   C830    1.521   .     S
C829   O1127   1.414   .     S
C829   H1010   1.111   .     S
C829   H1011   1.116   .     S
C830   H1012   1.110   .     S
C830   H1013   1.111   1_556 S
C830   H1014   1.111   1_556 S
C831   H1016   1.114   .     S
C831   H1015   1.115   .     S
C831   O1128   1.411   .     S
C831   C832    1.521   1_554 S
C832   H1020   1.111   .     S
C832   H1019   1.110   .     S
C832   C831    1.521   1_556 S
C832   H1017   1.111   1_556 S
C833   H1022   1.116   .     S
C833   C834    1.521   .     S
C833   O1130   1.414   .     S
C833   H1021   1.111   .     S
C834   H1024   1.110   .     S
C834   H1023   1.111   1_556 S
C834   H1025   1.111   1_556 S
C835   H1026   1.115   .     S
C835   C836    1.520   .     S
C835   H1027   1.114   .     S
C835   O1131   1.411   .     S
C836   H1028   1.111   .     S
C836   H1030   1.110   .     S
C836   H1031   1.111   .     S
C837   C839    1.521   .     S
C837   O1132   1.413   .     S
C837   H1033   1.112   .     S
C837   H1032   1.116   .     S
C838   C869    1.395   .     A
C838   O1136   1.382   .     S
C838   C1273   1.408   .     S
C839   H1036   1.111   .     S
C839   H1034   1.111   .     S
C839   H1035   1.110   .     S
C840   H1038   1.114   .     S
C840   O1133   1.411   .     S
C840   H1037   1.115   .     S
C840   C841    1.521   .     S
C841   H1042   1.111   .     S
C841   H1041   1.110   .     S
C841   H1039   1.111   .     S
C842   H1044   1.111   .     S
C842   O1134   1.413   .     S
C842   H1043   1.116   .     S
C842   C843    1.521   .     S
C843   H1047   1.111   .     S
C843   H1046   1.111   .     S
C843   H1045   1.111   .     S
C844   O1135   1.414   .     S
C844   C845    1.521   .     S
C844   H1048   1.111   .     S
C844   H1049   1.116   .     S
C845   H1050   1.111   .     S
C845   H1053   1.111   .     S
C845   H1052   1.110   .     S
C846   O1136   1.411   .     S
C846   H1055   1.114   .     S
C846   C847    1.521   .     S
C846   H1054   1.115   .     S
C847   H1057   1.110   .     S
C847   H1056   1.111   .     S
C847   H1058   1.111   .     S
C848   O1137   1.414   .     S
C848   H1059   1.111   .     S
C848   C850    1.521   .     S
C848   H1060   1.116   .     S
C849   O1137   1.391   .     S
C849   C870    1.406   .     A
C849   C878    1.409   .     A
C850   H1064   1.111   .     S
C850   H1063   1.111   .     S
C850   H1061   1.110   .     S
C851   C852    1.521   .     S
C851   O1138   1.414   .     S
C851   H1066   1.116   .     S
C851   H1065   1.111   .     S
C852   H1067   1.111   .     S
C852   H1069   1.111   .     S
C852   H1068   1.110   .     S
C853   C871    1.405   .     A
C853   O1138   1.391   .     S
C853   C880    1.409   .     A
C854   H945    1.084   .     S
C855   C857    1.402   .     A
C855   H985    1.083   .     S
C856   H996    1.084   .     S
C856   C868    1.394   .     A
C856   C1207   1.400   .     S
C857   O1123   1.388   .     S
C857   C873    1.409   .     A
C858   H1007   1.084   .     S
C858   C879    1.393   .     A
C858   C1208   1.397   .     S
C859   H1018   1.082   .     S
C859   C890    1.406   .     A
C859   C17     1.400   1_565 S
C860   H1029   1.082   .     S
C860   C901    1.405   .     A
C860   C18     1.399   1_565 S
C861   C912    1.395   .     A
C861   H1040   1.084   .     S
C862   H1051   1.082   .     S
C862   C923    1.407   .     A
C863   H1062   1.084   .     S
C863   C934    1.395   .     A
C863   C1209   1.398   .     S
C864   H946    1.083   .     S
C865   H957    1.084   .     S
C865   C23     1.398   1_565 S
C866   H968    1.082   .     S
C867   H978    1.082   .     S
C868   O1124   1.383   .     S
C868   C1270   1.412   .     S
C869   H979    1.084   .     S
C869   C1210   1.400   .     S
C870   H980    1.082   .     S
C871   H981    1.082   .     S
C872   C873    1.473   1_554 S
C873   C872    1.473   1_556 S
C874   C912    1.410   .     A
C874   C1264   1.412   1_455 S
C874   C875    1.473   1_554 S
C875   C923    1.411   .     A
C875   C874    1.473   1_556 S
C875   C1275   1.412   1_455 S
C876   C877    1.472   .     S
C876   C1330   1.408   1_455 S
C877   C1234   1.408   1_455 S
C879   O1125   1.383   .     S
C879   C1271   1.412   .     S
C880   C24     1.408   1_565 S
C880   C86     1.473   1_565 S
C881   O1118   1.280   .     A
C881   O370    1.281   1_565 S
C882   O1129   1.280   .     A
C883   O1472   1.281   1_455 A
C883   O1140   1.280   .     S
C884   O1077   1.279   .     A
C884   O1547   1.280   1_455 S
C885   O1078   1.279   .     A
C885   O1082   1.280   .     S
C886   O1079   1.280   .     A
C886   O1083   1.280   .     A
C887   O288    1.280   1_565 A
C887   O292    1.280   1_565 A
C887   C18     1.461   1_565 S
C888   O289    1.281   1_565 A
C888   O294    1.280   1_565 A
C888   C17     1.462   1_565 S
C889   O1115   1.276   .     A
C889   C944    1.452   .     S
C889   O1087   1.276   .     A
C890   O1126   1.391   .     S
C890   C80     1.409   1_565 S
C891   O1116   1.276   .     A
C891   O1088   1.276   .     A
C892   O1113   1.276   .     A
C892   O1089   1.276   .     A
C893   O1090   1.276   .     A
C893   O1114   1.276   .     A
C894   O1091   1.276   .     A
C894   O1120   1.276   .     A
C895   O1092   1.276   .     A
C895   O1121   1.276   .     A
C896   C942    1.452   .     S
C896   O1093   1.276   .     A
C896   O1117   1.276   .     A
C897   O1119   1.276   .     A
C897   C943    1.452   .     S
C897   O1094   1.276   .     A
C898   O1095   1.276   .     A
C898   O1106   1.276   .     A
C899   O1097   1.276   .     A
C899   O1108   1.276   .     A
C900   O1098   1.276   .     A
C900   O1104   1.276   .     A
C901   O1127   1.391   .     S
C901   C81     1.409   1_565 S
C902   O1099   1.276   .     A
C902   O1105   1.276   .     A
C903   O1111   1.276   .     A
C903   O1100   1.276   .     A
C904   O1101   1.276   .     A
C904   O1112   1.276   .     A
C905   O1109   1.276   .     A
C905   O1102   1.276   .     A
C906   O1110   1.276   .     A
C906   O1103   1.276   .     A
C907   O1139   1.385   .     S
C907   C924    1.392   .     A
C908   C922    1.392   .     A
C908   O1141   1.385   .     S
C909   C921    1.392   .     A
C909   O1142   1.385   .     S
C910   O1143   1.385   .     S
C910   C920    1.392   .     A
C911   O1144   1.385   .     S
C911   C919    1.392   .     A
C912   O1128   1.382   .     S
C913   O1145   1.385   .     S
C913   C918    1.392   .     A
C914   O1146   1.385   .     S
C914   C917    1.392   .     A
C915   C916    1.392   .     A
C915   O1147   1.385   .     S
C916   O1148   1.385   .     S
C917   O1149   1.385   .     S
C918   O1150   1.385   .     S
C919   O1152   1.385   .     S
C920   O1153   1.385   .     S
C921   C944    1.416   .     A
C921   O1154   1.385   .     S
C922   O1155   1.385   .     S
C922   C943    1.416   .     A
C923   O1130   1.393   .     S
C924   C942    1.416   .     A
C924   O1156   1.385   .     S
C925   C943    1.416   .     A
C925   C941    1.392   .     A
C925   O1157   1.385   .     S
C926   C942    1.416   .     A
C926   O1158   1.385   .     S
C926   C940    1.392   .     A
C927   C939    1.392   .     A
C927   O1159   1.385   .     S
C928   C944    1.416   .     A
C928   C938    1.392   .     A
C928   O1160   1.385   .     S
C929   O1161   1.385   .     S
C929   C937    1.392   .     A
C930   C936    1.392   .     A
C930   O1163   1.385   .     S
C931   C935    1.392   .     A
C931   O1164   1.385   .     S
C932   C933    1.392   .     A
C932   O1165   1.385   .     S
C933   O1166   1.385   .     S
C934   O1131   1.382   .     S
C934   C1272   1.408   .     S
C935   O1167   1.385   .     S
C936   O1168   1.385   .     S
C937   O1169   1.385   .     S
C938   O1170   1.385   .     S
C939   O1171   1.385   .     S
C940   O1172   1.385   .     S
C941   O1075   1.385   .     S
H947   O1143   0.988   .     S
H948   O1144   0.988   .     S
H949   O1145   0.988   .     S
H950   O1146   0.988   .     S
H951   O1147   0.988   .     S
H952   O1148   0.988   .     S
H953   O1149   0.988   .     S
H954   O1150   0.988   .     S
H955   O1152   0.988   .     S
H956   O1153   0.988   .     S
H958   O1154   0.988   .     S
H959   O1155   0.988   .     S
H960   O1156   0.988   .     S
H961   O1157   0.988   .     S
H962   O1158   0.988   .     S
H963   O1159   0.988   .     S
H964   O1160   0.988   .     S
H965   O1161   0.988   .     S
H966   O1163   0.988   .     S
H967   O1164   0.988   .     S
H969   O1165   0.988   .     S
H970   O1166   0.988   .     S
H971   O1167   0.988   .     S
H972   O1168   0.988   .     S
H973   O1169   0.988   .     S
H974   O1170   0.988   .     S
H975   O1171   0.988   .     S
H976   O1172   0.988   .     S
H977   O1075   0.988   .     S
H984   C819    1.111   1_554 S
H990   C821    1.111   1_554 S
H992   C821    1.111   1_554 S
H993   C822    1.111   1_556 S
H995   C823    1.111   1_554 S
H999   C824    1.112   1_554 S
H1001  C825    1.111   1_556 S
H1006  C828    1.111   1_556 S
H1009  C828    1.111   1_556 S
H1013  C830    1.111   1_554 S
H1014  C830    1.111   1_554 S
H1017  C832    1.111   1_554 S
H1023  C834    1.111   1_554 S
H1025  C834    1.111   1_554 S
H1070  O1139   0.988   .     S
H1071  O1141   0.988   .     S
H1072  O1142   0.988   .     S
O1073  Zn1176  1.943   .     S
O1073  Zn1173  1.943   .     S
O1073  Zn1184  1.943   .     S
O1074  Zn1175  1.938   .     S
O1074  C90     1.280   1_565 S
O1076  Zn1178  1.938   .     S
O1076  C1279   1.281   .     A
O1077  Zn1177  1.938   .     S
O1078  Zn1187  1.938   .     S
O1079  Zn1186  1.938   .     S
O1080  Zn1181  1.938   .     S
O1081  Zn1173  1.938   .     S
O1082  Zn1183  1.938   .     S
O1083  Zn1182  1.938   .     S
O1084  Zn1185  1.938   .     S
O1085  Zn1185  1.943   .     S
O1085  Zn1181  1.943   .     S
O1085  Zn1179  1.943   .     S
O1086  Zn1184  1.938   .     S
O1087  Zn1176  1.934   .     S
O1088  Zn1175  1.934   .     S
O1089  Zn1178  1.934   .     S
O1090  Zn1177  1.934   .     S
O1091  Zn1180  1.934   .     S
O1092  Zn1179  1.934   .     S
O1093  Zn1174  1.934   .     S
O1094  Zn1188  1.934   .     S
O1095  Zn1175  1.934   .     S
O1096  Zn1182  1.943   .     S
O1096  Zn1174  1.943   .     S
O1096  Zn1574  1.943   1_455 S
O1096  Zn1186  1.943   .     S
O1097  Zn1176  1.934   .     S
O1098  Zn1188  1.934   .     S
O1099  Zn1174  1.934   .     S
O1100  Zn1179  1.934   .     S
O1101  Zn1180  1.934   .     S
O1102  Zn1177  1.934   .     S
O1103  Zn1178  1.934   .     S
O1104  Zn1579  1.934   .     S
O1105  Zn1182  1.934   .     S
O1106  Zn393   1.934   1_565 S
O1107  Zn1177  1.943   .     S
O1107  Zn1183  1.943   .     S
O1107  Zn1187  1.943   .     S
O1107  Zn1584  1.943   1_455 S
O1108  Zn1184  1.934   .     S
O1109  Zn1187  1.934   .     S
O1110  Zn1582  1.934   .     S
O1111  Zn1181  1.934   .     S
O1112  Zn381   1.934   1_565 S
O1113  Zn1578  1.934   .     S
O1114  Zn1183  1.934   .     S
O1115  Zn1173  1.934   .     S
O1116  Zn389   1.934   1_565 S
O1117  Zn1186  1.934   .     S
O1118  Zn1180  1.938   .     S
O1119  Zn1583  1.934   .     S
O1120  Zn392   1.934   1_565 S
O1121  Zn1185  1.934   .     S
O1129  Zn1179  1.938   .     S
O1140  Zn1174  1.938   .     S
O1151  Zn1188  1.938   .     S
O1151  C1280   1.280   .     S
O1162  Zn1176  1.938   .     S
Zn1175 O293    1.943   1_565 S
Zn1178 O1492   1.943   .     S
Zn1180 O281    1.943   1_565 S
Zn1182 O1509   1.934   1_455 S
Zn1183 O1500   1.934   1_455 S
Zn1186 O1506   1.934   1_455 S
Zn1187 O1515   1.934   1_455 S
Zn1188 O1503   1.943   .     S
C1189  C1250   1.395   .     A
C1189  O1518   1.382   .     S
C1189  C1268   1.408   .     A
C1190  C1273   1.408   .     A
C1190  C1260   1.403   .     A
C1190  O1528   1.388   .     S
C1191  C1316   1.416   .     A
C1191  C1287   1.452   .     S
C1191  C1323   1.416   .     A
C1192  C1315   1.416   .     A
C1192  C1326   1.416   .     A
C1192  C1288   1.452   .     S
C1193  C1314   1.416   .     A
C1193  C1289   1.452   .     S
C1193  C1325   1.416   .     A
C1194  C1313   1.416   .     A
C1194  C1290   1.452   .     S
C1194  C1328   1.416   .     A
C1195  C1291   1.452   .     S
C1195  C1312   1.416   .     A
C1195  C1327   1.416   .     A
C1196  C1311   1.416   .     A
C1196  C1331   1.416   .     A
C1196  C1301   1.452   .     S
C1197  C1302   1.452   .     S
C1197  C1310   1.416   .     A
C1197  C1329   1.416   .     A
C1198  C1294   1.452   .     S
C1198  C1309   1.416   .     A
C1198  C1333   1.416   .     A
C1199  C1307   1.416   .     A
C1199  C1295   1.452   .     S
C1199  C1332   1.416   .     A
C1200  C1296   1.452   .     S
C1200  C1335   1.416   .     A
C1200  C1306   1.416   .     A
C1201  C1261   1.395   .     A
C1201  O1529   1.382   .     S
C1201  C482    1.409   1_565 S
C1202  C1305   1.416   .     A
C1202  C1298   1.452   .     S
C1202  C1334   1.416   .     A
C1203  C1299   1.452   .     S
C1203  C1337   1.416   .     A
C1203  C1304   1.416   .     A
C1204  C1303   1.416   .     A
C1204  C1300   1.452   .     S
C1204  C1336   1.416   .     A
C1205  C1250   1.398   .     A
C1206  C1251   1.398   .     A
C1207  C1282   1.462   .     S
C1207  C1257   1.400   .     A
C1208  C1258   1.399   .     A
C1208  C1281   1.459   .     S
C1209  C1263   1.400   .     A
C1209  C1280   1.460   .     S
C1210  C1260   1.400   .     A
C1210  C1279   1.463   .     S
C1211  C1278   1.461   .     S
C1211  C1266   1.400   .     A
C1212  O1530   1.388   .     S
C1212  C1262   1.402   .     A
C1213  C1277   1.462   .     S
C1213  C1267   1.399   .     A
C1213  C470    1.398   1_565 S
C1214  H1379   1.114   .     S
C1214  O1518   1.411   .     S
C1214  H1378   1.115   .     S
C1214  C1215   1.521   1_554 S
C1215  H1382   1.110   .     S
C1215  H1383   1.111   .     S
C1215  C1214   1.521   1_556 S
C1215  H1380   1.111   1_556 S
C1216  H1385   1.112   .     S
C1216  H1384   1.116   .     S
C1216  C1217   1.521   .     S
C1216  O1519   1.413   .     S
C1217  H1387   1.110   .     S
C1217  H1386   1.111   1_556 S
C1217  H1388   1.111   1_556 S
C1218  H1390   1.115   .     S
C1218  O1520   1.410   .     S
C1218  C1219   1.521   1_554 S
C1218  H1389   1.111   1_554 S
C1219  H1393   1.110   .     S
C1219  H1394   1.111   .     S
C1219  C1218   1.521   1_556 S
C1219  H1391   1.111   1_556 S
C1220  O1521   1.410   .     S
C1220  H1396   1.115   .     S
C1220  C1221   1.521   1_556 S
C1220  H1395   1.112   1_556 S
C1221  H1398   1.110   .     S
C1221  H1399   1.111   .     S
C1221  C1220   1.521   1_554 S
C1221  H1397   1.111   1_554 S
C1222  O1522   1.414   .     S
C1222  C1224   1.521   .     S
C1222  H1400   1.111   .     S
C1222  H609    1.116   1_565 S
C1223  C1272   1.409   .     A
C1223  O1531   1.391   .     S
C1223  C1263   1.406   .     A
C1224  H1404   1.110   .     S
C1224  H1402   1.111   1_554 S
C1224  H1405   1.111   1_554 S
C1225  C1226   1.521   .     S
C1225  O1523   1.414   .     S
C1225  H1406   1.111   .     S
C1225  H1407   1.116   .     S
C1226  H1408   1.110   .     S
C1226  H1409   1.111   1_556 S
C1226  H1410   1.111   1_556 S
C1227  H1412   1.114   .     S
C1227  H1411   1.115   .     S
C1227  O1524   1.411   .     S
C1227  C1228   1.521   1_554 S
C1228  H1416   1.111   .     S
C1228  H1415   1.110   .     S
C1228  C1227   1.521   1_556 S
C1228  H1413   1.111   1_556 S
C1229  H1418   1.116   .     S
C1229  C1230   1.521   .     S
C1229  O1526   1.414   .     S
C1229  H1417   1.111   .     S
C1230  H1420   1.110   .     S
C1230  H1419   1.111   1_556 S
C1230  H1421   1.111   1_556 S
C1231  H1422   1.115   .     S
C1231  C1232   1.520   .     S
C1231  H1423   1.114   .     S
C1231  O1527   1.411   .     S
C1232  H1424   1.111   .     S
C1232  H1426   1.110   .     S
C1232  H1427   1.111   .     S
C1233  C1235   1.521   .     S
C1233  O1528   1.413   .     S
C1233  H1429   1.112   .     S
C1233  H1428   1.116   .     S
C1234  C1265   1.395   .     A
C1234  O1532   1.382   .     S
C1234  C877    1.408   1_655 S
C1235  H1432   1.111   .     S
C1235  H1430   1.111   .     S
C1235  H1431   1.110   .     S
C1236  H1434   1.114   .     S
C1236  O1529   1.411   .     S
C1236  H1433   1.115   .     S
C1236  C1237   1.521   .     S
C1237  H1438   1.111   .     S
C1237  H1437   1.110   .     S
C1237  H1435   1.111   .     S
C1238  H1440   1.111   .     S
C1238  O1530   1.413   .     S
C1238  H1439   1.116   .     S
C1238  C1239   1.521   .     S
C1239  H1443   1.111   .     S
C1239  H1442   1.111   .     S
C1239  H1441   1.111   .     S
C1240  O1531   1.414   .     S
C1240  C1241   1.521   .     S
C1240  H1444   1.111   .     S
C1240  H1445   1.116   .     S
C1241  H1446   1.111   .     S
C1241  H1449   1.111   .     S
C1241  H1448   1.110   .     S
C1242  O1532   1.411   .     S
C1242  H1451   1.114   .     S
C1242  C1243   1.521   .     S
C1242  H1450   1.115   .     S
C1243  H1453   1.110   .     S
C1243  H1452   1.111   .     S
C1243  H1454   1.111   .     S
C1244  O1533   1.414   .     S
C1244  H1455   1.111   .     S
C1244  C1246   1.521   .     S
C1244  H1456   1.116   .     S
C1245  O1533   1.391   .     S
C1245  C1266   1.406   .     A
C1245  C1274   1.409   .     A
C1246  H1460   1.111   .     S
C1246  H1459   1.111   .     S
C1246  H1457   1.110   .     S
C1247  C1248   1.521   .     S
C1247  O1534   1.414   .     S
C1247  H1462   1.116   .     S
C1247  H1461   1.111   .     S
C1248  H1463   1.111   .     S
C1248  H1465   1.111   .     S
C1248  H1464   1.110   .     S
C1249  C1267   1.405   .     A
C1249  O1534   1.391   .     S
C1249  C1276   1.409   .     A
C1250  H1341   1.084   .     S
C1251  C1253   1.402   .     A
C1251  H1381   1.083   .     S
C1252  H1392   1.084   .     S
C1252  C1264   1.394   .     A
C1252  C811    1.400   1_655 S
C1253  O1519   1.388   .     S
C1253  C1269   1.409   .     A
C1254  H1403   1.084   .     S
C1254  C1275   1.393   .     A
C1254  C812    1.397   1_655 S
C1255  H1414   1.082   .     S
C1255  C1286   1.406   .     A
C1255  C413    1.400   1_565 S
C1256  H1425   1.082   .     S
C1256  C1297   1.405   .     A
C1256  C414    1.399   1_565 S
C1257  C1308   1.395   .     A
C1257  H1436   1.084   .     S
C1258  H1447   1.082   .     S
C1258  C1319   1.407   .     A
C1259  H1458   1.084   .     S
C1259  C1330   1.395   .     A
C1259  C813    1.398   1_655 S
C1260  H1342   1.083   .     S
C1261  H1353   1.084   .     S
C1261  C419    1.398   1_565 S
C1262  H1364   1.082   .     S
C1263  H1374   1.082   .     S
C1264  O1520   1.383   .     S
C1264  C874    1.412   1_655 S
C1265  H1375   1.084   .     S
C1265  C814    1.400   1_655 S
C1266  H1376   1.082   .     S
C1267  H1377   1.082   .     S
C1268  C1269   1.473   1_554 S
C1269  C1268   1.473   1_556 S
C1270  C1308   1.410   .     A
C1270  C1271   1.473   1_554 S
C1271  C1319   1.411   .     A
C1271  C1270   1.473   1_556 S
C1272  C1273   1.472   .     S
C1275  O1521   1.383   .     S
C1275  C875    1.412   1_655 S
C1276  C420    1.408   1_565 S
C1276  C482    1.473   1_565 S
C1277  O1514   1.280   .     A
C1277  O766    1.281   1_565 S
C1278  O1525   1.280   .     A
C1279  O1536   1.280   .     S
C1280  O1473   1.279   .     A
C1281  O1474   1.279   .     A
C1281  O1478   1.280   .     S
C1282  O1475   1.280   .     A
C1282  O1479   1.280   .     A
C1283  O684    1.280   1_565 A
C1283  O688    1.280   1_565 A
C1283  C414    1.461   1_565 S
C1284  O685    1.281   1_565 A
C1284  O690    1.280   1_565 A
C1284  C413    1.462   1_565 S
C1285  O1511   1.276   .     A
C1285  C1340   1.452   .     S
C1285  O1483   1.276   .     A
C1286  O1522   1.391   .     S
C1286  C476    1.409   1_565 S
C1287  O1512   1.276   .     A
C1287  O1484   1.276   .     A
C1288  O1509   1.276   .     A
C1288  O1485   1.276   .     A
C1289  O1486   1.276   .     A
C1289  O1510   1.276   .     A
C1290  O1487   1.276   .     A
C1290  O1516   1.276   .     A
C1291  O1488   1.276   .     A
C1291  O1517   1.276   .     A
C1292  C1338   1.452   .     S
C1292  O1489   1.276   .     A
C1292  O1513   1.276   .     A
C1293  O1515   1.276   .     A
C1293  C1339   1.452   .     S
C1293  O1490   1.276   .     A
C1294  O1491   1.276   .     A
C1294  O1502   1.276   .     A
C1295  O1493   1.276   .     A
C1295  O1504   1.276   .     A
C1296  O1494   1.276   .     A
C1296  O1500   1.276   .     A
C1297  O1523   1.391   .     S
C1297  C477    1.409   1_565 S
C1298  O1495   1.276   .     A
C1298  O1501   1.276   .     A
C1299  O1507   1.276   .     A
C1299  O1496   1.276   .     A
C1300  O1497   1.276   .     A
C1300  O1508   1.276   .     A
C1301  O1505   1.276   .     A
C1301  O1498   1.276   .     A
C1302  O1506   1.276   .     A
C1302  O1499   1.276   .     A
C1303  O1535   1.385   .     S
C1303  C1320   1.392   .     A
C1304  C1318   1.392   .     A
C1304  O1537   1.385   .     S
C1305  C1317   1.392   .     A
C1305  O1538   1.385   .     S
C1306  O1539   1.385   .     S
C1306  C1316   1.392   .     A
C1307  O1540   1.385   .     S
C1307  C1315   1.392   .     A
C1308  O1524   1.382   .     S
C1309  O1541   1.385   .     S
C1309  C1314   1.392   .     A
C1310  O1542   1.385   .     S
C1310  C1313   1.392   .     A
C1311  C1312   1.392   .     A
C1311  O1543   1.385   .     S
C1312  O1544   1.385   .     S
C1313  O1545   1.385   .     S
C1314  O1546   1.385   .     S
C1315  O1548   1.385   .     S
C1316  O1549   1.385   .     S
C1317  C1340   1.416   .     A
C1317  O1550   1.385   .     S
C1318  O1551   1.385   .     S
C1318  C1339   1.416   .     A
C1319  O1526   1.393   .     S
C1320  C1338   1.416   .     A
C1320  O1552   1.385   .     S
C1321  C1339   1.416   .     A
C1321  C1337   1.392   .     A
C1321  O1553   1.385   .     S
C1322  C1338   1.416   .     A
C1322  O1554   1.385   .     S
C1322  C1336   1.392   .     A
C1323  C1335   1.392   .     A
C1323  O1555   1.385   .     S
C1324  C1340   1.416   .     A
C1324  C1334   1.392   .     A
C1324  O1556   1.385   .     S
C1325  O1557   1.385   .     S
C1325  C1333   1.392   .     A
C1326  C1332   1.392   .     A
C1326  O1559   1.385   .     S
C1327  C1331   1.392   .     A
C1327  O1560   1.385   .     S
C1328  C1329   1.392   .     A
C1328  O1561   1.385   .     S
C1329  O1562   1.385   .     S
C1330  O1527   1.382   .     S
C1330  C876    1.408   1_655 S
C1331  O1563   1.385   .     S
C1332  O1564   1.385   .     S
C1333  O1565   1.385   .     S
C1334  O1566   1.385   .     S
C1335  O1567   1.385   .     S
C1336  O1568   1.385   .     S
C1337  O1471   1.385   .     S
H1343  O1539   0.988   .     S
H1344  O1540   0.988   .     S
H1345  O1541   0.988   .     S
H1346  O1542   0.988   .     S
H1347  O1543   0.988   .     S
H1348  O1544   0.988   .     S
H1349  O1545   0.988   .     S
H1350  O1546   0.988   .     S
H1351  O1548   0.988   .     S
H1352  O1549   0.988   .     S
H1354  O1550   0.988   .     S
H1355  O1551   0.988   .     S
H1356  O1552   0.988   .     S
H1357  O1553   0.988   .     S
H1358  O1554   0.988   .     S
H1359  O1555   0.988   .     S
H1360  O1556   0.988   .     S
H1361  O1557   0.988   .     S
H1362  O1559   0.988   .     S
H1363  O1560   0.988   .     S
H1365  O1561   0.988   .     S
H1366  O1562   0.988   .     S
H1367  O1563   0.988   .     S
H1368  O1564   0.988   .     S
H1369  O1565   0.988   .     S
H1370  O1566   0.988   .     S
H1371  O1567   0.988   .     S
H1372  O1568   0.988   .     S
H1373  O1471   0.988   .     S
H1380  C1215   1.111   1_554 S
H1386  C1217   1.111   1_554 S
H1388  C1217   1.111   1_554 S
H1389  C1218   1.111   1_556 S
H1391  C1219   1.111   1_554 S
H1395  C1220   1.112   1_554 S
H1397  C1221   1.111   1_556 S
H1402  C1224   1.111   1_556 S
H1405  C1224   1.111   1_556 S
H1409  C1226   1.111   1_554 S
H1410  C1226   1.111   1_554 S
H1413  C1228   1.111   1_554 S
H1419  C1230   1.111   1_554 S
H1421  C1230   1.111   1_554 S
H1466  O1535   0.988   .     S
H1467  O1537   0.988   .     S
H1468  O1538   0.988   .     S
O1469  Zn1572  1.943   .     S
O1469  Zn1569  1.943   .     S
O1469  Zn1580  1.943   .     S
O1470  Zn1571  1.938   .     S
O1470  C486    1.280   1_565 S
O1472  Zn1574  1.938   .     S
O1472  C883    1.281   1_655 A
O1473  Zn1573  1.938   .     S
O1474  Zn1583  1.938   .     S
O1475  Zn1582  1.938   .     S
O1476  Zn1577  1.938   .     S
O1477  Zn1569  1.938   .     S
O1478  Zn1579  1.938   .     S
O1479  Zn1578  1.938   .     S
O1480  Zn1581  1.938   .     S
O1481  Zn1581  1.943   .     S
O1481  Zn1577  1.943   .     S
O1481  Zn1575  1.943   .     S
O1482  Zn1580  1.938   .     S
O1483  Zn1572  1.934   .     S
O1484  Zn1571  1.934   .     S
O1485  Zn1574  1.934   .     S
O1486  Zn1573  1.934   .     S
O1487  Zn1576  1.934   .     S
O1488  Zn1575  1.934   .     S
O1489  Zn1570  1.934   .     S
O1490  Zn1584  1.934   .     S
O1491  Zn1571  1.934   .     S
O1492  Zn1578  1.943   .     S
O1492  Zn1570  1.943   .     S
O1492  Zn1582  1.943   .     S
O1493  Zn1572  1.934   .     S
O1494  Zn1584  1.934   .     S
O1495  Zn1570  1.934   .     S
O1496  Zn1575  1.934   .     S
O1497  Zn1576  1.934   .     S
O1498  Zn1573  1.934   .     S
O1499  Zn1574  1.934   .     S
O1500  Zn1183  1.934   1_655 S
O1501  Zn1578  1.934   .     S
O1502  Zn789   1.934   1_565 S
O1503  Zn1573  1.943   .     S
O1503  Zn1579  1.943   .     S
O1503  Zn1583  1.943   .     S
O1504  Zn1580  1.934   .     S
O1505  Zn1583  1.934   .     S
O1506  Zn1186  1.934   1_655 S
O1507  Zn1577  1.934   .     S
O1508  Zn777   1.934   1_565 S
O1509  Zn1182  1.934   1_655 S
O1510  Zn1579  1.934   .     S
O1511  Zn1569  1.934   .     S
O1512  Zn785   1.934   1_565 S
O1513  Zn1582  1.934   .     S
O1514  Zn1576  1.938   .     S
O1515  Zn1187  1.934   1_655 S
O1516  Zn788   1.934   1_565 S
O1517  Zn1581  1.934   .     S
O1525  Zn1575  1.938   .     S
O1536  Zn1570  1.938   .     S
O1547  Zn1584  1.938   .     S
O1547  C884    1.280   1_655 S
O1558  Zn1572  1.938   .     S
Zn1571 O689    1.943   1_565 S
Zn1574 O1096   1.943   1_655 S
Zn1576 O677    1.943   1_565 S
Zn1584 O1107   1.943   1_655 S
