data_str_m1_o1_o2_pcu_sym.44
_audit_creation_date              2020-01-03
_audit_creation_method            'Materials Studio'
_symmetry_space_group_name_H-M    'P1'
_symmetry_Int_Tables_number       1
_symmetry_cell_setting            triclinic
loop_
_symmetry_equiv_pos_as_xyz
  x,y,z
_cell_length_a                    36.7092
_cell_length_b                    36.7092
_cell_length_c                    34.3970
_cell_angle_alpha                 90.0000
_cell_angle_beta                  90.0000
_cell_angle_gamma                 90.0000
loop_
_atom_site_label
_atom_site_type_symbol
_atom_site_fract_x
_atom_site_fract_y
_atom_site_fract_z
_atom_site_U_iso_or_equiv
_atom_site_adp_type
_atom_site_occupancy
Br1    Br    0.21393   0.42919   0.10823   0.00000  Uiso   1.00
Br2    Br    0.03606   0.17918   0.39177   0.00000  Uiso   1.00
Br3    Br    0.17919   0.46393   0.60823   0.00000  Uiso   1.00
Br4    Br    0.17919   0.03606   0.39177   0.00000  Uiso   1.00
Br5    Br    0.03609   0.32080   0.60823   0.00000  Uiso   1.00
Br6    Br    0.46394   0.32082   0.39177   0.00000  Uiso   1.00
Br7    Br    0.32081   0.03607   0.60823   0.00000  Uiso   1.00
Br8    Br    0.32081   0.46394   0.39177   0.00000  Uiso   1.00
Br9    Br    0.28607   0.42919   0.89177   0.00000  Uiso   1.00
Br10   Br    0.42919   0.21392   0.10823   0.00000  Uiso   1.00
Br11   Br    0.42919   0.28606   0.89177   0.00000  Uiso   1.00
Br12   Br    0.28607   0.07081   0.10823   0.00000  Uiso   1.00
Br13   Br    0.21393   0.07081   0.89177   0.00000  Uiso   1.00
Br14   Br    0.07081   0.28608   0.10823   0.00000  Uiso   1.00
Br15   Br    0.07082   0.21394   0.89177   0.00000  Uiso   1.00
Br16   Br    0.46391   0.17920   0.60823   0.00000  Uiso   1.00
C17    C     0.23499   0.47058   0.04161   0.00000  Uiso   1.00
C18    C     0.01500   0.22057   0.45839   0.00000  Uiso   1.00
C19    C     0.34810   0.40181   0.75008   0.00000  Uiso   1.00
C20    C     0.40181   0.15190   0.24992   0.00000  Uiso   1.00
C21    C     0.09810   0.34819   0.74992   0.00000  Uiso   1.00
C22    C     0.34819   0.40190   0.25008   0.00000  Uiso   1.00
C23    C     0.15190   0.09819   0.75008   0.00000  Uiso   1.00
C24    C     0.09819   0.15190   0.75008   0.00000  Uiso   1.00
C25    C     0.40190   0.34819   0.25008   0.00000  Uiso   1.00
C26    C     0.15181   0.40190   0.74992   0.00000  Uiso   1.00
C27    C     0.34810   0.09819   0.24992   0.00000  Uiso   1.00
C28    C     0.40181   0.34810   0.75008   0.00000  Uiso   1.00
C29    C     0.22058   0.48499   0.54161   0.00000  Uiso   1.00
C30    C     0.09810   0.15181   0.25008   0.00000  Uiso   1.00
C31    C     0.34819   0.09810   0.74992   0.00000  Uiso   1.00
C32    C     0.15190   0.40181   0.24992   0.00000  Uiso   1.00
C33    C     0.25000   0.00000   0.10255   0.00000  Uiso   1.00
C34    C     0.25000   0.00000   0.89745   0.00000  Uiso   1.00
C35    C     0.00000   0.25000   0.10255   0.00000  Uiso   1.00
C36    C     0.00000   0.25000   0.89745   0.00000  Uiso   1.00
C37    C     0.00000   0.25000   0.60255   0.00000  Uiso   1.00
C38    C     0.00000   0.25000   0.39745   0.00000  Uiso   1.00
C39    C     0.25000   0.00000   0.60255   0.00000  Uiso   1.00
C40    C     0.22057   0.01500   0.45839   0.00000  Uiso   1.00
C41    C     0.25000   0.00000   0.39745   0.00000  Uiso   1.00
C42    C     0.01502   0.27942   0.54161   0.00000  Uiso   1.00
C43    C     0.48500   0.27943   0.45839   0.00000  Uiso   1.00
C44    C     0.27942   0.01501   0.54161   0.00000  Uiso   1.00
C45    C     0.27943   0.48500   0.45839   0.00000  Uiso   1.00
C46    C     0.23462   0.47055   0.08211   0.00000  Uiso   1.00
C47    C     0.26538   0.47055   0.91789   0.00000  Uiso   1.00
C48    C     0.47055   0.23461   0.08211   0.00000  Uiso   1.00
C49    C     0.26501   0.47058   0.95839   0.00000  Uiso   1.00
C50    C     0.47055   0.26538   0.91789   0.00000  Uiso   1.00
C51    C     0.26538   0.02945   0.08211   0.00000  Uiso   1.00
C52    C     0.23462   0.02945   0.91789   0.00000  Uiso   1.00
C53    C     0.02945   0.26539   0.08211   0.00000  Uiso   1.00
C54    C     0.02945   0.23462   0.91789   0.00000  Uiso   1.00
C55    C     0.48461   0.22055   0.58211   0.00000  Uiso   1.00
C56    C     0.01538   0.22055   0.41789   0.00000  Uiso   1.00
C57    C     0.22055   0.48462   0.58211   0.00000  Uiso   1.00
C58    C     0.22055   0.01538   0.41789   0.00000  Uiso   1.00
C59    C     0.01539   0.27945   0.58211   0.00000  Uiso   1.00
C60    C     0.47058   0.23499   0.04161   0.00000  Uiso   1.00
C61    C     0.48462   0.27945   0.41789   0.00000  Uiso   1.00
C62    C     0.27945   0.01538   0.58211   0.00000  Uiso   1.00
C63    C     0.27945   0.48462   0.41789   0.00000  Uiso   1.00
C64    C     0.25000   0.00000   0.02128   0.00000  Uiso   1.00
C65    C     0.25000   0.00000   0.97872   0.00000  Uiso   1.00
C66    C     0.00000   0.25000   0.02128   0.00000  Uiso   1.00
C67    C     0.00000   0.25000   0.97872   0.00000  Uiso   1.00
C68    C     0.00000   0.25000   0.52128   0.00000  Uiso   1.00
C69    C     0.00000   0.25000   0.47872   0.00000  Uiso   1.00
C70    C     0.25000   0.00000   0.52128   0.00000  Uiso   1.00
C71    C     0.47057   0.26500   0.95839   0.00000  Uiso   1.00
C72    C     0.25000   0.00000   0.47872   0.00000  Uiso   1.00
C73    C     0.25000   0.00000   0.35511   0.00000  Uiso   1.00
C74    C     0.25000   0.00000   0.64488   0.00000  Uiso   1.00
C75    C     0.00000   0.25000   0.35511   0.00000  Uiso   1.00
C76    C     0.00000   0.25000   0.64488   0.00000  Uiso   1.00
C77    C     0.00000   0.25000   0.85511   0.00000  Uiso   1.00
C78    C     0.00000   0.25000   0.14488   0.00000  Uiso   1.00
C79    C     0.25000   0.00000   0.85511   0.00000  Uiso   1.00
C80    C     0.25000   0.00000   0.14488   0.00000  Uiso   1.00
C81    C     0.17990   0.07007   0.25002   0.00000  Uiso   1.00
C82    C     0.26501   0.02942   0.04161   0.00000  Uiso   1.00
C83    C     0.32007   0.42990   0.75002   0.00000  Uiso   1.00
C84    C     0.42990   0.17993   0.24998   0.00000  Uiso   1.00
C85    C     0.07007   0.32010   0.74998   0.00000  Uiso   1.00
C86    C     0.32010   0.42993   0.25002   0.00000  Uiso   1.00
C87    C     0.17993   0.07010   0.75002   0.00000  Uiso   1.00
C88    C     0.07010   0.32007   0.24998   0.00000  Uiso   1.00
C89    C     0.42993   0.17990   0.74998   0.00000  Uiso   1.00
C90    C     0.17990   0.42993   0.74998   0.00000  Uiso   1.00
C91    C     0.32007   0.07010   0.24998   0.00000  Uiso   1.00
C92    C     0.42990   0.32007   0.75002   0.00000  Uiso   1.00
C93    C     0.23499   0.02942   0.95839   0.00000  Uiso   1.00
C94    C     0.07007   0.17990   0.25002   0.00000  Uiso   1.00
C95    C     0.32010   0.07007   0.74998   0.00000  Uiso   1.00
C96    C     0.17993   0.42990   0.24998   0.00000  Uiso   1.00
C97    C     0.07010   0.17993   0.75002   0.00000  Uiso   1.00
C98    C     0.42993   0.32010   0.25002   0.00000  Uiso   1.00
C99    C     0.12215   0.40456   0.22454   0.00000  Uiso   1.00
C100   C     0.37797   0.09531   0.77525   0.00000  Uiso   1.00
C101   C     0.09531   0.12203   0.22474   0.00000  Uiso   1.00
C102   C     0.40456   0.37785   0.77546   0.00000  Uiso   1.00
C103   C     0.37785   0.09544   0.22454   0.00000  Uiso   1.00
C104   C     0.02942   0.26501   0.04161   0.00000  Uiso   1.00
C105   C     0.12203   0.40469   0.77525   0.00000  Uiso   1.00
C106   C     0.40469   0.37797   0.22474   0.00000  Uiso   1.00
C107   C     0.09544   0.12215   0.77546   0.00000  Uiso   1.00
C108   C     0.12215   0.09544   0.77546   0.00000  Uiso   1.00
C109   C     0.37797   0.40469   0.22474   0.00000  Uiso   1.00
C110   C     0.09531   0.37797   0.77525   0.00000  Uiso   1.00
C111   C     0.40456   0.12215   0.22454   0.00000  Uiso   1.00
C112   C     0.37785   0.40456   0.77546   0.00000  Uiso   1.00
C113   C     0.12203   0.09531   0.22474   0.00000  Uiso   1.00
C114   C     0.40469   0.12203   0.77525   0.00000  Uiso   1.00
C115   C     0.02943   0.23500   0.95839   0.00000  Uiso   1.00
C116   C     0.09544   0.37785   0.22454   0.00000  Uiso   1.00
C117   C     0.37215   0.15456   0.72454   0.00000  Uiso   1.00
C118   C     0.12797   0.34531   0.27525   0.00000  Uiso   1.00
C119   C     0.34531   0.37203   0.72474   0.00000  Uiso   1.00
C120   C     0.15456   0.12785   0.27546   0.00000  Uiso   1.00
C121   C     0.12785   0.34544   0.72454   0.00000  Uiso   1.00
C122   C     0.37203   0.15469   0.27525   0.00000  Uiso   1.00
C123   C     0.15469   0.12797   0.72474   0.00000  Uiso   1.00
C124   C     0.34544   0.37215   0.27546   0.00000  Uiso   1.00
C125   C     0.37215   0.34544   0.27546   0.00000  Uiso   1.00
C126   C     0.48498   0.22058   0.54161   0.00000  Uiso   1.00
C127   C     0.12797   0.15469   0.72474   0.00000  Uiso   1.00
C128   C     0.34531   0.12797   0.27525   0.00000  Uiso   1.00
C129   C     0.15456   0.37215   0.72454   0.00000  Uiso   1.00
C130   C     0.12785   0.15456   0.27546   0.00000  Uiso   1.00
C131   C     0.37203   0.34531   0.72474   0.00000  Uiso   1.00
C132   C     0.15469   0.37203   0.27525   0.00000  Uiso   1.00
C133   C     0.34544   0.12785   0.72454   0.00000  Uiso   1.00
C134   C     0.09819   0.34810   0.24992   0.00000  Uiso   1.00
C135   C     0.40190   0.15181   0.74992   0.00000  Uiso   1.00
C136   C     0.15181   0.09810   0.25008   0.00000  Uiso   1.00
H137   H     0.22326   0.44781   0.02595   0.00000  Uiso   1.00
H138   H     0.02672   0.19780   0.47405   0.00000  Uiso   1.00
H139   H     0.19781   0.47326   0.52595   0.00000  Uiso   1.00
H140   H     0.19781   0.02673   0.47405   0.00000  Uiso   1.00
H141   H     0.02675   0.30218   0.52595   0.00000  Uiso   1.00
H142   H     0.47328   0.30220   0.47405   0.00000  Uiso   1.00
H143   H     0.30219   0.02674   0.52595   0.00000  Uiso   1.00
H144   H     0.30219   0.47327   0.47405   0.00000  Uiso   1.00
H145   H     0.11948   0.42731   0.20468   0.00000  Uiso   1.00
H146   H     0.38065   0.07256   0.79510   0.00000  Uiso   1.00
H147   H     0.07256   0.11935   0.20490   0.00000  Uiso   1.00
H148   H     0.27674   0.44781   0.97405   0.00000  Uiso   1.00
H149   H     0.42731   0.38052   0.79531   0.00000  Uiso   1.00
H150   H     0.38052   0.07269   0.20468   0.00000  Uiso   1.00
H151   H     0.11935   0.42744   0.79510   0.00000  Uiso   1.00
H152   H     0.42744   0.38065   0.20490   0.00000  Uiso   1.00
H153   H     0.07269   0.11948   0.79531   0.00000  Uiso   1.00
H154   H     0.11948   0.07269   0.79531   0.00000  Uiso   1.00
H155   H     0.38065   0.42744   0.20490   0.00000  Uiso   1.00
H156   H     0.07256   0.38065   0.79510   0.00000  Uiso   1.00
H157   H     0.42731   0.11948   0.20468   0.00000  Uiso   1.00
H158   H     0.38052   0.42731   0.79531   0.00000  Uiso   1.00
H159   H     0.44781   0.22326   0.02595   0.00000  Uiso   1.00
H160   H     0.11935   0.07256   0.20490   0.00000  Uiso   1.00
H161   H     0.42744   0.11935   0.79510   0.00000  Uiso   1.00
H162   H     0.07269   0.38052   0.20468   0.00000  Uiso   1.00
H163   H     0.36948   0.17731   0.70468   0.00000  Uiso   1.00
H164   H     0.13065   0.32256   0.29510   0.00000  Uiso   1.00
H165   H     0.32256   0.36935   0.70490   0.00000  Uiso   1.00
H166   H     0.17731   0.13052   0.29532   0.00000  Uiso   1.00
H167   H     0.13052   0.32269   0.70468   0.00000  Uiso   1.00
H168   H     0.36935   0.17744   0.29510   0.00000  Uiso   1.00
H169   H     0.17744   0.13065   0.70490   0.00000  Uiso   1.00
H170   H     0.44781   0.27673   0.97405   0.00000  Uiso   1.00
H171   H     0.32269   0.36948   0.29532   0.00000  Uiso   1.00
H172   H     0.36948   0.32269   0.29532   0.00000  Uiso   1.00
H173   H     0.13065   0.17744   0.70490   0.00000  Uiso   1.00
H174   H     0.32256   0.13065   0.29510   0.00000  Uiso   1.00
H175   H     0.17731   0.36948   0.70468   0.00000  Uiso   1.00
H176   H     0.13052   0.17731   0.29532   0.00000  Uiso   1.00
H177   H     0.36935   0.32256   0.70490   0.00000  Uiso   1.00
H178   H     0.17744   0.36935   0.29510   0.00000  Uiso   1.00
H179   H     0.32269   0.13052   0.70468   0.00000  Uiso   1.00
H180   H     0.27674   0.05219   0.02595   0.00000  Uiso   1.00
H181   H     0.22326   0.05219   0.97405   0.00000  Uiso   1.00
H182   H     0.05219   0.27674   0.02595   0.00000  Uiso   1.00
H183   H     0.05219   0.22327   0.97405   0.00000  Uiso   1.00
H184   H     0.47325   0.19782   0.52595   0.00000  Uiso   1.00
O185   O     0.25000   0.00000   0.25000   0.00000  Uiso   1.00
O186   O     0.25000   0.46964   0.66317   0.00000  Uiso   1.00
O187   O     0.46964   0.25000   0.33683   0.00000  Uiso   1.00
O188   O     0.03036   0.25000   0.66317   0.00000  Uiso   1.00
O189   O     0.00000   0.21964   0.83683   0.00000  Uiso   1.00
O190   O     0.00000   0.28036   0.16317   0.00000  Uiso   1.00
O191   O     0.28036   0.00000   0.83683   0.00000  Uiso   1.00
O192   O     0.21964   0.00000   0.16317   0.00000  Uiso   1.00
O193   O     0.00000   0.28036   0.83683   0.00000  Uiso   1.00
O194   O     0.00000   0.21964   0.16317   0.00000  Uiso   1.00
O195   O     0.21964   0.00000   0.83683   0.00000  Uiso   1.00
O196   O     0.25000   0.00000   0.75000   0.00000  Uiso   1.00
O197   O     0.28036   0.00000   0.16317   0.00000  Uiso   1.00
O198   O     0.20726   0.07307   0.27282   0.00000  Uiso   1.00
O199   O     0.29275   0.42693   0.72718   0.00000  Uiso   1.00
O200   O     0.42693   0.20726   0.27282   0.00000  Uiso   1.00
O201   O     0.07307   0.29275   0.72718   0.00000  Uiso   1.00
O202   O     0.29275   0.42693   0.27282   0.00000  Uiso   1.00
O203   O     0.20726   0.07307   0.72718   0.00000  Uiso   1.00
O204   O     0.07307   0.29275   0.27282   0.00000  Uiso   1.00
O205   O     0.42693   0.20726   0.72718   0.00000  Uiso   1.00
O206   O     0.20726   0.42693   0.72718   0.00000  Uiso   1.00
O207   O     0.00000   0.25000   0.25000   0.00000  Uiso   1.00
O208   O     0.29275   0.07307   0.27282   0.00000  Uiso   1.00
O209   O     0.42693   0.29275   0.72718   0.00000  Uiso   1.00
O210   O     0.07307   0.20726   0.27282   0.00000  Uiso   1.00
O211   O     0.29275   0.07307   0.72718   0.00000  Uiso   1.00
O212   O     0.20726   0.42693   0.27282   0.00000  Uiso   1.00
O213   O     0.07307   0.20726   0.72718   0.00000  Uiso   1.00
O214   O     0.42693   0.29275   0.27282   0.00000  Uiso   1.00
O215   O     0.45726   0.32307   0.77282   0.00000  Uiso   1.00
O216   O     0.04275   0.17693   0.22718   0.00000  Uiso   1.00
O217   O     0.17693   0.45726   0.77282   0.00000  Uiso   1.00
O218   O     0.00000   0.25000   0.75000   0.00000  Uiso   1.00
O219   O     0.32307   0.04275   0.22718   0.00000  Uiso   1.00
O220   O     0.04275   0.17693   0.77282   0.00000  Uiso   1.00
O221   O     0.45726   0.32307   0.22718   0.00000  Uiso   1.00
O222   O     0.32307   0.04275   0.77282   0.00000  Uiso   1.00
O223   O     0.17693   0.45726   0.22718   0.00000  Uiso   1.00
O224   O     0.45726   0.17693   0.22718   0.00000  Uiso   1.00
O225   O     0.04275   0.32307   0.77282   0.00000  Uiso   1.00
O226   O     0.17693   0.04275   0.22718   0.00000  Uiso   1.00
O227   O     0.32307   0.45726   0.77282   0.00000  Uiso   1.00
O228   O     0.04275   0.32307   0.22718   0.00000  Uiso   1.00
O229   O     0.25000   0.46964   0.33683   0.00000  Uiso   1.00
O230   O     0.45726   0.17693   0.77282   0.00000  Uiso   1.00
O231   O     0.32307   0.45726   0.22718   0.00000  Uiso   1.00
O232   O     0.17693   0.04275   0.77282   0.00000  Uiso   1.00
O233   O     0.25000   0.03036   0.66317   0.00000  Uiso   1.00
O234   O     0.03036   0.25000   0.33683   0.00000  Uiso   1.00
O235   O     0.46964   0.25000   0.66317   0.00000  Uiso   1.00
O236   O     0.25000   0.03036   0.33683   0.00000  Uiso   1.00
Zn237  Zn    0.20660   0.00000   0.21760   0.00000  Uiso   1.00
Zn238  Zn    0.04340   0.25000   0.28240   0.00000  Uiso   1.00
Zn239  Zn    0.25000   0.45660   0.71760   0.00000  Uiso   1.00
Zn240  Zn    0.25000   0.04340   0.28240   0.00000  Uiso   1.00
Zn241  Zn    0.04340   0.25000   0.71760   0.00000  Uiso   1.00
Zn242  Zn    0.45660   0.25000   0.28240   0.00000  Uiso   1.00
Zn243  Zn    0.25000   0.04340   0.71760   0.00000  Uiso   1.00
Zn244  Zn    0.25000   0.45660   0.28240   0.00000  Uiso   1.00
Zn245  Zn    0.29340   0.00000   0.78240   0.00000  Uiso   1.00
Zn246  Zn    0.00000   0.20660   0.21760   0.00000  Uiso   1.00
Zn247  Zn    0.00000   0.29340   0.78240   0.00000  Uiso   1.00
Zn248  Zn    0.29340   0.00000   0.21760   0.00000  Uiso   1.00
Zn249  Zn    0.20660   0.00000   0.78240   0.00000  Uiso   1.00
Zn250  Zn    0.00000   0.29340   0.21760   0.00000  Uiso   1.00
Zn251  Zn    0.00000   0.20660   0.78240   0.00000  Uiso   1.00
Zn252  Zn    0.45660   0.25000   0.71760   0.00000  Uiso   1.00
Br253  Br    0.71393   0.42919   0.10823   0.00000  Uiso   1.00
Br254  Br    0.53606   0.17918   0.39177   0.00000  Uiso   1.00
Br255  Br    0.67919   0.46393   0.60823   0.00000  Uiso   1.00
Br256  Br    0.67919   0.03606   0.39177   0.00000  Uiso   1.00
Br257  Br    0.53609   0.32080   0.60823   0.00000  Uiso   1.00
Br258  Br    0.96394   0.32082   0.39177   0.00000  Uiso   1.00
Br259  Br    0.82081   0.03607   0.60823   0.00000  Uiso   1.00
Br260  Br    0.82081   0.46394   0.39177   0.00000  Uiso   1.00
Br261  Br    0.78607   0.42919   0.89177   0.00000  Uiso   1.00
Br262  Br    0.92919   0.21392   0.10823   0.00000  Uiso   1.00
Br263  Br    0.92919   0.28606   0.89177   0.00000  Uiso   1.00
Br264  Br    0.78607   0.07081   0.10823   0.00000  Uiso   1.00
Br265  Br    0.71393   0.07081   0.89177   0.00000  Uiso   1.00
Br266  Br    0.57081   0.28608   0.10823   0.00000  Uiso   1.00
Br267  Br    0.57082   0.21394   0.89177   0.00000  Uiso   1.00
Br268  Br    0.96391   0.17920   0.60823   0.00000  Uiso   1.00
C269   C     0.73499   0.47058   0.04161   0.00000  Uiso   1.00
C270   C     0.51500   0.22057   0.45839   0.00000  Uiso   1.00
C271   C     0.84810   0.40181   0.75008   0.00000  Uiso   1.00
C272   C     0.90181   0.15190   0.24992   0.00000  Uiso   1.00
C273   C     0.59810   0.34819   0.74992   0.00000  Uiso   1.00
C274   C     0.84819   0.40190   0.25008   0.00000  Uiso   1.00
C275   C     0.65190   0.09819   0.75008   0.00000  Uiso   1.00
C276   C     0.59819   0.15190   0.75008   0.00000  Uiso   1.00
C277   C     0.90190   0.34819   0.25008   0.00000  Uiso   1.00
C278   C     0.65181   0.40190   0.74992   0.00000  Uiso   1.00
C279   C     0.84810   0.09819   0.24992   0.00000  Uiso   1.00
C280   C     0.90181   0.34810   0.75008   0.00000  Uiso   1.00
C281   C     0.72058   0.48499   0.54161   0.00000  Uiso   1.00
C282   C     0.59810   0.15181   0.25008   0.00000  Uiso   1.00
C283   C     0.84819   0.09810   0.74992   0.00000  Uiso   1.00
C284   C     0.65190   0.40181   0.24992   0.00000  Uiso   1.00
C285   C     0.75000   0.00000   0.10255   0.00000  Uiso   1.00
C286   C     0.75000   0.00000   0.89745   0.00000  Uiso   1.00
C287   C     0.50000   0.25000   0.10255   0.00000  Uiso   1.00
C288   C     0.50000   0.25000   0.89745   0.00000  Uiso   1.00
C289   C     0.50000   0.25000   0.60255   0.00000  Uiso   1.00
C290   C     0.50000   0.25000   0.39745   0.00000  Uiso   1.00
C291   C     0.75000   0.00000   0.60255   0.00000  Uiso   1.00
C292   C     0.72057   0.01500   0.45839   0.00000  Uiso   1.00
C293   C     0.75000   0.00000   0.39745   0.00000  Uiso   1.00
C294   C     0.51502   0.27942   0.54161   0.00000  Uiso   1.00
C295   C     0.98500   0.27943   0.45839   0.00000  Uiso   1.00
C296   C     0.77942   0.01501   0.54161   0.00000  Uiso   1.00
C297   C     0.77943   0.48500   0.45839   0.00000  Uiso   1.00
C298   C     0.73462   0.47055   0.08211   0.00000  Uiso   1.00
C299   C     0.76538   0.47055   0.91789   0.00000  Uiso   1.00
C300   C     0.97055   0.23461   0.08211   0.00000  Uiso   1.00
C301   C     0.76501   0.47058   0.95839   0.00000  Uiso   1.00
C302   C     0.97055   0.26538   0.91789   0.00000  Uiso   1.00
C303   C     0.76538   0.02945   0.08211   0.00000  Uiso   1.00
C304   C     0.73462   0.02945   0.91789   0.00000  Uiso   1.00
C305   C     0.52945   0.26539   0.08211   0.00000  Uiso   1.00
C306   C     0.52945   0.23462   0.91789   0.00000  Uiso   1.00
C307   C     0.98461   0.22055   0.58211   0.00000  Uiso   1.00
C308   C     0.51538   0.22055   0.41789   0.00000  Uiso   1.00
C309   C     0.72055   0.48462   0.58211   0.00000  Uiso   1.00
C310   C     0.72055   0.01538   0.41789   0.00000  Uiso   1.00
C311   C     0.51539   0.27945   0.58211   0.00000  Uiso   1.00
C312   C     0.97058   0.23499   0.04161   0.00000  Uiso   1.00
C313   C     0.98462   0.27945   0.41789   0.00000  Uiso   1.00
C314   C     0.77945   0.01538   0.58211   0.00000  Uiso   1.00
C315   C     0.77945   0.48462   0.41789   0.00000  Uiso   1.00
C316   C     0.75000   0.00000   0.02128   0.00000  Uiso   1.00
C317   C     0.75000   0.00000   0.97872   0.00000  Uiso   1.00
C318   C     0.50000   0.25000   0.02128   0.00000  Uiso   1.00
C319   C     0.50000   0.25000   0.97872   0.00000  Uiso   1.00
C320   C     0.50000   0.25000   0.52128   0.00000  Uiso   1.00
C321   C     0.50000   0.25000   0.47872   0.00000  Uiso   1.00
C322   C     0.75000   0.00000   0.52128   0.00000  Uiso   1.00
C323   C     0.97057   0.26500   0.95839   0.00000  Uiso   1.00
C324   C     0.75000   0.00000   0.47872   0.00000  Uiso   1.00
C325   C     0.75000   0.00000   0.35511   0.00000  Uiso   1.00
C326   C     0.75000   0.00000   0.64488   0.00000  Uiso   1.00
C327   C     0.50000   0.25000   0.35511   0.00000  Uiso   1.00
C328   C     0.50000   0.25000   0.64488   0.00000  Uiso   1.00
C329   C     0.50000   0.25000   0.85511   0.00000  Uiso   1.00
C330   C     0.50000   0.25000   0.14488   0.00000  Uiso   1.00
C331   C     0.75000   0.00000   0.85511   0.00000  Uiso   1.00
C332   C     0.75000   0.00000   0.14488   0.00000  Uiso   1.00
C333   C     0.67990   0.07007   0.25002   0.00000  Uiso   1.00
C334   C     0.76501   0.02942   0.04161   0.00000  Uiso   1.00
C335   C     0.82007   0.42990   0.75002   0.00000  Uiso   1.00
C336   C     0.92990   0.17993   0.24998   0.00000  Uiso   1.00
C337   C     0.57007   0.32010   0.74998   0.00000  Uiso   1.00
C338   C     0.82010   0.42993   0.25002   0.00000  Uiso   1.00
C339   C     0.67993   0.07010   0.75002   0.00000  Uiso   1.00
C340   C     0.57010   0.32007   0.24998   0.00000  Uiso   1.00
C341   C     0.92993   0.17990   0.74998   0.00000  Uiso   1.00
C342   C     0.67990   0.42993   0.74998   0.00000  Uiso   1.00
C343   C     0.82007   0.07010   0.24998   0.00000  Uiso   1.00
C344   C     0.92990   0.32007   0.75002   0.00000  Uiso   1.00
C345   C     0.73499   0.02942   0.95839   0.00000  Uiso   1.00
C346   C     0.57007   0.17990   0.25002   0.00000  Uiso   1.00
C347   C     0.82010   0.07007   0.74998   0.00000  Uiso   1.00
C348   C     0.67993   0.42990   0.24998   0.00000  Uiso   1.00
C349   C     0.57010   0.17993   0.75002   0.00000  Uiso   1.00
C350   C     0.92993   0.32010   0.25002   0.00000  Uiso   1.00
C351   C     0.62215   0.40456   0.22454   0.00000  Uiso   1.00
C352   C     0.87797   0.09531   0.77525   0.00000  Uiso   1.00
C353   C     0.59531   0.12203   0.22474   0.00000  Uiso   1.00
C354   C     0.90456   0.37785   0.77546   0.00000  Uiso   1.00
C355   C     0.87785   0.09544   0.22454   0.00000  Uiso   1.00
C356   C     0.52942   0.26501   0.04161   0.00000  Uiso   1.00
C357   C     0.62203   0.40469   0.77525   0.00000  Uiso   1.00
C358   C     0.90469   0.37797   0.22474   0.00000  Uiso   1.00
C359   C     0.59544   0.12215   0.77546   0.00000  Uiso   1.00
C360   C     0.62215   0.09544   0.77546   0.00000  Uiso   1.00
C361   C     0.87797   0.40469   0.22474   0.00000  Uiso   1.00
C362   C     0.59531   0.37797   0.77525   0.00000  Uiso   1.00
C363   C     0.90456   0.12215   0.22454   0.00000  Uiso   1.00
C364   C     0.87785   0.40456   0.77546   0.00000  Uiso   1.00
C365   C     0.62203   0.09531   0.22474   0.00000  Uiso   1.00
C366   C     0.90469   0.12203   0.77525   0.00000  Uiso   1.00
C367   C     0.52943   0.23500   0.95839   0.00000  Uiso   1.00
C368   C     0.59544   0.37785   0.22454   0.00000  Uiso   1.00
C369   C     0.87215   0.15456   0.72454   0.00000  Uiso   1.00
C370   C     0.62797   0.34531   0.27525   0.00000  Uiso   1.00
C371   C     0.84531   0.37203   0.72474   0.00000  Uiso   1.00
C372   C     0.65456   0.12785   0.27546   0.00000  Uiso   1.00
C373   C     0.62785   0.34544   0.72454   0.00000  Uiso   1.00
C374   C     0.87203   0.15469   0.27525   0.00000  Uiso   1.00
C375   C     0.65469   0.12797   0.72474   0.00000  Uiso   1.00
C376   C     0.84544   0.37215   0.27546   0.00000  Uiso   1.00
C377   C     0.87215   0.34544   0.27546   0.00000  Uiso   1.00
C378   C     0.98498   0.22058   0.54161   0.00000  Uiso   1.00
C379   C     0.62797   0.15469   0.72474   0.00000  Uiso   1.00
C380   C     0.84531   0.12797   0.27525   0.00000  Uiso   1.00
C381   C     0.65456   0.37215   0.72454   0.00000  Uiso   1.00
C382   C     0.62785   0.15456   0.27546   0.00000  Uiso   1.00
C383   C     0.87203   0.34531   0.72474   0.00000  Uiso   1.00
C384   C     0.65469   0.37203   0.27525   0.00000  Uiso   1.00
C385   C     0.84544   0.12785   0.72454   0.00000  Uiso   1.00
C386   C     0.59819   0.34810   0.24992   0.00000  Uiso   1.00
C387   C     0.90190   0.15181   0.74992   0.00000  Uiso   1.00
C388   C     0.65181   0.09810   0.25008   0.00000  Uiso   1.00
H389   H     0.72326   0.44781   0.02595   0.00000  Uiso   1.00
H390   H     0.52672   0.19780   0.47405   0.00000  Uiso   1.00
H391   H     0.69781   0.47326   0.52595   0.00000  Uiso   1.00
H392   H     0.69781   0.02673   0.47405   0.00000  Uiso   1.00
H393   H     0.52675   0.30218   0.52595   0.00000  Uiso   1.00
H394   H     0.97328   0.30220   0.47405   0.00000  Uiso   1.00
H395   H     0.80219   0.02674   0.52595   0.00000  Uiso   1.00
H396   H     0.80219   0.47327   0.47405   0.00000  Uiso   1.00
H397   H     0.61948   0.42731   0.20468   0.00000  Uiso   1.00
H398   H     0.88065   0.07256   0.79510   0.00000  Uiso   1.00
H399   H     0.57256   0.11935   0.20490   0.00000  Uiso   1.00
H400   H     0.77674   0.44781   0.97405   0.00000  Uiso   1.00
H401   H     0.92731   0.38052   0.79531   0.00000  Uiso   1.00
H402   H     0.88052   0.07269   0.20468   0.00000  Uiso   1.00
H403   H     0.61935   0.42744   0.79510   0.00000  Uiso   1.00
H404   H     0.92744   0.38065   0.20490   0.00000  Uiso   1.00
H405   H     0.57269   0.11948   0.79531   0.00000  Uiso   1.00
H406   H     0.61948   0.07269   0.79531   0.00000  Uiso   1.00
H407   H     0.88065   0.42744   0.20490   0.00000  Uiso   1.00
H408   H     0.57256   0.38065   0.79510   0.00000  Uiso   1.00
H409   H     0.92731   0.11948   0.20468   0.00000  Uiso   1.00
H410   H     0.88052   0.42731   0.79531   0.00000  Uiso   1.00
H411   H     0.94781   0.22326   0.02595   0.00000  Uiso   1.00
H412   H     0.61935   0.07256   0.20490   0.00000  Uiso   1.00
H413   H     0.92744   0.11935   0.79510   0.00000  Uiso   1.00
H414   H     0.57269   0.38052   0.20468   0.00000  Uiso   1.00
H415   H     0.86948   0.17731   0.70468   0.00000  Uiso   1.00
H416   H     0.63065   0.32256   0.29510   0.00000  Uiso   1.00
H417   H     0.82256   0.36935   0.70490   0.00000  Uiso   1.00
H418   H     0.67731   0.13052   0.29532   0.00000  Uiso   1.00
H419   H     0.63052   0.32269   0.70468   0.00000  Uiso   1.00
H420   H     0.86935   0.17744   0.29510   0.00000  Uiso   1.00
H421   H     0.67744   0.13065   0.70490   0.00000  Uiso   1.00
H422   H     0.94781   0.27673   0.97405   0.00000  Uiso   1.00
H423   H     0.82269   0.36948   0.29532   0.00000  Uiso   1.00
H424   H     0.86948   0.32269   0.29532   0.00000  Uiso   1.00
H425   H     0.63065   0.17744   0.70490   0.00000  Uiso   1.00
H426   H     0.82256   0.13065   0.29510   0.00000  Uiso   1.00
H427   H     0.67731   0.36948   0.70468   0.00000  Uiso   1.00
H428   H     0.63052   0.17731   0.29532   0.00000  Uiso   1.00
H429   H     0.86935   0.32256   0.70490   0.00000  Uiso   1.00
H430   H     0.67744   0.36935   0.29510   0.00000  Uiso   1.00
H431   H     0.82269   0.13052   0.70468   0.00000  Uiso   1.00
H432   H     0.77674   0.05219   0.02595   0.00000  Uiso   1.00
H433   H     0.72326   0.05219   0.97405   0.00000  Uiso   1.00
H434   H     0.55219   0.27674   0.02595   0.00000  Uiso   1.00
H435   H     0.55219   0.22327   0.97405   0.00000  Uiso   1.00
H436   H     0.97325   0.19782   0.52595   0.00000  Uiso   1.00
O437   O     0.75000   0.00000   0.25000   0.00000  Uiso   1.00
O438   O     0.75000   0.46964   0.66317   0.00000  Uiso   1.00
O439   O     0.96964   0.25000   0.33683   0.00000  Uiso   1.00
O440   O     0.53036   0.25000   0.66317   0.00000  Uiso   1.00
O441   O     0.50000   0.21964   0.83683   0.00000  Uiso   1.00
O442   O     0.50000   0.28036   0.16317   0.00000  Uiso   1.00
O443   O     0.78036   0.00000   0.83683   0.00000  Uiso   1.00
O444   O     0.71964   0.00000   0.16317   0.00000  Uiso   1.00
O445   O     0.50000   0.28036   0.83683   0.00000  Uiso   1.00
O446   O     0.50000   0.21964   0.16317   0.00000  Uiso   1.00
O447   O     0.71964   0.00000   0.83683   0.00000  Uiso   1.00
O448   O     0.75000   0.00000   0.75000   0.00000  Uiso   1.00
O449   O     0.78036   0.00000   0.16317   0.00000  Uiso   1.00
O450   O     0.70726   0.07307   0.27282   0.00000  Uiso   1.00
O451   O     0.79275   0.42693   0.72718   0.00000  Uiso   1.00
O452   O     0.92693   0.20726   0.27282   0.00000  Uiso   1.00
O453   O     0.57307   0.29275   0.72718   0.00000  Uiso   1.00
O454   O     0.79275   0.42693   0.27282   0.00000  Uiso   1.00
O455   O     0.70726   0.07307   0.72718   0.00000  Uiso   1.00
O456   O     0.57307   0.29275   0.27282   0.00000  Uiso   1.00
O457   O     0.92693   0.20726   0.72718   0.00000  Uiso   1.00
O458   O     0.70726   0.42693   0.72718   0.00000  Uiso   1.00
O459   O     0.50000   0.25000   0.25000   0.00000  Uiso   1.00
O460   O     0.79275   0.07307   0.27282   0.00000  Uiso   1.00
O461   O     0.92693   0.29275   0.72718   0.00000  Uiso   1.00
O462   O     0.57307   0.20726   0.27282   0.00000  Uiso   1.00
O463   O     0.79275   0.07307   0.72718   0.00000  Uiso   1.00
O464   O     0.70726   0.42693   0.27282   0.00000  Uiso   1.00
O465   O     0.57307   0.20726   0.72718   0.00000  Uiso   1.00
O466   O     0.92693   0.29275   0.27282   0.00000  Uiso   1.00
O467   O     0.95726   0.32307   0.77282   0.00000  Uiso   1.00
O468   O     0.54275   0.17693   0.22718   0.00000  Uiso   1.00
O469   O     0.67693   0.45726   0.77282   0.00000  Uiso   1.00
O470   O     0.50000   0.25000   0.75000   0.00000  Uiso   1.00
O471   O     0.82307   0.04275   0.22718   0.00000  Uiso   1.00
O472   O     0.54275   0.17693   0.77282   0.00000  Uiso   1.00
O473   O     0.95726   0.32307   0.22718   0.00000  Uiso   1.00
O474   O     0.82307   0.04275   0.77282   0.00000  Uiso   1.00
O475   O     0.67693   0.45726   0.22718   0.00000  Uiso   1.00
O476   O     0.95726   0.17693   0.22718   0.00000  Uiso   1.00
O477   O     0.54275   0.32307   0.77282   0.00000  Uiso   1.00
O478   O     0.67693   0.04275   0.22718   0.00000  Uiso   1.00
O479   O     0.82307   0.45726   0.77282   0.00000  Uiso   1.00
O480   O     0.54275   0.32307   0.22718   0.00000  Uiso   1.00
O481   O     0.75000   0.46964   0.33683   0.00000  Uiso   1.00
O482   O     0.95726   0.17693   0.77282   0.00000  Uiso   1.00
O483   O     0.82307   0.45726   0.22718   0.00000  Uiso   1.00
O484   O     0.67693   0.04275   0.77282   0.00000  Uiso   1.00
O485   O     0.75000   0.03036   0.66317   0.00000  Uiso   1.00
O486   O     0.53036   0.25000   0.33683   0.00000  Uiso   1.00
O487   O     0.96964   0.25000   0.66317   0.00000  Uiso   1.00
O488   O     0.75000   0.03036   0.33683   0.00000  Uiso   1.00
Zn489  Zn    0.70660   0.00000   0.21760   0.00000  Uiso   1.00
Zn490  Zn    0.54340   0.25000   0.28240   0.00000  Uiso   1.00
Zn491  Zn    0.75000   0.45660   0.71760   0.00000  Uiso   1.00
Zn492  Zn    0.75000   0.04340   0.28240   0.00000  Uiso   1.00
Zn493  Zn    0.54340   0.25000   0.71760   0.00000  Uiso   1.00
Zn494  Zn    0.95660   0.25000   0.28240   0.00000  Uiso   1.00
Zn495  Zn    0.75000   0.04340   0.71760   0.00000  Uiso   1.00
Zn496  Zn    0.75000   0.45660   0.28240   0.00000  Uiso   1.00
Zn497  Zn    0.79340   0.00000   0.78240   0.00000  Uiso   1.00
Zn498  Zn    0.50000   0.20660   0.21760   0.00000  Uiso   1.00
Zn499  Zn    0.50000   0.29340   0.78240   0.00000  Uiso   1.00
Zn500  Zn    0.79340   0.00000   0.21760   0.00000  Uiso   1.00
Zn501  Zn    0.70660   0.00000   0.78240   0.00000  Uiso   1.00
Zn502  Zn    0.50000   0.29340   0.21760   0.00000  Uiso   1.00
Zn503  Zn    0.50000   0.20660   0.78240   0.00000  Uiso   1.00
Zn504  Zn    0.95660   0.25000   0.71760   0.00000  Uiso   1.00
Br505  Br    0.21393   0.92919   0.10823   0.00000  Uiso   1.00
Br506  Br    0.03606   0.67918   0.39177   0.00000  Uiso   1.00
Br507  Br    0.17919   0.96393   0.60823   0.00000  Uiso   1.00
Br508  Br    0.17919   0.53606   0.39177   0.00000  Uiso   1.00
Br509  Br    0.03609   0.82080   0.60823   0.00000  Uiso   1.00
Br510  Br    0.46394   0.82082   0.39177   0.00000  Uiso   1.00
Br511  Br    0.32081   0.53607   0.60823   0.00000  Uiso   1.00
Br512  Br    0.32081   0.96394   0.39177   0.00000  Uiso   1.00
Br513  Br    0.28607   0.92919   0.89177   0.00000  Uiso   1.00
Br514  Br    0.42919   0.71392   0.10823   0.00000  Uiso   1.00
Br515  Br    0.42919   0.78606   0.89177   0.00000  Uiso   1.00
Br516  Br    0.28607   0.57081   0.10823   0.00000  Uiso   1.00
Br517  Br    0.21393   0.57081   0.89177   0.00000  Uiso   1.00
Br518  Br    0.07081   0.78608   0.10823   0.00000  Uiso   1.00
Br519  Br    0.07082   0.71394   0.89177   0.00000  Uiso   1.00
Br520  Br    0.46391   0.67920   0.60823   0.00000  Uiso   1.00
C521   C     0.23499   0.97058   0.04161   0.00000  Uiso   1.00
C522   C     0.01500   0.72057   0.45839   0.00000  Uiso   1.00
C523   C     0.34810   0.90181   0.75008   0.00000  Uiso   1.00
C524   C     0.40181   0.65190   0.24992   0.00000  Uiso   1.00
C525   C     0.09810   0.84819   0.74992   0.00000  Uiso   1.00
C526   C     0.34819   0.90190   0.25008   0.00000  Uiso   1.00
C527   C     0.15190   0.59819   0.75008   0.00000  Uiso   1.00
C528   C     0.09819   0.65190   0.75008   0.00000  Uiso   1.00
C529   C     0.40190   0.84819   0.25008   0.00000  Uiso   1.00
C530   C     0.15181   0.90190   0.74992   0.00000  Uiso   1.00
C531   C     0.34810   0.59819   0.24992   0.00000  Uiso   1.00
C532   C     0.40181   0.84810   0.75008   0.00000  Uiso   1.00
C533   C     0.22058   0.98499   0.54161   0.00000  Uiso   1.00
C534   C     0.09810   0.65181   0.25008   0.00000  Uiso   1.00
C535   C     0.34819   0.59810   0.74992   0.00000  Uiso   1.00
C536   C     0.15190   0.90181   0.24992   0.00000  Uiso   1.00
C537   C     0.25000   0.50000   0.10255   0.00000  Uiso   1.00
C538   C     0.25000   0.50000   0.89745   0.00000  Uiso   1.00
C539   C     0.00000   0.75000   0.10255   0.00000  Uiso   1.00
C540   C     0.00000   0.75000   0.89745   0.00000  Uiso   1.00
C541   C     0.00000   0.75000   0.60255   0.00000  Uiso   1.00
C542   C     0.00000   0.75000   0.39745   0.00000  Uiso   1.00
C543   C     0.25000   0.50000   0.60255   0.00000  Uiso   1.00
C544   C     0.22057   0.51500   0.45839   0.00000  Uiso   1.00
C545   C     0.25000   0.50000   0.39745   0.00000  Uiso   1.00
C546   C     0.01502   0.77942   0.54161   0.00000  Uiso   1.00
C547   C     0.48500   0.77943   0.45839   0.00000  Uiso   1.00
C548   C     0.27942   0.51501   0.54161   0.00000  Uiso   1.00
C549   C     0.27943   0.98500   0.45839   0.00000  Uiso   1.00
C550   C     0.23462   0.97055   0.08211   0.00000  Uiso   1.00
C551   C     0.26538   0.97055   0.91789   0.00000  Uiso   1.00
C552   C     0.47055   0.73461   0.08211   0.00000  Uiso   1.00
C553   C     0.26501   0.97058   0.95839   0.00000  Uiso   1.00
C554   C     0.47055   0.76538   0.91789   0.00000  Uiso   1.00
C555   C     0.26538   0.52945   0.08211   0.00000  Uiso   1.00
C556   C     0.23462   0.52945   0.91789   0.00000  Uiso   1.00
C557   C     0.02945   0.76539   0.08211   0.00000  Uiso   1.00
C558   C     0.02945   0.73462   0.91789   0.00000  Uiso   1.00
C559   C     0.48461   0.72055   0.58211   0.00000  Uiso   1.00
C560   C     0.01538   0.72055   0.41789   0.00000  Uiso   1.00
C561   C     0.22055   0.98462   0.58211   0.00000  Uiso   1.00
C562   C     0.22055   0.51538   0.41789   0.00000  Uiso   1.00
C563   C     0.01539   0.77945   0.58211   0.00000  Uiso   1.00
C564   C     0.47058   0.73499   0.04161   0.00000  Uiso   1.00
C565   C     0.48462   0.77945   0.41789   0.00000  Uiso   1.00
C566   C     0.27945   0.51538   0.58211   0.00000  Uiso   1.00
C567   C     0.27945   0.98462   0.41789   0.00000  Uiso   1.00
C568   C     0.25000   0.50000   0.02128   0.00000  Uiso   1.00
C569   C     0.25000   0.50000   0.97872   0.00000  Uiso   1.00
C570   C     0.00000   0.75000   0.02128   0.00000  Uiso   1.00
C571   C     0.00000   0.75000   0.97872   0.00000  Uiso   1.00
C572   C     0.00000   0.75000   0.52128   0.00000  Uiso   1.00
C573   C     0.00000   0.75000   0.47872   0.00000  Uiso   1.00
C574   C     0.25000   0.50000   0.52128   0.00000  Uiso   1.00
C575   C     0.47057   0.76500   0.95839   0.00000  Uiso   1.00
C576   C     0.25000   0.50000   0.47872   0.00000  Uiso   1.00
C577   C     0.25000   0.50000   0.35511   0.00000  Uiso   1.00
C578   C     0.25000   0.50000   0.64488   0.00000  Uiso   1.00
C579   C     0.00000   0.75000   0.35511   0.00000  Uiso   1.00
C580   C     0.00000   0.75000   0.64488   0.00000  Uiso   1.00
C581   C     0.00000   0.75000   0.85511   0.00000  Uiso   1.00
C582   C     0.00000   0.75000   0.14488   0.00000  Uiso   1.00
C583   C     0.25000   0.50000   0.85511   0.00000  Uiso   1.00
C584   C     0.25000   0.50000   0.14488   0.00000  Uiso   1.00
C585   C     0.17990   0.57007   0.25002   0.00000  Uiso   1.00
C586   C     0.26501   0.52942   0.04161   0.00000  Uiso   1.00
C587   C     0.32007   0.92990   0.75002   0.00000  Uiso   1.00
C588   C     0.42990   0.67993   0.24998   0.00000  Uiso   1.00
C589   C     0.07007   0.82010   0.74998   0.00000  Uiso   1.00
C590   C     0.32010   0.92993   0.25002   0.00000  Uiso   1.00
C591   C     0.17993   0.57010   0.75002   0.00000  Uiso   1.00
C592   C     0.07010   0.82007   0.24998   0.00000  Uiso   1.00
C593   C     0.42993   0.67990   0.74998   0.00000  Uiso   1.00
C594   C     0.17990   0.92993   0.74998   0.00000  Uiso   1.00
C595   C     0.32007   0.57010   0.24998   0.00000  Uiso   1.00
C596   C     0.42990   0.82007   0.75002   0.00000  Uiso   1.00
C597   C     0.23499   0.52942   0.95839   0.00000  Uiso   1.00
C598   C     0.07007   0.67990   0.25002   0.00000  Uiso   1.00
C599   C     0.32010   0.57007   0.74998   0.00000  Uiso   1.00
C600   C     0.17993   0.92990   0.24998   0.00000  Uiso   1.00
C601   C     0.07010   0.67993   0.75002   0.00000  Uiso   1.00
C602   C     0.42993   0.82010   0.25002   0.00000  Uiso   1.00
C603   C     0.12215   0.90456   0.22454   0.00000  Uiso   1.00
C604   C     0.37797   0.59531   0.77525   0.00000  Uiso   1.00
C605   C     0.09531   0.62203   0.22474   0.00000  Uiso   1.00
C606   C     0.40456   0.87785   0.77546   0.00000  Uiso   1.00
C607   C     0.37785   0.59544   0.22454   0.00000  Uiso   1.00
C608   C     0.02942   0.76501   0.04161   0.00000  Uiso   1.00
C609   C     0.12203   0.90469   0.77525   0.00000  Uiso   1.00
C610   C     0.40469   0.87797   0.22474   0.00000  Uiso   1.00
C611   C     0.09544   0.62215   0.77546   0.00000  Uiso   1.00
C612   C     0.12215   0.59544   0.77546   0.00000  Uiso   1.00
C613   C     0.37797   0.90469   0.22474   0.00000  Uiso   1.00
C614   C     0.09531   0.87797   0.77525   0.00000  Uiso   1.00
C615   C     0.40456   0.62215   0.22454   0.00000  Uiso   1.00
C616   C     0.37785   0.90456   0.77546   0.00000  Uiso   1.00
C617   C     0.12203   0.59531   0.22474   0.00000  Uiso   1.00
C618   C     0.40469   0.62203   0.77525   0.00000  Uiso   1.00
C619   C     0.02943   0.73500   0.95839   0.00000  Uiso   1.00
C620   C     0.09544   0.87785   0.22454   0.00000  Uiso   1.00
C621   C     0.37215   0.65456   0.72454   0.00000  Uiso   1.00
C622   C     0.12797   0.84531   0.27525   0.00000  Uiso   1.00
C623   C     0.34531   0.87203   0.72474   0.00000  Uiso   1.00
C624   C     0.15456   0.62785   0.27546   0.00000  Uiso   1.00
C625   C     0.12785   0.84544   0.72454   0.00000  Uiso   1.00
C626   C     0.37203   0.65469   0.27525   0.00000  Uiso   1.00
C627   C     0.15469   0.62797   0.72474   0.00000  Uiso   1.00
C628   C     0.34544   0.87215   0.27546   0.00000  Uiso   1.00
C629   C     0.37215   0.84544   0.27546   0.00000  Uiso   1.00
C630   C     0.48498   0.72058   0.54161   0.00000  Uiso   1.00
C631   C     0.12797   0.65469   0.72474   0.00000  Uiso   1.00
C632   C     0.34531   0.62797   0.27525   0.00000  Uiso   1.00
C633   C     0.15456   0.87215   0.72454   0.00000  Uiso   1.00
C634   C     0.12785   0.65456   0.27546   0.00000  Uiso   1.00
C635   C     0.37203   0.84531   0.72474   0.00000  Uiso   1.00
C636   C     0.15469   0.87203   0.27525   0.00000  Uiso   1.00
C637   C     0.34544   0.62785   0.72454   0.00000  Uiso   1.00
C638   C     0.09819   0.84810   0.24992   0.00000  Uiso   1.00
C639   C     0.40190   0.65181   0.74992   0.00000  Uiso   1.00
C640   C     0.15181   0.59810   0.25008   0.00000  Uiso   1.00
H641   H     0.22326   0.94781   0.02595   0.00000  Uiso   1.00
H642   H     0.02672   0.69780   0.47405   0.00000  Uiso   1.00
H643   H     0.19781   0.97326   0.52595   0.00000  Uiso   1.00
H644   H     0.19781   0.52673   0.47405   0.00000  Uiso   1.00
H645   H     0.02675   0.80218   0.52595   0.00000  Uiso   1.00
H646   H     0.47328   0.80220   0.47405   0.00000  Uiso   1.00
H647   H     0.30219   0.52674   0.52595   0.00000  Uiso   1.00
H648   H     0.30219   0.97327   0.47405   0.00000  Uiso   1.00
H649   H     0.11948   0.92731   0.20468   0.00000  Uiso   1.00
H650   H     0.38065   0.57256   0.79510   0.00000  Uiso   1.00
H651   H     0.07256   0.61935   0.20490   0.00000  Uiso   1.00
H652   H     0.27674   0.94781   0.97405   0.00000  Uiso   1.00
H653   H     0.42731   0.88052   0.79531   0.00000  Uiso   1.00
H654   H     0.38052   0.57269   0.20468   0.00000  Uiso   1.00
H655   H     0.11935   0.92744   0.79510   0.00000  Uiso   1.00
H656   H     0.42744   0.88065   0.20490   0.00000  Uiso   1.00
H657   H     0.07269   0.61948   0.79531   0.00000  Uiso   1.00
H658   H     0.11948   0.57269   0.79531   0.00000  Uiso   1.00
H659   H     0.38065   0.92744   0.20490   0.00000  Uiso   1.00
H660   H     0.07256   0.88065   0.79510   0.00000  Uiso   1.00
H661   H     0.42731   0.61948   0.20468   0.00000  Uiso   1.00
H662   H     0.38052   0.92731   0.79531   0.00000  Uiso   1.00
H663   H     0.44781   0.72326   0.02595   0.00000  Uiso   1.00
H664   H     0.11935   0.57256   0.20490   0.00000  Uiso   1.00
H665   H     0.42744   0.61935   0.79510   0.00000  Uiso   1.00
H666   H     0.07269   0.88052   0.20468   0.00000  Uiso   1.00
H667   H     0.36948   0.67731   0.70468   0.00000  Uiso   1.00
H668   H     0.13065   0.82256   0.29510   0.00000  Uiso   1.00
H669   H     0.32256   0.86935   0.70490   0.00000  Uiso   1.00
H670   H     0.17731   0.63052   0.29532   0.00000  Uiso   1.00
H671   H     0.13052   0.82269   0.70468   0.00000  Uiso   1.00
H672   H     0.36935   0.67744   0.29510   0.00000  Uiso   1.00
H673   H     0.17744   0.63065   0.70490   0.00000  Uiso   1.00
H674   H     0.44781   0.77673   0.97405   0.00000  Uiso   1.00
H675   H     0.32269   0.86948   0.29532   0.00000  Uiso   1.00
H676   H     0.36948   0.82269   0.29532   0.00000  Uiso   1.00
H677   H     0.13065   0.67744   0.70490   0.00000  Uiso   1.00
H678   H     0.32256   0.63065   0.29510   0.00000  Uiso   1.00
H679   H     0.17731   0.86948   0.70468   0.00000  Uiso   1.00
H680   H     0.13052   0.67731   0.29532   0.00000  Uiso   1.00
H681   H     0.36935   0.82256   0.70490   0.00000  Uiso   1.00
H682   H     0.17744   0.86935   0.29510   0.00000  Uiso   1.00
H683   H     0.32269   0.63052   0.70468   0.00000  Uiso   1.00
H684   H     0.27674   0.55219   0.02595   0.00000  Uiso   1.00
H685   H     0.22326   0.55219   0.97405   0.00000  Uiso   1.00
H686   H     0.05219   0.77674   0.02595   0.00000  Uiso   1.00
H687   H     0.05219   0.72327   0.97405   0.00000  Uiso   1.00
H688   H     0.47325   0.69782   0.52595   0.00000  Uiso   1.00
O689   O     0.25000   0.50000   0.25000   0.00000  Uiso   1.00
O690   O     0.25000   0.96964   0.66317   0.00000  Uiso   1.00
O691   O     0.46964   0.75000   0.33683   0.00000  Uiso   1.00
O692   O     0.03036   0.75000   0.66317   0.00000  Uiso   1.00
O693   O     0.00000   0.71964   0.83683   0.00000  Uiso   1.00
O694   O     0.00000   0.78036   0.16317   0.00000  Uiso   1.00
O695   O     0.28036   0.50000   0.83683   0.00000  Uiso   1.00
O696   O     0.21964   0.50000   0.16317   0.00000  Uiso   1.00
O697   O     0.00000   0.78036   0.83683   0.00000  Uiso   1.00
O698   O     0.00000   0.71964   0.16317   0.00000  Uiso   1.00
O699   O     0.21964   0.50000   0.83683   0.00000  Uiso   1.00
O700   O     0.25000   0.50000   0.75000   0.00000  Uiso   1.00
O701   O     0.28036   0.50000   0.16317   0.00000  Uiso   1.00
O702   O     0.20726   0.57307   0.27282   0.00000  Uiso   1.00
O703   O     0.29275   0.92693   0.72718   0.00000  Uiso   1.00
O704   O     0.42693   0.70726   0.27282   0.00000  Uiso   1.00
O705   O     0.07307   0.79275   0.72718   0.00000  Uiso   1.00
O706   O     0.29275   0.92693   0.27282   0.00000  Uiso   1.00
O707   O     0.20726   0.57307   0.72718   0.00000  Uiso   1.00
O708   O     0.07307   0.79275   0.27282   0.00000  Uiso   1.00
O709   O     0.42693   0.70726   0.72718   0.00000  Uiso   1.00
O710   O     0.20726   0.92693   0.72718   0.00000  Uiso   1.00
O711   O     0.00000   0.75000   0.25000   0.00000  Uiso   1.00
O712   O     0.29275   0.57307   0.27282   0.00000  Uiso   1.00
O713   O     0.42693   0.79275   0.72718   0.00000  Uiso   1.00
O714   O     0.07307   0.70726   0.27282   0.00000  Uiso   1.00
O715   O     0.29275   0.57307   0.72718   0.00000  Uiso   1.00
O716   O     0.20726   0.92693   0.27282   0.00000  Uiso   1.00
O717   O     0.07307   0.70726   0.72718   0.00000  Uiso   1.00
O718   O     0.42693   0.79275   0.27282   0.00000  Uiso   1.00
O719   O     0.45726   0.82307   0.77282   0.00000  Uiso   1.00
O720   O     0.04275   0.67693   0.22718   0.00000  Uiso   1.00
O721   O     0.17693   0.95726   0.77282   0.00000  Uiso   1.00
O722   O     0.00000   0.75000   0.75000   0.00000  Uiso   1.00
O723   O     0.32307   0.54275   0.22718   0.00000  Uiso   1.00
O724   O     0.04275   0.67693   0.77282   0.00000  Uiso   1.00
O725   O     0.45726   0.82307   0.22718   0.00000  Uiso   1.00
O726   O     0.32307   0.54275   0.77282   0.00000  Uiso   1.00
O727   O     0.17693   0.95726   0.22718   0.00000  Uiso   1.00
O728   O     0.45726   0.67693   0.22718   0.00000  Uiso   1.00
O729   O     0.04275   0.82307   0.77282   0.00000  Uiso   1.00
O730   O     0.17693   0.54275   0.22718   0.00000  Uiso   1.00
O731   O     0.32307   0.95726   0.77282   0.00000  Uiso   1.00
O732   O     0.04275   0.82307   0.22718   0.00000  Uiso   1.00
O733   O     0.25000   0.96964   0.33683   0.00000  Uiso   1.00
O734   O     0.45726   0.67693   0.77282   0.00000  Uiso   1.00
O735   O     0.32307   0.95726   0.22718   0.00000  Uiso   1.00
O736   O     0.17693   0.54275   0.77282   0.00000  Uiso   1.00
O737   O     0.25000   0.53036   0.66317   0.00000  Uiso   1.00
O738   O     0.03036   0.75000   0.33683   0.00000  Uiso   1.00
O739   O     0.46964   0.75000   0.66317   0.00000  Uiso   1.00
O740   O     0.25000   0.53036   0.33683   0.00000  Uiso   1.00
Zn741  Zn    0.20660   0.50000   0.21760   0.00000  Uiso   1.00
Zn742  Zn    0.04340   0.75000   0.28240   0.00000  Uiso   1.00
Zn743  Zn    0.25000   0.95660   0.71760   0.00000  Uiso   1.00
Zn744  Zn    0.25000   0.54340   0.28240   0.00000  Uiso   1.00
Zn745  Zn    0.04340   0.75000   0.71760   0.00000  Uiso   1.00
Zn746  Zn    0.45660   0.75000   0.28240   0.00000  Uiso   1.00
Zn747  Zn    0.25000   0.54340   0.71760   0.00000  Uiso   1.00
Zn748  Zn    0.25000   0.95660   0.28240   0.00000  Uiso   1.00
Zn749  Zn    0.29340   0.50000   0.78240   0.00000  Uiso   1.00
Zn750  Zn    0.00000   0.70660   0.21760   0.00000  Uiso   1.00
Zn751  Zn    0.00000   0.79340   0.78240   0.00000  Uiso   1.00
Zn752  Zn    0.29340   0.50000   0.21760   0.00000  Uiso   1.00
Zn753  Zn    0.20660   0.50000   0.78240   0.00000  Uiso   1.00
Zn754  Zn    0.00000   0.79340   0.21760   0.00000  Uiso   1.00
Zn755  Zn    0.00000   0.70660   0.78240   0.00000  Uiso   1.00
Zn756  Zn    0.45660   0.75000   0.71760   0.00000  Uiso   1.00
Br757  Br    0.71393   0.92919   0.10823   0.00000  Uiso   1.00
Br758  Br    0.53606   0.67918   0.39177   0.00000  Uiso   1.00
Br759  Br    0.67919   0.96393   0.60823   0.00000  Uiso   1.00
Br760  Br    0.67919   0.53606   0.39177   0.00000  Uiso   1.00
Br761  Br    0.53609   0.82080   0.60823   0.00000  Uiso   1.00
Br762  Br    0.96394   0.82082   0.39177   0.00000  Uiso   1.00
Br763  Br    0.82081   0.53607   0.60823   0.00000  Uiso   1.00
Br764  Br    0.82081   0.96394   0.39177   0.00000  Uiso   1.00
Br765  Br    0.78607   0.92919   0.89177   0.00000  Uiso   1.00
Br766  Br    0.92919   0.71392   0.10823   0.00000  Uiso   1.00
Br767  Br    0.92919   0.78606   0.89177   0.00000  Uiso   1.00
Br768  Br    0.78607   0.57081   0.10823   0.00000  Uiso   1.00
Br769  Br    0.71393   0.57081   0.89177   0.00000  Uiso   1.00
Br770  Br    0.57081   0.78608   0.10823   0.00000  Uiso   1.00
Br771  Br    0.57082   0.71394   0.89177   0.00000  Uiso   1.00
Br772  Br    0.96391   0.67920   0.60823   0.00000  Uiso   1.00
C773   C     0.73499   0.97058   0.04161   0.00000  Uiso   1.00
C774   C     0.51500   0.72057   0.45839   0.00000  Uiso   1.00
C775   C     0.84810   0.90181   0.75008   0.00000  Uiso   1.00
C776   C     0.90181   0.65190   0.24992   0.00000  Uiso   1.00
C777   C     0.59810   0.84819   0.74992   0.00000  Uiso   1.00
C778   C     0.84819   0.90190   0.25008   0.00000  Uiso   1.00
C779   C     0.65190   0.59819   0.75008   0.00000  Uiso   1.00
C780   C     0.59819   0.65190   0.75008   0.00000  Uiso   1.00
C781   C     0.90190   0.84819   0.25008   0.00000  Uiso   1.00
C782   C     0.65181   0.90190   0.74992   0.00000  Uiso   1.00
C783   C     0.84810   0.59819   0.24992   0.00000  Uiso   1.00
C784   C     0.90181   0.84810   0.75008   0.00000  Uiso   1.00
C785   C     0.72058   0.98499   0.54161   0.00000  Uiso   1.00
C786   C     0.59810   0.65181   0.25008   0.00000  Uiso   1.00
C787   C     0.84819   0.59810   0.74992   0.00000  Uiso   1.00
C788   C     0.65190   0.90181   0.24992   0.00000  Uiso   1.00
C789   C     0.75000   0.50000   0.10255   0.00000  Uiso   1.00
C790   C     0.75000   0.50000   0.89745   0.00000  Uiso   1.00
C791   C     0.50000   0.75000   0.10255   0.00000  Uiso   1.00
C792   C     0.50000   0.75000   0.89745   0.00000  Uiso   1.00
C793   C     0.50000   0.75000   0.60255   0.00000  Uiso   1.00
C794   C     0.50000   0.75000   0.39745   0.00000  Uiso   1.00
C795   C     0.75000   0.50000   0.60255   0.00000  Uiso   1.00
C796   C     0.72057   0.51500   0.45839   0.00000  Uiso   1.00
C797   C     0.75000   0.50000   0.39745   0.00000  Uiso   1.00
C798   C     0.51502   0.77942   0.54161   0.00000  Uiso   1.00
C799   C     0.98500   0.77943   0.45839   0.00000  Uiso   1.00
C800   C     0.77942   0.51501   0.54161   0.00000  Uiso   1.00
C801   C     0.77943   0.98500   0.45839   0.00000  Uiso   1.00
C802   C     0.73462   0.97055   0.08211   0.00000  Uiso   1.00
C803   C     0.76538   0.97055   0.91789   0.00000  Uiso   1.00
C804   C     0.97055   0.73461   0.08211   0.00000  Uiso   1.00
C805   C     0.76501   0.97058   0.95839   0.00000  Uiso   1.00
C806   C     0.97055   0.76538   0.91789   0.00000  Uiso   1.00
C807   C     0.76538   0.52945   0.08211   0.00000  Uiso   1.00
C808   C     0.73462   0.52945   0.91789   0.00000  Uiso   1.00
C809   C     0.52945   0.76539   0.08211   0.00000  Uiso   1.00
C810   C     0.52945   0.73462   0.91789   0.00000  Uiso   1.00
C811   C     0.98461   0.72055   0.58211   0.00000  Uiso   1.00
C812   C     0.51538   0.72055   0.41789   0.00000  Uiso   1.00
C813   C     0.72055   0.98462   0.58211   0.00000  Uiso   1.00
C814   C     0.72055   0.51538   0.41789   0.00000  Uiso   1.00
C815   C     0.51539   0.77945   0.58211   0.00000  Uiso   1.00
C816   C     0.97058   0.73499   0.04161   0.00000  Uiso   1.00
C817   C     0.98462   0.77945   0.41789   0.00000  Uiso   1.00
C818   C     0.77945   0.51538   0.58211   0.00000  Uiso   1.00
C819   C     0.77945   0.98462   0.41789   0.00000  Uiso   1.00
C820   C     0.75000   0.50000   0.02128   0.00000  Uiso   1.00
C821   C     0.75000   0.50000   0.97872   0.00000  Uiso   1.00
C822   C     0.50000   0.75000   0.02128   0.00000  Uiso   1.00
C823   C     0.50000   0.75000   0.97872   0.00000  Uiso   1.00
C824   C     0.50000   0.75000   0.52128   0.00000  Uiso   1.00
C825   C     0.50000   0.75000   0.47872   0.00000  Uiso   1.00
C826   C     0.75000   0.50000   0.52128   0.00000  Uiso   1.00
C827   C     0.97057   0.76500   0.95839   0.00000  Uiso   1.00
C828   C     0.75000   0.50000   0.47872   0.00000  Uiso   1.00
C829   C     0.75000   0.50000   0.35511   0.00000  Uiso   1.00
C830   C     0.75000   0.50000   0.64488   0.00000  Uiso   1.00
C831   C     0.50000   0.75000   0.35511   0.00000  Uiso   1.00
C832   C     0.50000   0.75000   0.64488   0.00000  Uiso   1.00
C833   C     0.50000   0.75000   0.85511   0.00000  Uiso   1.00
C834   C     0.50000   0.75000   0.14488   0.00000  Uiso   1.00
C835   C     0.75000   0.50000   0.85511   0.00000  Uiso   1.00
C836   C     0.75000   0.50000   0.14488   0.00000  Uiso   1.00
C837   C     0.67990   0.57007   0.25002   0.00000  Uiso   1.00
C838   C     0.76501   0.52942   0.04161   0.00000  Uiso   1.00
C839   C     0.82007   0.92990   0.75002   0.00000  Uiso   1.00
C840   C     0.92990   0.67993   0.24998   0.00000  Uiso   1.00
C841   C     0.57007   0.82010   0.74998   0.00000  Uiso   1.00
C842   C     0.82010   0.92993   0.25002   0.00000  Uiso   1.00
C843   C     0.67993   0.57010   0.75002   0.00000  Uiso   1.00
C844   C     0.57010   0.82007   0.24998   0.00000  Uiso   1.00
C845   C     0.92993   0.67990   0.74998   0.00000  Uiso   1.00
C846   C     0.67990   0.92993   0.74998   0.00000  Uiso   1.00
C847   C     0.82007   0.57010   0.24998   0.00000  Uiso   1.00
C848   C     0.92990   0.82007   0.75002   0.00000  Uiso   1.00
C849   C     0.73499   0.52942   0.95839   0.00000  Uiso   1.00
C850   C     0.57007   0.67990   0.25002   0.00000  Uiso   1.00
C851   C     0.82010   0.57007   0.74998   0.00000  Uiso   1.00
C852   C     0.67993   0.92990   0.24998   0.00000  Uiso   1.00
C853   C     0.57010   0.67993   0.75002   0.00000  Uiso   1.00
C854   C     0.92993   0.82010   0.25002   0.00000  Uiso   1.00
C855   C     0.62215   0.90456   0.22454   0.00000  Uiso   1.00
C856   C     0.87797   0.59531   0.77525   0.00000  Uiso   1.00
C857   C     0.59531   0.62203   0.22474   0.00000  Uiso   1.00
C858   C     0.90456   0.87785   0.77546   0.00000  Uiso   1.00
C859   C     0.87785   0.59544   0.22454   0.00000  Uiso   1.00
C860   C     0.52942   0.76501   0.04161   0.00000  Uiso   1.00
C861   C     0.62203   0.90469   0.77525   0.00000  Uiso   1.00
C862   C     0.90469   0.87797   0.22474   0.00000  Uiso   1.00
C863   C     0.59544   0.62215   0.77546   0.00000  Uiso   1.00
C864   C     0.62215   0.59544   0.77546   0.00000  Uiso   1.00
C865   C     0.87797   0.90469   0.22474   0.00000  Uiso   1.00
C866   C     0.59531   0.87797   0.77525   0.00000  Uiso   1.00
C867   C     0.90456   0.62215   0.22454   0.00000  Uiso   1.00
C868   C     0.87785   0.90456   0.77546   0.00000  Uiso   1.00
C869   C     0.62203   0.59531   0.22474   0.00000  Uiso   1.00
C870   C     0.90469   0.62203   0.77525   0.00000  Uiso   1.00
C871   C     0.52943   0.73500   0.95839   0.00000  Uiso   1.00
C872   C     0.59544   0.87785   0.22454   0.00000  Uiso   1.00
C873   C     0.87215   0.65456   0.72454   0.00000  Uiso   1.00
C874   C     0.62797   0.84531   0.27525   0.00000  Uiso   1.00
C875   C     0.84531   0.87203   0.72474   0.00000  Uiso   1.00
C876   C     0.65456   0.62785   0.27546   0.00000  Uiso   1.00
C877   C     0.62785   0.84544   0.72454   0.00000  Uiso   1.00
C878   C     0.87203   0.65469   0.27525   0.00000  Uiso   1.00
C879   C     0.65469   0.62797   0.72474   0.00000  Uiso   1.00
C880   C     0.84544   0.87215   0.27546   0.00000  Uiso   1.00
C881   C     0.87215   0.84544   0.27546   0.00000  Uiso   1.00
C882   C     0.98498   0.72058   0.54161   0.00000  Uiso   1.00
C883   C     0.62797   0.65469   0.72474   0.00000  Uiso   1.00
C884   C     0.84531   0.62797   0.27525   0.00000  Uiso   1.00
C885   C     0.65456   0.87215   0.72454   0.00000  Uiso   1.00
C886   C     0.62785   0.65456   0.27546   0.00000  Uiso   1.00
C887   C     0.87203   0.84531   0.72474   0.00000  Uiso   1.00
C888   C     0.65469   0.87203   0.27525   0.00000  Uiso   1.00
C889   C     0.84544   0.62785   0.72454   0.00000  Uiso   1.00
C890   C     0.59819   0.84810   0.24992   0.00000  Uiso   1.00
C891   C     0.90190   0.65181   0.74992   0.00000  Uiso   1.00
C892   C     0.65181   0.59810   0.25008   0.00000  Uiso   1.00
H893   H     0.72326   0.94781   0.02595   0.00000  Uiso   1.00
H894   H     0.52672   0.69780   0.47405   0.00000  Uiso   1.00
H895   H     0.69781   0.97326   0.52595   0.00000  Uiso   1.00
H896   H     0.69781   0.52673   0.47405   0.00000  Uiso   1.00
H897   H     0.52675   0.80218   0.52595   0.00000  Uiso   1.00
H898   H     0.97328   0.80220   0.47405   0.00000  Uiso   1.00
H899   H     0.80219   0.52674   0.52595   0.00000  Uiso   1.00
H900   H     0.80219   0.97327   0.47405   0.00000  Uiso   1.00
H901   H     0.61948   0.92731   0.20468   0.00000  Uiso   1.00
H902   H     0.88065   0.57256   0.79510   0.00000  Uiso   1.00
H903   H     0.57256   0.61935   0.20490   0.00000  Uiso   1.00
H904   H     0.77674   0.94781   0.97405   0.00000  Uiso   1.00
H905   H     0.92731   0.88052   0.79531   0.00000  Uiso   1.00
H906   H     0.88052   0.57269   0.20468   0.00000  Uiso   1.00
H907   H     0.61935   0.92744   0.79510   0.00000  Uiso   1.00
H908   H     0.92744   0.88065   0.20490   0.00000  Uiso   1.00
H909   H     0.57269   0.61948   0.79531   0.00000  Uiso   1.00
H910   H     0.61948   0.57269   0.79531   0.00000  Uiso   1.00
H911   H     0.88065   0.92744   0.20490   0.00000  Uiso   1.00
H912   H     0.57256   0.88065   0.79510   0.00000  Uiso   1.00
H913   H     0.92731   0.61948   0.20468   0.00000  Uiso   1.00
H914   H     0.88052   0.92731   0.79531   0.00000  Uiso   1.00
H915   H     0.94781   0.72326   0.02595   0.00000  Uiso   1.00
H916   H     0.61935   0.57256   0.20490   0.00000  Uiso   1.00
H917   H     0.92744   0.61935   0.79510   0.00000  Uiso   1.00
H918   H     0.57269   0.88052   0.20468   0.00000  Uiso   1.00
H919   H     0.86948   0.67731   0.70468   0.00000  Uiso   1.00
H920   H     0.63065   0.82256   0.29510   0.00000  Uiso   1.00
H921   H     0.82256   0.86935   0.70490   0.00000  Uiso   1.00
H922   H     0.67731   0.63052   0.29532   0.00000  Uiso   1.00
H923   H     0.63052   0.82269   0.70468   0.00000  Uiso   1.00
H924   H     0.86935   0.67744   0.29510   0.00000  Uiso   1.00
H925   H     0.67744   0.63065   0.70490   0.00000  Uiso   1.00
H926   H     0.94781   0.77673   0.97405   0.00000  Uiso   1.00
H927   H     0.82269   0.86948   0.29532   0.00000  Uiso   1.00
H928   H     0.86948   0.82269   0.29532   0.00000  Uiso   1.00
H929   H     0.63065   0.67744   0.70490   0.00000  Uiso   1.00
H930   H     0.82256   0.63065   0.29510   0.00000  Uiso   1.00
H931   H     0.67731   0.86948   0.70468   0.00000  Uiso   1.00
H932   H     0.63052   0.67731   0.29532   0.00000  Uiso   1.00
H933   H     0.86935   0.82256   0.70490   0.00000  Uiso   1.00
H934   H     0.67744   0.86935   0.29510   0.00000  Uiso   1.00
H935   H     0.82269   0.63052   0.70468   0.00000  Uiso   1.00
H936   H     0.77674   0.55219   0.02595   0.00000  Uiso   1.00
H937   H     0.72326   0.55219   0.97405   0.00000  Uiso   1.00
H938   H     0.55219   0.77674   0.02595   0.00000  Uiso   1.00
H939   H     0.55219   0.72327   0.97405   0.00000  Uiso   1.00
H940   H     0.97325   0.69782   0.52595   0.00000  Uiso   1.00
O941   O     0.75000   0.50000   0.25000   0.00000  Uiso   1.00
O942   O     0.75000   0.96964   0.66317   0.00000  Uiso   1.00
O943   O     0.96964   0.75000   0.33683   0.00000  Uiso   1.00
O944   O     0.53036   0.75000   0.66317   0.00000  Uiso   1.00
O945   O     0.50000   0.71964   0.83683   0.00000  Uiso   1.00
O946   O     0.50000   0.78036   0.16317   0.00000  Uiso   1.00
O947   O     0.78036   0.50000   0.83683   0.00000  Uiso   1.00
O948   O     0.71964   0.50000   0.16317   0.00000  Uiso   1.00
O949   O     0.50000   0.78036   0.83683   0.00000  Uiso   1.00
O950   O     0.50000   0.71964   0.16317   0.00000  Uiso   1.00
O951   O     0.71964   0.50000   0.83683   0.00000  Uiso   1.00
O952   O     0.75000   0.50000   0.75000   0.00000  Uiso   1.00
O953   O     0.78036   0.50000   0.16317   0.00000  Uiso   1.00
O954   O     0.70726   0.57307   0.27282   0.00000  Uiso   1.00
O955   O     0.79275   0.92693   0.72718   0.00000  Uiso   1.00
O956   O     0.92693   0.70726   0.27282   0.00000  Uiso   1.00
O957   O     0.57307   0.79275   0.72718   0.00000  Uiso   1.00
O958   O     0.79275   0.92693   0.27282   0.00000  Uiso   1.00
O959   O     0.70726   0.57307   0.72718   0.00000  Uiso   1.00
O960   O     0.57307   0.79275   0.27282   0.00000  Uiso   1.00
O961   O     0.92693   0.70726   0.72718   0.00000  Uiso   1.00
O962   O     0.70726   0.92693   0.72718   0.00000  Uiso   1.00
O963   O     0.50000   0.75000   0.25000   0.00000  Uiso   1.00
O964   O     0.79275   0.57307   0.27282   0.00000  Uiso   1.00
O965   O     0.92693   0.79275   0.72718   0.00000  Uiso   1.00
O966   O     0.57307   0.70726   0.27282   0.00000  Uiso   1.00
O967   O     0.79275   0.57307   0.72718   0.00000  Uiso   1.00
O968   O     0.70726   0.92693   0.27282   0.00000  Uiso   1.00
O969   O     0.57307   0.70726   0.72718   0.00000  Uiso   1.00
O970   O     0.92693   0.79275   0.27282   0.00000  Uiso   1.00
O971   O     0.95726   0.82307   0.77282   0.00000  Uiso   1.00
O972   O     0.54275   0.67693   0.22718   0.00000  Uiso   1.00
O973   O     0.67693   0.95726   0.77282   0.00000  Uiso   1.00
O974   O     0.50000   0.75000   0.75000   0.00000  Uiso   1.00
O975   O     0.82307   0.54275   0.22718   0.00000  Uiso   1.00
O976   O     0.54275   0.67693   0.77282   0.00000  Uiso   1.00
O977   O     0.95726   0.82307   0.22718   0.00000  Uiso   1.00
O978   O     0.82307   0.54275   0.77282   0.00000  Uiso   1.00
O979   O     0.67693   0.95726   0.22718   0.00000  Uiso   1.00
O980   O     0.95726   0.67693   0.22718   0.00000  Uiso   1.00
O981   O     0.54275   0.82307   0.77282   0.00000  Uiso   1.00
O982   O     0.67693   0.54275   0.22718   0.00000  Uiso   1.00
O983   O     0.82307   0.95726   0.77282   0.00000  Uiso   1.00
O984   O     0.54275   0.82307   0.22718   0.00000  Uiso   1.00
O985   O     0.75000   0.96964   0.33683   0.00000  Uiso   1.00
O986   O     0.95726   0.67693   0.77282   0.00000  Uiso   1.00
O987   O     0.82307   0.95726   0.22718   0.00000  Uiso   1.00
O988   O     0.67693   0.54275   0.77282   0.00000  Uiso   1.00
O989   O     0.75000   0.53036   0.66317   0.00000  Uiso   1.00
O990   O     0.53036   0.75000   0.33683   0.00000  Uiso   1.00
O991   O     0.96964   0.75000   0.66317   0.00000  Uiso   1.00
O992   O     0.75000   0.53036   0.33683   0.00000  Uiso   1.00
Zn993  Zn    0.70660   0.50000   0.21760   0.00000  Uiso   1.00
Zn994  Zn    0.54340   0.75000   0.28240   0.00000  Uiso   1.00
Zn995  Zn    0.75000   0.95660   0.71760   0.00000  Uiso   1.00
Zn996  Zn    0.75000   0.54340   0.28240   0.00000  Uiso   1.00
Zn997  Zn    0.54340   0.75000   0.71760   0.00000  Uiso   1.00
Zn998  Zn    0.95660   0.75000   0.28240   0.00000  Uiso   1.00
Zn999  Zn    0.75000   0.54340   0.71760   0.00000  Uiso   1.00
Zn1000 Zn    0.75000   0.95660   0.28240   0.00000  Uiso   1.00
Zn1001 Zn    0.79340   0.50000   0.78240   0.00000  Uiso   1.00
Zn1002 Zn    0.50000   0.70660   0.21760   0.00000  Uiso   1.00
Zn1003 Zn    0.50000   0.79340   0.78240   0.00000  Uiso   1.00
Zn1004 Zn    0.79340   0.50000   0.21760   0.00000  Uiso   1.00
Zn1005 Zn    0.70660   0.50000   0.78240   0.00000  Uiso   1.00
Zn1006 Zn    0.50000   0.79340   0.21760   0.00000  Uiso   1.00
Zn1007 Zn    0.50000   0.70660   0.78240   0.00000  Uiso   1.00
Zn1008 Zn    0.95660   0.75000   0.71760   0.00000  Uiso   1.00
loop_
_geom_bond_atom_site_label_1
_geom_bond_atom_site_label_2
_geom_bond_distance
_geom_bond_site_symmetry_2
_ccdc_geom_bond_type
Br1    C46     1.921   .     S
Br2    C56     1.921   .     S
Br3    C57     1.921   .     S
Br4    C58     1.921   .     S
Br5    C59     1.921   .     S
Br6    C61     1.921   .     S
Br7    C62     1.921   .     S
Br8    C63     1.921   .     S
Br9    C47     1.921   .     S
Br10   C48     1.921   .     S
Br11   C50     1.921   .     S
Br12   C51     1.921   .     S
Br13   C52     1.921   .     S
Br14   C53     1.921   .     S
Br15   C54     1.921   .     S
Br16   C55     1.921   .     S
C17    H137    1.084   .     S
C17    C46     1.393   .     A
C17    C568    1.400   .     S
C18    H138    1.084   .     S
C18    C69     1.400   .     A
C18    C56     1.393   .     A
C19    C112    1.402   .     A
C19    C119    1.402   .     A
C19    C83     1.457   .     S
C20    C122    1.402   .     A
C20    C111    1.402   .     A
C20    C84     1.457   .     S
C21    C85     1.457   .     S
C21    C121    1.402   .     A
C21    C110    1.402   .     A
C22    C109    1.402   .     A
C22    C124    1.402   .     A
C22    C86     1.457   .     S
C23    C108    1.402   .     A
C23    C87     1.457   .     S
C23    C123    1.402   .     A
C24    C97     1.457   .     S
C24    C107    1.402   .     A
C24    C127    1.402   .     A
C25    C125    1.402   .     A
C25    C106    1.402   .     A
C25    C98     1.457   .     S
C26    C105    1.402   .     A
C26    C129    1.402   .     A
C26    C90     1.457   .     S
C27    C103    1.402   .     A
C27    C128    1.402   .     A
C27    C91     1.457   .     S
C28    C92     1.457   .     S
C28    C131    1.402   .     A
C28    C102    1.402   .     A
C29    H139    1.084   .     S
C29    C57     1.393   .     A
C29    C574    1.400   .     S
C30    C101    1.402   .     A
C30    C130    1.402   .     A
C30    C94     1.457   .     S
C31    C133    1.402   .     A
C31    C100    1.402   .     A
C31    C95     1.457   .     S
C32    C132    1.402   .     A
C32    C96     1.457   .     S
C32    C99     1.402   .     A
C33    C51     1.408   .     A
C33    C80     1.456   .     S
C33    C550    1.408   1_545 S
C34    C551    1.408   1_545 A
C34    C52     1.408   .     S
C34    C79     1.456   .     S
C35    C53     1.408   .     A
C35    C78     1.456   .     S
C35    C300    1.408   1_455 S
C36    C77     1.456   .     S
C36    C54     1.408   .     A
C36    C302    1.408   1_455 S
C37    C307    1.408   1_455 A
C37    C59     1.408   .     S
C37    C76     1.456   .     S
C38    C75     1.456   .     S
C38    C56     1.408   .     A
C38    C313    1.408   1_455 S
C39    C561    1.408   1_545 A
C39    C62     1.408   .     S
C39    C74     1.456   .     S
C40    C58     1.393   .     A
C40    C72     1.400   .     A
C40    H140    1.084   .     S
C41    C58     1.408   .     A
C41    C73     1.456   .     S
C41    C567    1.408   1_545 S
C42    C68     1.400   .     A
C42    H141    1.083   .     S
C42    C59     1.393   .     A
C43    C61     1.393   .     A
C43    H142    1.084   .     S
C43    C321    1.400   .     S
C44    C70     1.400   .     A
C44    C62     1.393   .     A
C44    H143    1.084   .     S
C45    H144    1.084   .     S
C45    C63     1.393   .     A
C45    C576    1.400   .     S
C46    C537    1.408   .     S
C47    C49     1.393   .     A
C47    C538    1.408   .     A
C48    C60     1.393   .     A
C48    C287    1.408   .     S
C49    H148    1.084   .     S
C49    C569    1.400   .     S
C50    C71     1.393   .     A
C50    C288    1.408   .     S
C51    C82     1.393   .     A
C52    C93     1.393   .     A
C53    C104    1.393   .     A
C54    C115    1.393   .     A
C55    C289    1.408   .     A
C55    C126    1.393   .     A
C57    C543    1.408   .     A
C60    H159    1.084   .     S
C60    C318    1.400   .     S
C61    C290    1.408   .     S
C63    C545    1.408   .     S
C64    C82     1.400   .     A
C64    C521    1.400   1_545 S
C64    C65     1.464   1_554 S
C65    C93     1.400   .     A
C65    C64     1.464   1_556 S
C65    C553    1.400   1_545 S
C66    C104    1.400   .     A
C66    C312    1.400   1_455 S
C66    C67     1.464   1_554 S
C67    C115    1.400   .     A
C67    C66     1.464   1_556 S
C67    C323    1.400   1_455 S
C68    C69     1.464   .     S
C68    C378    1.400   1_455 S
C69    C295    1.400   1_455 S
C70    C72     1.464   .     S
C70    C533    1.400   1_545 S
C71    H170    1.084   .     S
C71    C319    1.400   .     S
C72    C549    1.400   1_545 S
C73    O236    1.280   .     A
C73    O733    1.280   1_545 S
C74    O233    1.280   .     A
C74    O690    1.280   1_545 S
C75    O234    1.280   .     A
C75    O439    1.280   1_455 S
C76    O188    1.280   .     A
C76    O487    1.280   1_455 S
C77    O193    1.280   .     A
C77    O189    1.280   .     A
C78    O190    1.280   .     A
C78    O194    1.280   .     A
C79    O195    1.280   .     A
C79    O191    1.280   .     A
C80    O192    1.280   .     A
C80    O197    1.280   .     A
C81    O226    1.279   .     A
C81    O198    1.279   .     A
C81    C136    1.457   .     S
C82    H180    1.084   .     S
C83    O227    1.279   .     A
C83    O199    1.279   .     A
C84    O200    1.279   .     A
C84    O224    1.279   .     A
C85    O201    1.279   .     A
C85    O225    1.279   .     A
C86    O231    1.279   .     A
C86    O202    1.279   .     A
C87    O232    1.279   .     A
C87    O203    1.279   .     A
C88    O204    1.279   .     A
C88    C134    1.457   .     S
C88    O228    1.279   .     A
C89    C135    1.457   .     S
C89    O230    1.279   .     A
C89    O205    1.279   .     A
C90    O217    1.279   .     A
C90    O206    1.279   .     A
C91    O208    1.279   .     A
C91    O219    1.279   .     A
C92    O215    1.279   .     A
C92    O209    1.279   .     A
C93    H181    1.084   .     S
C94    O210    1.279   .     A
C94    O216    1.279   .     A
C95    O222    1.279   .     A
C95    O211    1.279   .     A
C96    O223    1.279   .     A
C96    O212    1.279   .     A
C97    O213    1.279   .     A
C97    O220    1.279   .     A
C98    O221    1.279   .     A
C98    O214    1.279   .     A
C99    H145    1.083   .     S
C99    C116    1.387   .     A
C100   H146    1.083   .     S
C100   C114    1.387   .     A
C101   C113    1.387   .     A
C101   H147    1.083   .     S
C102   C112    1.387   .     A
C102   H149    1.083   .     S
C103   C111    1.387   .     A
C103   H150    1.083   .     S
C104   H182    1.084   .     S
C105   C110    1.387   .     A
C105   H151    1.083   .     S
C106   H152    1.083   .     S
C106   C109    1.387   .     A
C107   C108    1.387   .     A
C107   H153    1.083   .     S
C108   H154    1.083   .     S
C109   H155    1.083   .     S
C110   H156    1.083   .     S
C111   H157    1.083   .     S
C112   H158    1.083   .     S
C113   C136    1.402   .     A
C113   H160    1.083   .     S
C114   H161    1.083   .     S
C114   C135    1.402   .     A
C115   H183    1.084   .     S
C116   H162    1.083   .     S
C116   C134    1.402   .     A
C117   C133    1.387   .     A
C117   H163    1.083   .     S
C117   C135    1.402   .     A
C118   H164    1.083   .     S
C118   C134    1.402   .     A
C118   C132    1.387   .     A
C119   C131    1.387   .     A
C119   H165    1.083   .     S
C120   H166    1.083   .     S
C120   C130    1.387   .     A
C120   C136    1.402   .     A
C121   H167    1.083   .     S
C121   C129    1.387   .     A
C122   H168    1.083   .     S
C122   C128    1.387   .     A
C123   H169    1.083   .     S
C123   C127    1.387   .     A
C124   H171    1.083   .     S
C124   C125    1.387   .     A
C125   H172    1.083   .     S
C126   H184    1.083   .     S
C126   C320    1.400   .     S
C127   H173    1.083   .     S
C128   H174    1.083   .     S
C129   H175    1.083   .     S
C130   H176    1.083   .     S
C131   H177    1.083   .     S
C132   H178    1.083   .     S
C133   H179    1.083   .     S
O185   Zn240   1.944   .     S
O185   Zn237   1.944   .     S
O185   Zn248   1.944   .     S
O185   Zn748   1.944   1_545 S
O186   Zn239   1.932   .     S
O186   C578    1.280   .     S
O187   Zn242   1.932   .     S
O187   C327    1.280   .     S
O188   Zn241   1.932   .     S
O189   Zn251   1.932   .     S
O190   Zn250   1.932   .     S
O191   Zn245   1.932   .     S
O192   Zn237   1.932   .     S
O193   Zn247   1.932   .     S
O194   Zn246   1.932   .     S
O195   Zn249   1.932   .     S
O196   Zn245   1.944   .     S
O196   Zn249   1.944   .     S
O196   Zn243   1.944   .     S
O196   Zn743   1.944   1_545 S
O197   Zn248   1.932   .     S
O198   Zn240   1.938   .     S
O199   Zn239   1.938   .     S
O200   Zn242   1.938   .     S
O201   Zn241   1.938   .     S
O202   Zn244   1.938   .     S
O203   Zn243   1.938   .     S
O204   Zn238   1.938   .     S
O205   Zn252   1.938   .     S
O206   Zn239   1.938   .     S
O207   Zn238   1.944   .     S
O207   Zn246   1.944   .     S
O207   Zn250   1.944   .     S
O207   Zn494   1.944   1_455 S
O208   Zn240   1.938   .     S
O209   Zn252   1.938   .     S
O210   Zn238   1.938   .     S
O211   Zn243   1.938   .     S
O212   Zn244   1.938   .     S
O213   Zn241   1.938   .     S
O214   Zn242   1.938   .     S
O215   Zn499   1.938   .     S
O216   Zn246   1.938   .     S
O217   Zn753   1.938   .     S
O218   Zn251   1.944   .     S
O218   Zn241   1.944   .     S
O218   Zn247   1.944   .     S
O218   Zn504   1.944   1_455 S
O219   Zn248   1.938   .     S
O220   Zn251   1.938   .     S
O221   Zn502   1.938   .     S
O222   Zn245   1.938   .     S
O223   Zn741   1.938   .     S
O224   Zn498   1.938   .     S
O225   Zn247   1.938   .     S
O226   Zn237   1.938   .     S
O227   Zn749   1.938   .     S
O228   Zn250   1.938   .     S
O229   Zn244   1.932   .     S
O229   C577    1.280   .     S
O230   Zn503   1.938   .     S
O231   Zn752   1.938   .     S
O232   Zn249   1.938   .     S
O233   Zn243   1.932   .     S
O234   Zn238   1.932   .     S
O235   Zn252   1.932   .     S
O235   C328    1.280   .     S
O236   Zn240   1.932   .     S
Zn237  O727    1.938   1_545 S
Zn239  O700    1.944   .     S
Zn242  O459    1.944   .     S
Zn244  O689    1.944   .     S
Zn245  O731    1.938   1_545 S
Zn246  O476    1.938   1_455 S
Zn247  O467    1.938   1_455 S
Zn248  O735    1.938   1_545 S
Zn249  O721    1.938   1_545 S
Zn250  O473    1.938   1_455 S
Zn251  O482    1.938   1_455 S
Zn252  O470    1.944   .     S
Br253  C298    1.921   .     S
Br254  C308    1.921   .     S
Br255  C309    1.921   .     S
Br256  C310    1.921   .     S
Br257  C311    1.921   .     S
Br258  C313    1.921   .     S
Br259  C314    1.921   .     S
Br260  C315    1.921   .     S
Br261  C299    1.921   .     S
Br262  C300    1.921   .     S
Br263  C302    1.921   .     S
Br264  C303    1.921   .     S
Br265  C304    1.921   .     S
Br266  C305    1.921   .     S
Br267  C306    1.921   .     S
Br268  C307    1.921   .     S
C269   H389    1.084   .     S
C269   C298    1.393   .     A
C269   C820    1.400   .     S
C270   H390    1.084   .     S
C270   C321    1.400   .     A
C270   C308    1.393   .     A
C271   C364    1.402   .     A
C271   C371    1.402   .     A
C271   C335    1.457   .     S
C272   C374    1.402   .     A
C272   C363    1.402   .     A
C272   C336    1.457   .     S
C273   C337    1.457   .     S
C273   C373    1.402   .     A
C273   C362    1.402   .     A
C274   C361    1.402   .     A
C274   C376    1.402   .     A
C274   C338    1.457   .     S
C275   C360    1.402   .     A
C275   C339    1.457   .     S
C275   C375    1.402   .     A
C276   C349    1.457   .     S
C276   C359    1.402   .     A
C276   C379    1.402   .     A
C277   C377    1.402   .     A
C277   C358    1.402   .     A
C277   C350    1.457   .     S
C278   C357    1.402   .     A
C278   C381    1.402   .     A
C278   C342    1.457   .     S
C279   C355    1.402   .     A
C279   C380    1.402   .     A
C279   C343    1.457   .     S
C280   C344    1.457   .     S
C280   C383    1.402   .     A
C280   C354    1.402   .     A
C281   H391    1.084   .     S
C281   C309    1.393   .     A
C281   C826    1.400   .     S
C282   C353    1.402   .     A
C282   C382    1.402   .     A
C282   C346    1.457   .     S
C283   C385    1.402   .     A
C283   C352    1.402   .     A
C283   C347    1.457   .     S
C284   C384    1.402   .     A
C284   C348    1.457   .     S
C284   C351    1.402   .     A
C285   C303    1.408   .     A
C285   C332    1.456   .     S
C285   C802    1.408   1_545 S
C286   C803    1.408   1_545 A
C286   C304    1.408   .     S
C286   C331    1.456   .     S
C287   C305    1.408   .     A
C287   C330    1.456   .     S
C288   C329    1.456   .     S
C288   C306    1.408   .     A
C289   C311    1.408   .     S
C289   C328    1.456   .     S
C290   C327    1.456   .     S
C290   C308    1.408   .     A
C291   C813    1.408   1_545 A
C291   C314    1.408   .     S
C291   C326    1.456   .     S
C292   C310    1.393   .     A
C292   C324    1.400   .     A
C292   H392    1.084   .     S
C293   C310    1.408   .     A
C293   C325    1.456   .     S
C293   C819    1.408   1_545 S
C294   C320    1.400   .     A
C294   H393    1.083   .     S
C294   C311    1.393   .     A
C295   C313    1.393   .     A
C295   H394    1.084   .     S
C295   C69     1.400   1_655 S
C296   C322    1.400   .     A
C296   C314    1.393   .     A
C296   H395    1.084   .     S
C297   H396    1.084   .     S
C297   C315    1.393   .     A
C297   C828    1.400   .     S
C298   C789    1.408   .     S
C299   C301    1.393   .     A
C299   C790    1.408   .     A
C300   C312    1.393   .     A
C300   C35     1.408   1_655 S
C301   H400    1.084   .     S
C301   C821    1.400   .     S
C302   C323    1.393   .     A
C302   C36     1.408   1_655 S
C303   C334    1.393   .     A
C304   C345    1.393   .     A
C305   C356    1.393   .     A
C306   C367    1.393   .     A
C307   C37     1.408   1_655 A
C307   C378    1.393   .     A
C309   C795    1.408   .     A
C312   H411    1.084   .     S
C312   C66     1.400   1_655 S
C313   C38     1.408   1_655 S
C315   C797    1.408   .     S
C316   C334    1.400   .     A
C316   C773    1.400   1_545 S
C316   C317    1.464   1_554 S
C317   C345    1.400   .     A
C317   C316    1.464   1_556 S
C317   C805    1.400   1_545 S
C318   C356    1.400   .     A
C318   C319    1.464   1_554 S
C319   C367    1.400   .     A
C319   C318    1.464   1_556 S
C320   C321    1.464   .     S
C322   C324    1.464   .     S
C322   C785    1.400   1_545 S
C323   H422    1.084   .     S
C323   C67     1.400   1_655 S
C324   C801    1.400   1_545 S
C325   O488    1.280   .     A
C325   O985    1.280   1_545 S
C326   O485    1.280   .     A
C326   O942    1.280   1_545 S
C327   O486    1.280   .     A
C328   O440    1.280   .     A
C329   O445    1.280   .     A
C329   O441    1.280   .     A
C330   O442    1.280   .     A
C330   O446    1.280   .     A
C331   O447    1.280   .     A
C331   O443    1.280   .     A
C332   O444    1.280   .     A
C332   O449    1.280   .     A
C333   O478    1.279   .     A
C333   O450    1.279   .     A
C333   C388    1.457   .     S
C334   H432    1.084   .     S
C335   O479    1.279   .     A
C335   O451    1.279   .     A
C336   O452    1.279   .     A
C336   O476    1.279   .     A
C337   O453    1.279   .     A
C337   O477    1.279   .     A
C338   O483    1.279   .     A
C338   O454    1.279   .     A
C339   O484    1.279   .     A
C339   O455    1.279   .     A
C340   O456    1.279   .     A
C340   C386    1.457   .     S
C340   O480    1.279   .     A
C341   C387    1.457   .     S
C341   O482    1.279   .     A
C341   O457    1.279   .     A
C342   O469    1.279   .     A
C342   O458    1.279   .     A
C343   O460    1.279   .     A
C343   O471    1.279   .     A
C344   O467    1.279   .     A
C344   O461    1.279   .     A
C345   H433    1.084   .     S
C346   O462    1.279   .     A
C346   O468    1.279   .     A
C347   O474    1.279   .     A
C347   O463    1.279   .     A
C348   O475    1.279   .     A
C348   O464    1.279   .     A
C349   O465    1.279   .     A
C349   O472    1.279   .     A
C350   O473    1.279   .     A
C350   O466    1.279   .     A
C351   H397    1.083   .     S
C351   C368    1.387   .     A
C352   H398    1.083   .     S
C352   C366    1.387   .     A
C353   C365    1.387   .     A
C353   H399    1.083   .     S
C354   C364    1.387   .     A
C354   H401    1.083   .     S
C355   C363    1.387   .     A
C355   H402    1.083   .     S
C356   H434    1.084   .     S
C357   C362    1.387   .     A
C357   H403    1.083   .     S
C358   H404    1.083   .     S
C358   C361    1.387   .     A
C359   C360    1.387   .     A
C359   H405    1.083   .     S
C360   H406    1.083   .     S
C361   H407    1.083   .     S
C362   H408    1.083   .     S
C363   H409    1.083   .     S
C364   H410    1.083   .     S
C365   C388    1.402   .     A
C365   H412    1.083   .     S
C366   H413    1.083   .     S
C366   C387    1.402   .     A
C367   H435    1.084   .     S
C368   H414    1.083   .     S
C368   C386    1.402   .     A
C369   C385    1.387   .     A
C369   H415    1.083   .     S
C369   C387    1.402   .     A
C370   H416    1.083   .     S
C370   C386    1.402   .     A
C370   C384    1.387   .     A
C371   C383    1.387   .     A
C371   H417    1.083   .     S
C372   H418    1.083   .     S
C372   C382    1.387   .     A
C372   C388    1.402   .     A
C373   H419    1.083   .     S
C373   C381    1.387   .     A
C374   H420    1.083   .     S
C374   C380    1.387   .     A
C375   H421    1.083   .     S
C375   C379    1.387   .     A
C376   H423    1.083   .     S
C376   C377    1.387   .     A
C377   H424    1.083   .     S
C378   H436    1.083   .     S
C378   C68     1.400   1_655 S
C379   H425    1.083   .     S
C380   H426    1.083   .     S
C381   H427    1.083   .     S
C382   H428    1.083   .     S
C383   H429    1.083   .     S
C384   H430    1.083   .     S
C385   H431    1.083   .     S
O437   Zn492   1.944   .     S
O437   Zn489   1.944   .     S
O437   Zn500   1.944   .     S
O437   Zn1000  1.944   1_545 S
O438   Zn491   1.932   .     S
O438   C830    1.280   .     S
O439   Zn494   1.932   .     S
O439   C75     1.280   1_655 S
O440   Zn493   1.932   .     S
O441   Zn503   1.932   .     S
O442   Zn502   1.932   .     S
O443   Zn497   1.932   .     S
O444   Zn489   1.932   .     S
O445   Zn499   1.932   .     S
O446   Zn498   1.932   .     S
O447   Zn501   1.932   .     S
O448   Zn497   1.944   .     S
O448   Zn501   1.944   .     S
O448   Zn495   1.944   .     S
O448   Zn995   1.944   1_545 S
O449   Zn500   1.932   .     S
O450   Zn492   1.938   .     S
O451   Zn491   1.938   .     S
O452   Zn494   1.938   .     S
O453   Zn493   1.938   .     S
O454   Zn496   1.938   .     S
O455   Zn495   1.938   .     S
O456   Zn490   1.938   .     S
O457   Zn504   1.938   .     S
O458   Zn491   1.938   .     S
O459   Zn490   1.944   .     S
O459   Zn498   1.944   .     S
O459   Zn502   1.944   .     S
O460   Zn492   1.938   .     S
O461   Zn504   1.938   .     S
O462   Zn490   1.938   .     S
O463   Zn495   1.938   .     S
O464   Zn496   1.938   .     S
O465   Zn493   1.938   .     S
O466   Zn494   1.938   .     S
O467   Zn247   1.938   1_655 S
O468   Zn498   1.938   .     S
O469   Zn1005  1.938   .     S
O470   Zn503   1.944   .     S
O470   Zn493   1.944   .     S
O470   Zn499   1.944   .     S
O471   Zn500   1.938   .     S
O472   Zn503   1.938   .     S
O473   Zn250   1.938   1_655 S
O474   Zn497   1.938   .     S
O475   Zn993   1.938   .     S
O476   Zn246   1.938   1_655 S
O477   Zn499   1.938   .     S
O478   Zn489   1.938   .     S
O479   Zn1001  1.938   .     S
O480   Zn502   1.938   .     S
O481   Zn496   1.932   .     S
O481   C829    1.280   .     S
O482   Zn251   1.938   1_655 S
O483   Zn1004  1.938   .     S
O484   Zn501   1.938   .     S
O485   Zn495   1.932   .     S
O486   Zn490   1.932   .     S
O487   Zn504   1.932   .     S
O487   C76     1.280   1_655 S
O488   Zn492   1.932   .     S
Zn489  O979    1.938   1_545 S
Zn491  O952    1.944   .     S
Zn494  O207    1.944   1_655 S
Zn496  O941    1.944   .     S
Zn497  O983    1.938   1_545 S
Zn500  O987    1.938   1_545 S
Zn501  O973    1.938   1_545 S
Zn504  O218    1.944   1_655 S
Br505  C550    1.921   .     S
Br506  C560    1.921   .     S
Br507  C561    1.921   .     S
Br508  C562    1.921   .     S
Br509  C563    1.921   .     S
Br510  C565    1.921   .     S
Br511  C566    1.921   .     S
Br512  C567    1.921   .     S
Br513  C551    1.921   .     S
Br514  C552    1.921   .     S
Br515  C554    1.921   .     S
Br516  C555    1.921   .     S
Br517  C556    1.921   .     S
Br518  C557    1.921   .     S
Br519  C558    1.921   .     S
Br520  C559    1.921   .     S
C521   H641    1.084   .     S
C521   C550    1.393   .     A
C521   C64     1.400   1_565 S
C522   H642    1.084   .     S
C522   C573    1.400   .     A
C522   C560    1.393   .     A
C523   C616    1.402   .     A
C523   C623    1.402   .     A
C523   C587    1.457   .     S
C524   C626    1.402   .     A
C524   C615    1.402   .     A
C524   C588    1.457   .     S
C525   C589    1.457   .     S
C525   C625    1.402   .     A
C525   C614    1.402   .     A
C526   C613    1.402   .     A
C526   C628    1.402   .     A
C526   C590    1.457   .     S
C527   C612    1.402   .     A
C527   C591    1.457   .     S
C527   C627    1.402   .     A
C528   C601    1.457   .     S
C528   C611    1.402   .     A
C528   C631    1.402   .     A
C529   C629    1.402   .     A
C529   C610    1.402   .     A
C529   C602    1.457   .     S
C530   C609    1.402   .     A
C530   C633    1.402   .     A
C530   C594    1.457   .     S
C531   C607    1.402   .     A
C531   C632    1.402   .     A
C531   C595    1.457   .     S
C532   C596    1.457   .     S
C532   C635    1.402   .     A
C532   C606    1.402   .     A
C533   H643    1.084   .     S
C533   C561    1.393   .     A
C533   C70     1.400   1_565 S
C534   C605    1.402   .     A
C534   C634    1.402   .     A
C534   C598    1.457   .     S
C535   C637    1.402   .     A
C535   C604    1.402   .     A
C535   C599    1.457   .     S
C536   C636    1.402   .     A
C536   C600    1.457   .     S
C536   C603    1.402   .     A
C537   C555    1.408   .     A
C537   C584    1.456   .     S
C538   C556    1.408   .     S
C538   C583    1.456   .     S
C539   C557    1.408   .     A
C539   C582    1.456   .     S
C539   C804    1.408   1_455 S
C540   C581    1.456   .     S
C540   C558    1.408   .     A
C540   C806    1.408   1_455 S
C541   C811    1.408   1_455 A
C541   C563    1.408   .     S
C541   C580    1.456   .     S
C542   C579    1.456   .     S
C542   C560    1.408   .     A
C542   C817    1.408   1_455 S
C543   C566    1.408   .     S
C543   C578    1.456   .     S
C544   C562    1.393   .     A
C544   C576    1.400   .     A
C544   H644    1.084   .     S
C545   C562    1.408   .     A
C545   C577    1.456   .     S
C546   C572    1.400   .     A
C546   H645    1.083   .     S
C546   C563    1.393   .     A
C547   C565    1.393   .     A
C547   H646    1.084   .     S
C547   C825    1.400   .     S
C548   C574    1.400   .     A
C548   C566    1.393   .     A
C548   H647    1.084   .     S
C549   H648    1.084   .     S
C549   C567    1.393   .     A
C549   C72     1.400   1_565 S
C550   C33     1.408   1_565 S
C551   C553    1.393   .     A
C551   C34     1.408   1_565 A
C552   C564    1.393   .     A
C552   C791    1.408   .     S
C553   H652    1.084   .     S
C553   C65     1.400   1_565 S
C554   C575    1.393   .     A
C554   C792    1.408   .     S
C555   C586    1.393   .     A
C556   C597    1.393   .     A
C557   C608    1.393   .     A
C558   C619    1.393   .     A
C559   C793    1.408   .     A
C559   C630    1.393   .     A
C561   C39     1.408   1_565 A
C564   H663    1.084   .     S
C564   C822    1.400   .     S
C565   C794    1.408   .     S
C567   C41     1.408   1_565 S
C568   C586    1.400   .     A
C568   C569    1.464   1_554 S
C569   C597    1.400   .     A
C569   C568    1.464   1_556 S
C570   C608    1.400   .     A
C570   C816    1.400   1_455 S
C570   C571    1.464   1_554 S
C571   C619    1.400   .     A
C571   C570    1.464   1_556 S
C571   C827    1.400   1_455 S
C572   C573    1.464   .     S
C572   C882    1.400   1_455 S
C573   C799    1.400   1_455 S
C574   C576    1.464   .     S
C575   H674    1.084   .     S
C575   C823    1.400   .     S
C577   O740    1.280   .     A
C578   O737    1.280   .     A
C579   O738    1.280   .     A
C579   O943    1.280   1_455 S
C580   O692    1.280   .     A
C580   O991    1.280   1_455 S
C581   O697    1.280   .     A
C581   O693    1.280   .     A
C582   O694    1.280   .     A
C582   O698    1.280   .     A
C583   O699    1.280   .     A
C583   O695    1.280   .     A
C584   O696    1.280   .     A
C584   O701    1.280   .     A
C585   O730    1.279   .     A
C585   O702    1.279   .     A
C585   C640    1.457   .     S
C586   H684    1.084   .     S
C587   O731    1.279   .     A
C587   O703    1.279   .     A
C588   O704    1.279   .     A
C588   O728    1.279   .     A
C589   O705    1.279   .     A
C589   O729    1.279   .     A
C590   O735    1.279   .     A
C590   O706    1.279   .     A
C591   O736    1.279   .     A
C591   O707    1.279   .     A
C592   O708    1.279   .     A
C592   C638    1.457   .     S
C592   O732    1.279   .     A
C593   C639    1.457   .     S
C593   O734    1.279   .     A
C593   O709    1.279   .     A
C594   O721    1.279   .     A
C594   O710    1.279   .     A
C595   O712    1.279   .     A
C595   O723    1.279   .     A
C596   O719    1.279   .     A
C596   O713    1.279   .     A
C597   H685    1.084   .     S
C598   O714    1.279   .     A
C598   O720    1.279   .     A
C599   O726    1.279   .     A
C599   O715    1.279   .     A
C600   O727    1.279   .     A
C600   O716    1.279   .     A
C601   O717    1.279   .     A
C601   O724    1.279   .     A
C602   O725    1.279   .     A
C602   O718    1.279   .     A
C603   H649    1.083   .     S
C603   C620    1.387   .     A
C604   H650    1.083   .     S
C604   C618    1.387   .     A
C605   C617    1.387   .     A
C605   H651    1.083   .     S
C606   C616    1.387   .     A
C606   H653    1.083   .     S
C607   C615    1.387   .     A
C607   H654    1.083   .     S
C608   H686    1.084   .     S
C609   C614    1.387   .     A
C609   H655    1.083   .     S
C610   H656    1.083   .     S
C610   C613    1.387   .     A
C611   C612    1.387   .     A
C611   H657    1.083   .     S
C612   H658    1.083   .     S
C613   H659    1.083   .     S
C614   H660    1.083   .     S
C615   H661    1.083   .     S
C616   H662    1.083   .     S
C617   C640    1.402   .     A
C617   H664    1.083   .     S
C618   H665    1.083   .     S
C618   C639    1.402   .     A
C619   H687    1.084   .     S
C620   H666    1.083   .     S
C620   C638    1.402   .     A
C621   C637    1.387   .     A
C621   H667    1.083   .     S
C621   C639    1.402   .     A
C622   H668    1.083   .     S
C622   C638    1.402   .     A
C622   C636    1.387   .     A
C623   C635    1.387   .     A
C623   H669    1.083   .     S
C624   H670    1.083   .     S
C624   C634    1.387   .     A
C624   C640    1.402   .     A
C625   H671    1.083   .     S
C625   C633    1.387   .     A
C626   H672    1.083   .     S
C626   C632    1.387   .     A
C627   H673    1.083   .     S
C627   C631    1.387   .     A
C628   H675    1.083   .     S
C628   C629    1.387   .     A
C629   H676    1.083   .     S
C630   H688    1.083   .     S
C630   C824    1.400   .     S
C631   H677    1.083   .     S
C632   H678    1.083   .     S
C633   H679    1.083   .     S
C634   H680    1.083   .     S
C635   H681    1.083   .     S
C636   H682    1.083   .     S
C637   H683    1.083   .     S
O689   Zn744   1.944   .     S
O689   Zn741   1.944   .     S
O689   Zn752   1.944   .     S
O690   Zn743   1.932   .     S
O690   C74     1.280   1_565 S
O691   Zn746   1.932   .     S
O691   C831    1.280   .     S
O692   Zn745   1.932   .     S
O693   Zn755   1.932   .     S
O694   Zn754   1.932   .     S
O695   Zn749   1.932   .     S
O696   Zn741   1.932   .     S
O697   Zn751   1.932   .     S
O698   Zn750   1.932   .     S
O699   Zn753   1.932   .     S
O700   Zn749   1.944   .     S
O700   Zn753   1.944   .     S
O700   Zn747   1.944   .     S
O701   Zn752   1.932   .     S
O702   Zn744   1.938   .     S
O703   Zn743   1.938   .     S
O704   Zn746   1.938   .     S
O705   Zn745   1.938   .     S
O706   Zn748   1.938   .     S
O707   Zn747   1.938   .     S
O708   Zn742   1.938   .     S
O709   Zn756   1.938   .     S
O710   Zn743   1.938   .     S
O711   Zn742   1.944   .     S
O711   Zn750   1.944   .     S
O711   Zn754   1.944   .     S
O711   Zn998   1.944   1_455 S
O712   Zn744   1.938   .     S
O713   Zn756   1.938   .     S
O714   Zn742   1.938   .     S
O715   Zn747   1.938   .     S
O716   Zn748   1.938   .     S
O717   Zn745   1.938   .     S
O718   Zn746   1.938   .     S
O719   Zn1003  1.938   .     S
O720   Zn750   1.938   .     S
O721   Zn249   1.938   1_565 S
O722   Zn755   1.944   .     S
O722   Zn745   1.944   .     S
O722   Zn751   1.944   .     S
O722   Zn1008  1.944   1_455 S
O723   Zn752   1.938   .     S
O724   Zn755   1.938   .     S
O725   Zn1006  1.938   .     S
O726   Zn749   1.938   .     S
O727   Zn237   1.938   1_565 S
O728   Zn1002  1.938   .     S
O729   Zn751   1.938   .     S
O730   Zn741   1.938   .     S
O731   Zn245   1.938   1_565 S
O732   Zn754   1.938   .     S
O733   Zn748   1.932   .     S
O733   C73     1.280   1_565 S
O734   Zn1007  1.938   .     S
O735   Zn248   1.938   1_565 S
O736   Zn753   1.938   .     S
O737   Zn747   1.932   .     S
O738   Zn742   1.932   .     S
O739   Zn756   1.932   .     S
O739   C832    1.280   .     S
O740   Zn744   1.932   .     S
Zn743  O196    1.944   1_565 S
Zn746  O963    1.944   .     S
Zn748  O185    1.944   1_565 S
Zn750  O980    1.938   1_455 S
Zn751  O971    1.938   1_455 S
Zn754  O977    1.938   1_455 S
Zn755  O986    1.938   1_455 S
Zn756  O974    1.944   .     S
Br757  C802    1.921   .     S
Br758  C812    1.921   .     S
Br759  C813    1.921   .     S
Br760  C814    1.921   .     S
Br761  C815    1.921   .     S
Br762  C817    1.921   .     S
Br763  C818    1.921   .     S
Br764  C819    1.921   .     S
Br765  C803    1.921   .     S
Br766  C804    1.921   .     S
Br767  C806    1.921   .     S
Br768  C807    1.921   .     S
Br769  C808    1.921   .     S
Br770  C809    1.921   .     S
Br771  C810    1.921   .     S
Br772  C811    1.921   .     S
C773   H893    1.084   .     S
C773   C802    1.393   .     A
C773   C316    1.400   1_565 S
C774   H894    1.084   .     S
C774   C825    1.400   .     A
C774   C812    1.393   .     A
C775   C868    1.402   .     A
C775   C875    1.402   .     A
C775   C839    1.457   .     S
C776   C878    1.402   .     A
C776   C867    1.402   .     A
C776   C840    1.457   .     S
C777   C841    1.457   .     S
C777   C877    1.402   .     A
C777   C866    1.402   .     A
C778   C865    1.402   .     A
C778   C880    1.402   .     A
C778   C842    1.457   .     S
C779   C864    1.402   .     A
C779   C843    1.457   .     S
C779   C879    1.402   .     A
C780   C853    1.457   .     S
C780   C863    1.402   .     A
C780   C883    1.402   .     A
C781   C881    1.402   .     A
C781   C862    1.402   .     A
C781   C854    1.457   .     S
C782   C861    1.402   .     A
C782   C885    1.402   .     A
C782   C846    1.457   .     S
C783   C859    1.402   .     A
C783   C884    1.402   .     A
C783   C847    1.457   .     S
C784   C848    1.457   .     S
C784   C887    1.402   .     A
C784   C858    1.402   .     A
C785   H895    1.084   .     S
C785   C813    1.393   .     A
C785   C322    1.400   1_565 S
C786   C857    1.402   .     A
C786   C886    1.402   .     A
C786   C850    1.457   .     S
C787   C889    1.402   .     A
C787   C856    1.402   .     A
C787   C851    1.457   .     S
C788   C888    1.402   .     A
C788   C852    1.457   .     S
C788   C855    1.402   .     A
C789   C807    1.408   .     A
C789   C836    1.456   .     S
C790   C808    1.408   .     S
C790   C835    1.456   .     S
C791   C809    1.408   .     A
C791   C834    1.456   .     S
C792   C833    1.456   .     S
C792   C810    1.408   .     A
C793   C815    1.408   .     S
C793   C832    1.456   .     S
C794   C831    1.456   .     S
C794   C812    1.408   .     A
C795   C818    1.408   .     S
C795   C830    1.456   .     S
C796   C814    1.393   .     A
C796   C828    1.400   .     A
C796   H896    1.084   .     S
C797   C814    1.408   .     A
C797   C829    1.456   .     S
C798   C824    1.400   .     A
C798   H897    1.083   .     S
C798   C815    1.393   .     A
C799   C817    1.393   .     A
C799   H898    1.084   .     S
C799   C573    1.400   1_655 S
C800   C826    1.400   .     A
C800   C818    1.393   .     A
C800   H899    1.084   .     S
C801   H900    1.084   .     S
C801   C819    1.393   .     A
C801   C324    1.400   1_565 S
C802   C285    1.408   1_565 S
C803   C805    1.393   .     A
C803   C286    1.408   1_565 A
C804   C816    1.393   .     A
C804   C539    1.408   1_655 S
C805   H904    1.084   .     S
C805   C317    1.400   1_565 S
C806   C827    1.393   .     A
C806   C540    1.408   1_655 S
C807   C838    1.393   .     A
C808   C849    1.393   .     A
C809   C860    1.393   .     A
C810   C871    1.393   .     A
C811   C541    1.408   1_655 A
C811   C882    1.393   .     A
C813   C291    1.408   1_565 A
C816   H915    1.084   .     S
C816   C570    1.400   1_655 S
C817   C542    1.408   1_655 S
C819   C293    1.408   1_565 S
C820   C838    1.400   .     A
C820   C821    1.464   1_554 S
C821   C849    1.400   .     A
C821   C820    1.464   1_556 S
C822   C860    1.400   .     A
C822   C823    1.464   1_554 S
C823   C871    1.400   .     A
C823   C822    1.464   1_556 S
C824   C825    1.464   .     S
C826   C828    1.464   .     S
C827   H926    1.084   .     S
C827   C571    1.400   1_655 S
C829   O992    1.280   .     A
C830   O989    1.280   .     A
C831   O990    1.280   .     A
C832   O944    1.280   .     A
C833   O949    1.280   .     A
C833   O945    1.280   .     A
C834   O946    1.280   .     A
C834   O950    1.280   .     A
C835   O951    1.280   .     A
C835   O947    1.280   .     A
C836   O948    1.280   .     A
C836   O953    1.280   .     A
C837   O982    1.279   .     A
C837   O954    1.279   .     A
C837   C892    1.457   .     S
C838   H936    1.084   .     S
C839   O983    1.279   .     A
C839   O955    1.279   .     A
C840   O956    1.279   .     A
C840   O980    1.279   .     A
C841   O957    1.279   .     A
C841   O981    1.279   .     A
C842   O987    1.279   .     A
C842   O958    1.279   .     A
C843   O988    1.279   .     A
C843   O959    1.279   .     A
C844   O960    1.279   .     A
C844   C890    1.457   .     S
C844   O984    1.279   .     A
C845   C891    1.457   .     S
C845   O986    1.279   .     A
C845   O961    1.279   .     A
C846   O973    1.279   .     A
C846   O962    1.279   .     A
C847   O964    1.279   .     A
C847   O975    1.279   .     A
C848   O971    1.279   .     A
C848   O965    1.279   .     A
C849   H937    1.084   .     S
C850   O966    1.279   .     A
C850   O972    1.279   .     A
C851   O978    1.279   .     A
C851   O967    1.279   .     A
C852   O979    1.279   .     A
C852   O968    1.279   .     A
C853   O969    1.279   .     A
C853   O976    1.279   .     A
C854   O977    1.279   .     A
C854   O970    1.279   .     A
C855   H901    1.083   .     S
C855   C872    1.387   .     A
C856   H902    1.083   .     S
C856   C870    1.387   .     A
C857   C869    1.387   .     A
C857   H903    1.083   .     S
C858   C868    1.387   .     A
C858   H905    1.083   .     S
C859   C867    1.387   .     A
C859   H906    1.083   .     S
C860   H938    1.084   .     S
C861   C866    1.387   .     A
C861   H907    1.083   .     S
C862   H908    1.083   .     S
C862   C865    1.387   .     A
C863   C864    1.387   .     A
C863   H909    1.083   .     S
C864   H910    1.083   .     S
C865   H911    1.083   .     S
C866   H912    1.083   .     S
C867   H913    1.083   .     S
C868   H914    1.083   .     S
C869   C892    1.402   .     A
C869   H916    1.083   .     S
C870   H917    1.083   .     S
C870   C891    1.402   .     A
C871   H939    1.084   .     S
C872   H918    1.083   .     S
C872   C890    1.402   .     A
C873   C889    1.387   .     A
C873   H919    1.083   .     S
C873   C891    1.402   .     A
C874   H920    1.083   .     S
C874   C890    1.402   .     A
C874   C888    1.387   .     A
C875   C887    1.387   .     A
C875   H921    1.083   .     S
C876   H922    1.083   .     S
C876   C886    1.387   .     A
C876   C892    1.402   .     A
C877   H923    1.083   .     S
C877   C885    1.387   .     A
C878   H924    1.083   .     S
C878   C884    1.387   .     A
C879   H925    1.083   .     S
C879   C883    1.387   .     A
C880   H927    1.083   .     S
C880   C881    1.387   .     A
C881   H928    1.083   .     S
C882   H940    1.083   .     S
C882   C572    1.400   1_655 S
C883   H929    1.083   .     S
C884   H930    1.083   .     S
C885   H931    1.083   .     S
C886   H932    1.083   .     S
C887   H933    1.083   .     S
C888   H934    1.083   .     S
C889   H935    1.083   .     S
O941   Zn996   1.944   .     S
O941   Zn993   1.944   .     S
O941   Zn1004  1.944   .     S
O942   Zn995   1.932   .     S
O942   C326    1.280   1_565 S
O943   Zn998   1.932   .     S
O943   C579    1.280   1_655 S
O944   Zn997   1.932   .     S
O945   Zn1007  1.932   .     S
O946   Zn1006  1.932   .     S
O947   Zn1001  1.932   .     S
O948   Zn993   1.932   .     S
O949   Zn1003  1.932   .     S
O950   Zn1002  1.932   .     S
O951   Zn1005  1.932   .     S
O952   Zn1001  1.944   .     S
O952   Zn1005  1.944   .     S
O952   Zn999   1.944   .     S
O953   Zn1004  1.932   .     S
O954   Zn996   1.938   .     S
O955   Zn995   1.938   .     S
O956   Zn998   1.938   .     S
O957   Zn997   1.938   .     S
O958   Zn1000  1.938   .     S
O959   Zn999   1.938   .     S
O960   Zn994   1.938   .     S
O961   Zn1008  1.938   .     S
O962   Zn995   1.938   .     S
O963   Zn994   1.944   .     S
O963   Zn1002  1.944   .     S
O963   Zn1006  1.944   .     S
O964   Zn996   1.938   .     S
O965   Zn1008  1.938   .     S
O966   Zn994   1.938   .     S
O967   Zn999   1.938   .     S
O968   Zn1000  1.938   .     S
O969   Zn997   1.938   .     S
O970   Zn998   1.938   .     S
O971   Zn751   1.938   1_655 S
O972   Zn1002  1.938   .     S
O973   Zn501   1.938   1_565 S
O974   Zn1007  1.944   .     S
O974   Zn997   1.944   .     S
O974   Zn1003  1.944   .     S
O975   Zn1004  1.938   .     S
O976   Zn1007  1.938   .     S
O977   Zn754   1.938   1_655 S
O978   Zn1001  1.938   .     S
O979   Zn489   1.938   1_565 S
O980   Zn750   1.938   1_655 S
O981   Zn1003  1.938   .     S
O982   Zn993   1.938   .     S
O983   Zn497   1.938   1_565 S
O984   Zn1006  1.938   .     S
O985   Zn1000  1.932   .     S
O985   C325    1.280   1_565 S
O986   Zn755   1.938   1_655 S
O987   Zn500   1.938   1_565 S
O988   Zn1005  1.938   .     S
O989   Zn999   1.932   .     S
O990   Zn994   1.932   .     S
O991   Zn1008  1.932   .     S
O991   C580    1.280   1_655 S
O992   Zn996   1.932   .     S
Zn995  O448    1.944   1_565 S
Zn998  O711    1.944   1_655 S
Zn1000 O437    1.944   1_565 S
Zn1008 O722    1.944   1_655 S
