data_str_m1_o10_o16_pcu_sym.86
_audit_creation_date              2020-01-03
_audit_creation_method            'Materials Studio'
_symmetry_space_group_name_H-M    'P1'
_symmetry_Int_Tables_number       1
_symmetry_cell_setting            triclinic
loop_
_symmetry_equiv_pos_as_xyz
  x,y,z
_cell_length_a                    32.6473
_cell_length_b                    32.6351
_cell_length_c                    31.0027
_cell_angle_alpha                 96.6871
_cell_angle_beta                  75.0521
_cell_angle_gamma                 97.8495
loop_
_atom_site_label
_atom_site_type_symbol
_atom_site_fract_x
_atom_site_fract_y
_atom_site_fract_z
_atom_site_U_iso_or_equiv
_atom_site_adp_type
_atom_site_occupancy
C1     C     0.05319   0.16030   0.25940   0.00000  Uiso   1.00
C2     C     0.18078   0.16673   0.05698   0.00000  Uiso   1.00
C3     C     0.19789   0.09822   0.06328   0.00000  Uiso   1.00
C4     C     0.28048   0.17354   0.24060   0.00000  Uiso   1.00
C5     C     0.14363   0.19454   0.41946   0.00000  Uiso   1.00
C6     C     0.32575   0.17464   0.23766   0.00000  Uiso   1.00
C7     C     0.00802   0.15668   0.26633   0.00000  Uiso   1.00
C8     C     0.17761   0.32197   0.23757   0.00000  Uiso   1.00
C9     C     0.15086   0.01310   0.26640   0.00000  Uiso   1.00
C10    C     0.15693   0.05613   0.25967   0.00000  Uiso   1.00
C11    C     0.17607   0.27778   0.24068   0.00000  Uiso   1.00
C12    C     0.13897   0.24866   0.48035   0.00000  Uiso   1.00
C13    C     0.18514   0.14787   0.12957   0.00000  Uiso   1.00
C14    C     0.14818   0.18427   0.37103   0.00000  Uiso   1.00
C15    C     0.19245   0.08507   0.02068   0.00000  Uiso   1.00
C16    C     0.19128   0.13857   0.08161   0.00000  Uiso   1.00
C17    C     0.13545   0.23492   0.43729   0.00000  Uiso   1.00
C18    C     0.15177   0.22285   0.00591   0.00000  Uiso   1.00
C19    C     0.15949   0.18147   0.48955   0.00000  Uiso   1.00
C20    C     0.15282   0.16670   0.44665   0.00000  Uiso   1.00
C21    C     0.17337   0.15421   0.01433   0.00000  Uiso   1.00
C22    C     0.17884   0.11239   0.49645   0.00000  Uiso   1.00
C23    C     0.16871   0.09808   0.45584   0.00000  Uiso   1.00
C24    C     0.15498   0.12439   0.43202   0.00000  Uiso   1.00
Cl25   Cl    0.20060   0.03323   0.00044   0.00000  Uiso   1.00
H26    H     0.20546   0.07635   0.08307   0.00000  Uiso   1.00
H27    H     0.02623   0.09460   0.32312   0.00000  Uiso   1.00
H28    H     0.06918   0.03163   0.36995   0.00000  Uiso   1.00
H29    H     0.20169   0.00210   0.21008   0.00000  Uiso   1.00
H30    H     0.17048   0.06609   0.44233   0.00000  Uiso   1.00
H31    H     0.17579   0.19718   0.07351   0.00000  Uiso   1.00
H32    H     0.12803   0.25659   0.41721   0.00000  Uiso   1.00
H33    H     0.15497   0.23638   0.03837   0.00000  Uiso   1.00
H34    H     0.13312   0.28012   0.49352   0.00000  Uiso   1.00
H35    H     0.14520   0.11064   0.40231   0.00000  Uiso   1.00
H36    H     0.01438   0.19059   0.21047   0.00000  Uiso   1.00
O37    O     0.16667   0.16667   0.25000   0.00000  Uiso   1.00
O38    O     0.15451   0.12637   0.15458   0.00000  Uiso   1.00
O39    O     0.12940   0.20391   0.34968   0.00000  Uiso   1.00
O40    O     0.20824   0.17759   0.14606   0.00000  Uiso   1.00
O41    O     0.17451   0.15880   0.34968   0.00000  Uiso   1.00
O42    O     0.28307   0.15979   0.34573   0.00000  Uiso   1.00
O43    O     0.28600   0.09256   0.30114   0.00000  Uiso   1.00
O44    O     0.01260   0.11801   0.34213   0.00000  Uiso   1.00
O45    O     0.07672   0.30194   0.30267   0.00000  Uiso   1.00
O46    O     0.13148   0.31324   0.34573   0.00000  Uiso   1.00
O47    O     0.09008   0.04162   0.34293   0.00000  Uiso   1.00
O48    O     0.17930   0.08019   0.28213   0.00000  Uiso   1.00
O49    O     0.14632   0.26085   0.27013   0.00000  Uiso   1.00
O50    O     0.07412   0.13291   0.23413   0.00000  Uiso   1.00
O51    O     0.26693   0.19272   0.21360   0.00000  Uiso   1.00
O52    O     0.07071   0.18878   0.28213   0.00000  Uiso   1.00
O53    O     0.25491   0.15226   0.27013   0.00000  Uiso   1.00
O54    O     0.13760   0.06944   0.23413   0.00000  Uiso   1.00
O55    O     0.20345   0.25620   0.21360   0.00000  Uiso   1.00
S56    S     0.31214   0.13122   0.31461   0.00000  Uiso   1.00
S57    S     0.11148   0.33233   0.31542   0.00000  Uiso   1.00
Zn58   Zn    0.19338   0.13994   0.28734   0.00000  Uiso   1.00
Zn59   Zn    0.13379   0.12458   0.21875   0.00000  Uiso   1.00
Zn60   Zn    0.21056   0.19775   0.20657   0.00000  Uiso   1.00
Zn61   Zn    0.12893   0.20439   0.28734   0.00000  Uiso   1.00
C62    C     0.38652   0.16030   0.25940   0.00000  Uiso   1.00
C63    C     0.51412   0.16673   0.05698   0.00000  Uiso   1.00
C64    C     0.53123   0.09822   0.06328   0.00000  Uiso   1.00
C65    C     0.61381   0.17354   0.24060   0.00000  Uiso   1.00
C66    C     0.47696   0.19454   0.41946   0.00000  Uiso   1.00
C67    C     0.65908   0.17464   0.23766   0.00000  Uiso   1.00
C68    C     0.34135   0.15668   0.26633   0.00000  Uiso   1.00
C69    C     0.51094   0.32197   0.23757   0.00000  Uiso   1.00
C70    C     0.48420   0.01310   0.26640   0.00000  Uiso   1.00
C71    C     0.49026   0.05613   0.25967   0.00000  Uiso   1.00
C72    C     0.50941   0.27778   0.24068   0.00000  Uiso   1.00
C73    C     0.47230   0.24866   0.48035   0.00000  Uiso   1.00
C74    C     0.51847   0.14787   0.12957   0.00000  Uiso   1.00
C75    C     0.48151   0.18427   0.37103   0.00000  Uiso   1.00
C76    C     0.52578   0.08507   0.02068   0.00000  Uiso   1.00
C77    C     0.52462   0.13857   0.08161   0.00000  Uiso   1.00
C78    C     0.46878   0.23492   0.43729   0.00000  Uiso   1.00
C79    C     0.48510   0.22285   0.00591   0.00000  Uiso   1.00
C80    C     0.49282   0.18147   0.48955   0.00000  Uiso   1.00
C81    C     0.48615   0.16670   0.44665   0.00000  Uiso   1.00
C82    C     0.50670   0.15421   0.01433   0.00000  Uiso   1.00
C83    C     0.51217   0.11239   0.49645   0.00000  Uiso   1.00
C84    C     0.50204   0.09808   0.45584   0.00000  Uiso   1.00
C85    C     0.48831   0.12439   0.43202   0.00000  Uiso   1.00
Cl86   Cl    0.53393   0.03323   0.00044   0.00000  Uiso   1.00
H87    H     0.53879   0.07635   0.08307   0.00000  Uiso   1.00
H88    H     0.35957   0.09460   0.32312   0.00000  Uiso   1.00
H89    H     0.40251   0.03163   0.36995   0.00000  Uiso   1.00
H90    H     0.53503   0.00210   0.21008   0.00000  Uiso   1.00
H91    H     0.50381   0.06609   0.44233   0.00000  Uiso   1.00
H92    H     0.50913   0.19718   0.07351   0.00000  Uiso   1.00
H93    H     0.46137   0.25659   0.41721   0.00000  Uiso   1.00
H94    H     0.48830   0.23638   0.03837   0.00000  Uiso   1.00
H95    H     0.46646   0.28012   0.49352   0.00000  Uiso   1.00
H96    H     0.47853   0.11064   0.40231   0.00000  Uiso   1.00
H97    H     0.34772   0.19059   0.21047   0.00000  Uiso   1.00
O98    O     0.50000   0.16667   0.25000   0.00000  Uiso   1.00
O99    O     0.48784   0.12637   0.15458   0.00000  Uiso   1.00
O100   O     0.46274   0.20391   0.34968   0.00000  Uiso   1.00
O101   O     0.54157   0.17759   0.14606   0.00000  Uiso   1.00
O102   O     0.50785   0.15880   0.34968   0.00000  Uiso   1.00
O103   O     0.61640   0.15979   0.34573   0.00000  Uiso   1.00
O104   O     0.61933   0.09256   0.30114   0.00000  Uiso   1.00
O105   O     0.34594   0.11801   0.34213   0.00000  Uiso   1.00
O106   O     0.41005   0.30194   0.30267   0.00000  Uiso   1.00
O107   O     0.46481   0.31324   0.34573   0.00000  Uiso   1.00
O108   O     0.42341   0.04162   0.34293   0.00000  Uiso   1.00
O109   O     0.51264   0.08019   0.28213   0.00000  Uiso   1.00
O110   O     0.47965   0.26085   0.27013   0.00000  Uiso   1.00
O111   O     0.40745   0.13291   0.23413   0.00000  Uiso   1.00
O112   O     0.60026   0.19272   0.21360   0.00000  Uiso   1.00
O113   O     0.40405   0.18878   0.28213   0.00000  Uiso   1.00
O114   O     0.58824   0.15226   0.27013   0.00000  Uiso   1.00
O115   O     0.47093   0.06944   0.23413   0.00000  Uiso   1.00
O116   O     0.53678   0.25620   0.21360   0.00000  Uiso   1.00
S117   S     0.64547   0.13122   0.31461   0.00000  Uiso   1.00
S118   S     0.44482   0.33233   0.31542   0.00000  Uiso   1.00
Zn119  Zn    0.52672   0.13994   0.28734   0.00000  Uiso   1.00
Zn120  Zn    0.46713   0.12458   0.21875   0.00000  Uiso   1.00
Zn121  Zn    0.54389   0.19775   0.20657   0.00000  Uiso   1.00
Zn122  Zn    0.46226   0.20439   0.28734   0.00000  Uiso   1.00
C123   C     0.71985   0.16030   0.25940   0.00000  Uiso   1.00
C124   C     0.84745   0.16673   0.05698   0.00000  Uiso   1.00
C125   C     0.86456   0.09822   0.06328   0.00000  Uiso   1.00
C126   C     0.94715   0.17354   0.24060   0.00000  Uiso   1.00
C127   C     0.81029   0.19454   0.41946   0.00000  Uiso   1.00
C128   C     0.99241   0.17464   0.23766   0.00000  Uiso   1.00
C129   C     0.67469   0.15668   0.26633   0.00000  Uiso   1.00
C130   C     0.84427   0.32197   0.23757   0.00000  Uiso   1.00
C131   C     0.81753   0.01310   0.26640   0.00000  Uiso   1.00
C132   C     0.82360   0.05613   0.25967   0.00000  Uiso   1.00
C133   C     0.84274   0.27778   0.24068   0.00000  Uiso   1.00
C134   C     0.80564   0.24866   0.48035   0.00000  Uiso   1.00
C135   C     0.85180   0.14787   0.12957   0.00000  Uiso   1.00
C136   C     0.81484   0.18427   0.37103   0.00000  Uiso   1.00
C137   C     0.85912   0.08507   0.02068   0.00000  Uiso   1.00
C138   C     0.85795   0.13857   0.08161   0.00000  Uiso   1.00
C139   C     0.80212   0.23492   0.43729   0.00000  Uiso   1.00
C140   C     0.81843   0.22285   0.00591   0.00000  Uiso   1.00
C141   C     0.82616   0.18147   0.48955   0.00000  Uiso   1.00
C142   C     0.81948   0.16670   0.44665   0.00000  Uiso   1.00
C143   C     0.84003   0.15421   0.01433   0.00000  Uiso   1.00
C144   C     0.84550   0.11239   0.49645   0.00000  Uiso   1.00
C145   C     0.83537   0.09808   0.45584   0.00000  Uiso   1.00
C146   C     0.82164   0.12439   0.43202   0.00000  Uiso   1.00
Cl147  Cl    0.86726   0.03323   0.00044   0.00000  Uiso   1.00
H148   H     0.87213   0.07635   0.08307   0.00000  Uiso   1.00
H149   H     0.69290   0.09460   0.32312   0.00000  Uiso   1.00
H150   H     0.73584   0.03163   0.36995   0.00000  Uiso   1.00
H151   H     0.86836   0.00210   0.21008   0.00000  Uiso   1.00
H152   H     0.83714   0.06609   0.44233   0.00000  Uiso   1.00
H153   H     0.84246   0.19718   0.07351   0.00000  Uiso   1.00
H154   H     0.79470   0.25659   0.41721   0.00000  Uiso   1.00
H155   H     0.82163   0.23638   0.03837   0.00000  Uiso   1.00
H156   H     0.79979   0.28012   0.49352   0.00000  Uiso   1.00
H157   H     0.81187   0.11064   0.40231   0.00000  Uiso   1.00
H158   H     0.68105   0.19059   0.21047   0.00000  Uiso   1.00
O159   O     0.83333   0.16667   0.25000   0.00000  Uiso   1.00
O160   O     0.82118   0.12637   0.15458   0.00000  Uiso   1.00
O161   O     0.79607   0.20391   0.34968   0.00000  Uiso   1.00
O162   O     0.87491   0.17759   0.14606   0.00000  Uiso   1.00
O163   O     0.84118   0.15880   0.34968   0.00000  Uiso   1.00
O164   O     0.94974   0.15979   0.34573   0.00000  Uiso   1.00
O165   O     0.95266   0.09256   0.30114   0.00000  Uiso   1.00
O166   O     0.67927   0.11801   0.34213   0.00000  Uiso   1.00
O167   O     0.74339   0.30194   0.30267   0.00000  Uiso   1.00
O168   O     0.79814   0.31324   0.34573   0.00000  Uiso   1.00
O169   O     0.75674   0.04162   0.34293   0.00000  Uiso   1.00
O170   O     0.84597   0.08019   0.28213   0.00000  Uiso   1.00
O171   O     0.81298   0.26085   0.27013   0.00000  Uiso   1.00
O172   O     0.74078   0.13291   0.23413   0.00000  Uiso   1.00
O173   O     0.93360   0.19272   0.21360   0.00000  Uiso   1.00
O174   O     0.73738   0.18878   0.28213   0.00000  Uiso   1.00
O175   O     0.92158   0.15226   0.27013   0.00000  Uiso   1.00
O176   O     0.80426   0.06944   0.23413   0.00000  Uiso   1.00
O177   O     0.87012   0.25620   0.21360   0.00000  Uiso   1.00
S178   S     0.97880   0.13122   0.31461   0.00000  Uiso   1.00
S179   S     0.77815   0.33233   0.31542   0.00000  Uiso   1.00
Zn180  Zn    0.86005   0.13994   0.28734   0.00000  Uiso   1.00
Zn181  Zn    0.80046   0.12458   0.21875   0.00000  Uiso   1.00
Zn182  Zn    0.87723   0.19775   0.20657   0.00000  Uiso   1.00
Zn183  Zn    0.79560   0.20439   0.28734   0.00000  Uiso   1.00
C184   C     0.05319   0.49363   0.25940   0.00000  Uiso   1.00
C185   C     0.18078   0.50006   0.05698   0.00000  Uiso   1.00
C186   C     0.19789   0.43156   0.06328   0.00000  Uiso   1.00
C187   C     0.28048   0.50687   0.24060   0.00000  Uiso   1.00
C188   C     0.14363   0.52787   0.41946   0.00000  Uiso   1.00
C189   C     0.32575   0.50797   0.23766   0.00000  Uiso   1.00
C190   C     0.00802   0.49001   0.26633   0.00000  Uiso   1.00
C191   C     0.17761   0.65531   0.23757   0.00000  Uiso   1.00
C192   C     0.15086   0.34643   0.26640   0.00000  Uiso   1.00
C193   C     0.15693   0.38947   0.25967   0.00000  Uiso   1.00
C194   C     0.17607   0.61112   0.24068   0.00000  Uiso   1.00
C195   C     0.13897   0.58200   0.48035   0.00000  Uiso   1.00
C196   C     0.18514   0.48120   0.12957   0.00000  Uiso   1.00
C197   C     0.14818   0.51760   0.37103   0.00000  Uiso   1.00
C198   C     0.19245   0.41840   0.02068   0.00000  Uiso   1.00
C199   C     0.19128   0.47190   0.08161   0.00000  Uiso   1.00
C200   C     0.13545   0.56825   0.43729   0.00000  Uiso   1.00
C201   C     0.15177   0.55619   0.00591   0.00000  Uiso   1.00
C202   C     0.15949   0.51480   0.48955   0.00000  Uiso   1.00
C203   C     0.15282   0.50003   0.44665   0.00000  Uiso   1.00
C204   C     0.17337   0.48754   0.01433   0.00000  Uiso   1.00
C205   C     0.17884   0.44572   0.49645   0.00000  Uiso   1.00
C206   C     0.16871   0.43141   0.45584   0.00000  Uiso   1.00
C207   C     0.15498   0.45772   0.43202   0.00000  Uiso   1.00
Cl208  Cl    0.20060   0.36656   0.00044   0.00000  Uiso   1.00
H209   H     0.20546   0.40968   0.08307   0.00000  Uiso   1.00
H210   H     0.02623   0.42793   0.32312   0.00000  Uiso   1.00
H211   H     0.06918   0.36496   0.36995   0.00000  Uiso   1.00
H212   H     0.20169   0.33543   0.21008   0.00000  Uiso   1.00
H213   H     0.17048   0.39942   0.44233   0.00000  Uiso   1.00
H214   H     0.17579   0.53051   0.07351   0.00000  Uiso   1.00
H215   H     0.12803   0.58993   0.41721   0.00000  Uiso   1.00
H216   H     0.15497   0.56972   0.03837   0.00000  Uiso   1.00
H217   H     0.13312   0.61345   0.49352   0.00000  Uiso   1.00
H218   H     0.14520   0.44397   0.40231   0.00000  Uiso   1.00
H219   H     0.01438   0.52393   0.21047   0.00000  Uiso   1.00
O220   O     0.16667   0.50000   0.25000   0.00000  Uiso   1.00
O221   O     0.15451   0.45970   0.15458   0.00000  Uiso   1.00
O222   O     0.12940   0.53724   0.34968   0.00000  Uiso   1.00
O223   O     0.20824   0.51092   0.14606   0.00000  Uiso   1.00
O224   O     0.17451   0.49213   0.34968   0.00000  Uiso   1.00
O225   O     0.28307   0.49312   0.34573   0.00000  Uiso   1.00
O226   O     0.28600   0.42589   0.30114   0.00000  Uiso   1.00
O227   O     0.01260   0.45134   0.34213   0.00000  Uiso   1.00
O228   O     0.07672   0.63527   0.30267   0.00000  Uiso   1.00
O229   O     0.13148   0.64657   0.34573   0.00000  Uiso   1.00
O230   O     0.09008   0.37495   0.34293   0.00000  Uiso   1.00
O231   O     0.17930   0.41352   0.28213   0.00000  Uiso   1.00
O232   O     0.14632   0.59418   0.27013   0.00000  Uiso   1.00
O233   O     0.07412   0.46625   0.23413   0.00000  Uiso   1.00
O234   O     0.26693   0.52605   0.21360   0.00000  Uiso   1.00
O235   O     0.07071   0.52211   0.28213   0.00000  Uiso   1.00
O236   O     0.25491   0.48559   0.27013   0.00000  Uiso   1.00
O237   O     0.13760   0.40277   0.23413   0.00000  Uiso   1.00
O238   O     0.20345   0.58953   0.21360   0.00000  Uiso   1.00
S239   S     0.31214   0.46456   0.31461   0.00000  Uiso   1.00
S240   S     0.11148   0.66567   0.31542   0.00000  Uiso   1.00
Zn241  Zn    0.19338   0.47327   0.28734   0.00000  Uiso   1.00
Zn242  Zn    0.13379   0.45791   0.21875   0.00000  Uiso   1.00
Zn243  Zn    0.21056   0.53109   0.20657   0.00000  Uiso   1.00
Zn244  Zn    0.12893   0.53773   0.28734   0.00000  Uiso   1.00
C245   C     0.38652   0.49363   0.25940   0.00000  Uiso   1.00
C246   C     0.51412   0.50006   0.05698   0.00000  Uiso   1.00
C247   C     0.53123   0.43156   0.06328   0.00000  Uiso   1.00
C248   C     0.61381   0.50687   0.24060   0.00000  Uiso   1.00
C249   C     0.47696   0.52787   0.41946   0.00000  Uiso   1.00
C250   C     0.65908   0.50797   0.23766   0.00000  Uiso   1.00
C251   C     0.34135   0.49001   0.26633   0.00000  Uiso   1.00
C252   C     0.51094   0.65531   0.23757   0.00000  Uiso   1.00
C253   C     0.48420   0.34643   0.26640   0.00000  Uiso   1.00
C254   C     0.49026   0.38947   0.25967   0.00000  Uiso   1.00
C255   C     0.50941   0.61112   0.24068   0.00000  Uiso   1.00
C256   C     0.47230   0.58200   0.48035   0.00000  Uiso   1.00
C257   C     0.51847   0.48120   0.12957   0.00000  Uiso   1.00
C258   C     0.48151   0.51760   0.37103   0.00000  Uiso   1.00
C259   C     0.52578   0.41840   0.02068   0.00000  Uiso   1.00
C260   C     0.52462   0.47190   0.08161   0.00000  Uiso   1.00
C261   C     0.46878   0.56825   0.43729   0.00000  Uiso   1.00
C262   C     0.48510   0.55619   0.00591   0.00000  Uiso   1.00
C263   C     0.49282   0.51480   0.48955   0.00000  Uiso   1.00
C264   C     0.48615   0.50003   0.44665   0.00000  Uiso   1.00
C265   C     0.50670   0.48754   0.01433   0.00000  Uiso   1.00
C266   C     0.51217   0.44572   0.49645   0.00000  Uiso   1.00
C267   C     0.50204   0.43141   0.45584   0.00000  Uiso   1.00
C268   C     0.48831   0.45772   0.43202   0.00000  Uiso   1.00
Cl269  Cl    0.53393   0.36656   0.00044   0.00000  Uiso   1.00
H270   H     0.53879   0.40968   0.08307   0.00000  Uiso   1.00
H271   H     0.35957   0.42793   0.32312   0.00000  Uiso   1.00
H272   H     0.40251   0.36496   0.36995   0.00000  Uiso   1.00
H273   H     0.53503   0.33543   0.21008   0.00000  Uiso   1.00
H274   H     0.50381   0.39942   0.44233   0.00000  Uiso   1.00
H275   H     0.50913   0.53051   0.07351   0.00000  Uiso   1.00
H276   H     0.46137   0.58993   0.41721   0.00000  Uiso   1.00
H277   H     0.48830   0.56972   0.03837   0.00000  Uiso   1.00
H278   H     0.46646   0.61345   0.49352   0.00000  Uiso   1.00
H279   H     0.47853   0.44397   0.40231   0.00000  Uiso   1.00
H280   H     0.34772   0.52393   0.21047   0.00000  Uiso   1.00
O281   O     0.50000   0.50000   0.25000   0.00000  Uiso   1.00
O282   O     0.48784   0.45970   0.15458   0.00000  Uiso   1.00
O283   O     0.46274   0.53724   0.34968   0.00000  Uiso   1.00
O284   O     0.54157   0.51092   0.14606   0.00000  Uiso   1.00
O285   O     0.50785   0.49213   0.34968   0.00000  Uiso   1.00
O286   O     0.61640   0.49312   0.34573   0.00000  Uiso   1.00
O287   O     0.61933   0.42589   0.30114   0.00000  Uiso   1.00
O288   O     0.34594   0.45134   0.34213   0.00000  Uiso   1.00
O289   O     0.41005   0.63527   0.30267   0.00000  Uiso   1.00
O290   O     0.46481   0.64657   0.34573   0.00000  Uiso   1.00
O291   O     0.42341   0.37495   0.34293   0.00000  Uiso   1.00
O292   O     0.51264   0.41352   0.28213   0.00000  Uiso   1.00
O293   O     0.47965   0.59418   0.27013   0.00000  Uiso   1.00
O294   O     0.40745   0.46625   0.23413   0.00000  Uiso   1.00
O295   O     0.60026   0.52605   0.21360   0.00000  Uiso   1.00
O296   O     0.40405   0.52211   0.28213   0.00000  Uiso   1.00
O297   O     0.58824   0.48559   0.27013   0.00000  Uiso   1.00
O298   O     0.47093   0.40277   0.23413   0.00000  Uiso   1.00
O299   O     0.53678   0.58953   0.21360   0.00000  Uiso   1.00
S300   S     0.64547   0.46456   0.31461   0.00000  Uiso   1.00
S301   S     0.44482   0.66567   0.31542   0.00000  Uiso   1.00
Zn302  Zn    0.52672   0.47327   0.28734   0.00000  Uiso   1.00
Zn303  Zn    0.46713   0.45791   0.21875   0.00000  Uiso   1.00
Zn304  Zn    0.54389   0.53109   0.20657   0.00000  Uiso   1.00
Zn305  Zn    0.46226   0.53773   0.28734   0.00000  Uiso   1.00
C306   C     0.71985   0.49363   0.25940   0.00000  Uiso   1.00
C307   C     0.84745   0.50006   0.05698   0.00000  Uiso   1.00
C308   C     0.86456   0.43156   0.06328   0.00000  Uiso   1.00
C309   C     0.94715   0.50687   0.24060   0.00000  Uiso   1.00
C310   C     0.81029   0.52787   0.41946   0.00000  Uiso   1.00
C311   C     0.99241   0.50797   0.23766   0.00000  Uiso   1.00
C312   C     0.67469   0.49001   0.26633   0.00000  Uiso   1.00
C313   C     0.84427   0.65531   0.23757   0.00000  Uiso   1.00
C314   C     0.81753   0.34643   0.26640   0.00000  Uiso   1.00
C315   C     0.82360   0.38947   0.25967   0.00000  Uiso   1.00
C316   C     0.84274   0.61112   0.24068   0.00000  Uiso   1.00
C317   C     0.80564   0.58200   0.48035   0.00000  Uiso   1.00
C318   C     0.85180   0.48120   0.12957   0.00000  Uiso   1.00
C319   C     0.81484   0.51760   0.37103   0.00000  Uiso   1.00
C320   C     0.85912   0.41840   0.02068   0.00000  Uiso   1.00
C321   C     0.85795   0.47190   0.08161   0.00000  Uiso   1.00
C322   C     0.80212   0.56825   0.43729   0.00000  Uiso   1.00
C323   C     0.81843   0.55619   0.00591   0.00000  Uiso   1.00
C324   C     0.82616   0.51480   0.48955   0.00000  Uiso   1.00
C325   C     0.81948   0.50003   0.44665   0.00000  Uiso   1.00
C326   C     0.84003   0.48754   0.01433   0.00000  Uiso   1.00
C327   C     0.84550   0.44572   0.49645   0.00000  Uiso   1.00
C328   C     0.83537   0.43141   0.45584   0.00000  Uiso   1.00
C329   C     0.82164   0.45772   0.43202   0.00000  Uiso   1.00
Cl330  Cl    0.86726   0.36656   0.00044   0.00000  Uiso   1.00
H331   H     0.87213   0.40968   0.08307   0.00000  Uiso   1.00
H332   H     0.69290   0.42793   0.32312   0.00000  Uiso   1.00
H333   H     0.73584   0.36496   0.36995   0.00000  Uiso   1.00
H334   H     0.86836   0.33543   0.21008   0.00000  Uiso   1.00
H335   H     0.83714   0.39942   0.44233   0.00000  Uiso   1.00
H336   H     0.84246   0.53051   0.07351   0.00000  Uiso   1.00
H337   H     0.79470   0.58993   0.41721   0.00000  Uiso   1.00
H338   H     0.82163   0.56972   0.03837   0.00000  Uiso   1.00
H339   H     0.79979   0.61345   0.49352   0.00000  Uiso   1.00
H340   H     0.81187   0.44397   0.40231   0.00000  Uiso   1.00
H341   H     0.68105   0.52393   0.21047   0.00000  Uiso   1.00
O342   O     0.83333   0.50000   0.25000   0.00000  Uiso   1.00
O343   O     0.82118   0.45970   0.15458   0.00000  Uiso   1.00
O344   O     0.79607   0.53724   0.34968   0.00000  Uiso   1.00
O345   O     0.87491   0.51092   0.14606   0.00000  Uiso   1.00
O346   O     0.84118   0.49213   0.34968   0.00000  Uiso   1.00
O347   O     0.94974   0.49312   0.34573   0.00000  Uiso   1.00
O348   O     0.95266   0.42589   0.30114   0.00000  Uiso   1.00
O349   O     0.67927   0.45134   0.34213   0.00000  Uiso   1.00
O350   O     0.74339   0.63527   0.30267   0.00000  Uiso   1.00
O351   O     0.79814   0.64657   0.34573   0.00000  Uiso   1.00
O352   O     0.75674   0.37495   0.34293   0.00000  Uiso   1.00
O353   O     0.84597   0.41352   0.28213   0.00000  Uiso   1.00
O354   O     0.81298   0.59418   0.27013   0.00000  Uiso   1.00
O355   O     0.74078   0.46625   0.23413   0.00000  Uiso   1.00
O356   O     0.93360   0.52605   0.21360   0.00000  Uiso   1.00
O357   O     0.73738   0.52211   0.28213   0.00000  Uiso   1.00
O358   O     0.92158   0.48559   0.27013   0.00000  Uiso   1.00
O359   O     0.80426   0.40277   0.23413   0.00000  Uiso   1.00
O360   O     0.87012   0.58953   0.21360   0.00000  Uiso   1.00
S361   S     0.97880   0.46456   0.31461   0.00000  Uiso   1.00
S362   S     0.77815   0.66567   0.31542   0.00000  Uiso   1.00
Zn363  Zn    0.86005   0.47327   0.28734   0.00000  Uiso   1.00
Zn364  Zn    0.80046   0.45791   0.21875   0.00000  Uiso   1.00
Zn365  Zn    0.87723   0.53109   0.20657   0.00000  Uiso   1.00
Zn366  Zn    0.79560   0.53773   0.28734   0.00000  Uiso   1.00
C367   C     0.05319   0.82696   0.25940   0.00000  Uiso   1.00
C368   C     0.18078   0.83340   0.05698   0.00000  Uiso   1.00
C369   C     0.19789   0.76489   0.06328   0.00000  Uiso   1.00
C370   C     0.28048   0.84020   0.24060   0.00000  Uiso   1.00
C371   C     0.14363   0.86120   0.41946   0.00000  Uiso   1.00
C372   C     0.32575   0.84131   0.23766   0.00000  Uiso   1.00
C373   C     0.00802   0.82334   0.26633   0.00000  Uiso   1.00
C374   C     0.17761   0.98864   0.23757   0.00000  Uiso   1.00
C375   C     0.15086   0.67977   0.26640   0.00000  Uiso   1.00
C376   C     0.15693   0.72280   0.25967   0.00000  Uiso   1.00
C377   C     0.17607   0.94445   0.24068   0.00000  Uiso   1.00
C378   C     0.13897   0.91533   0.48035   0.00000  Uiso   1.00
C379   C     0.18514   0.81453   0.12957   0.00000  Uiso   1.00
C380   C     0.14818   0.85093   0.37103   0.00000  Uiso   1.00
C381   C     0.19245   0.75173   0.02068   0.00000  Uiso   1.00
C382   C     0.19128   0.80523   0.08161   0.00000  Uiso   1.00
C383   C     0.13545   0.90159   0.43729   0.00000  Uiso   1.00
C384   C     0.15177   0.88952   0.00591   0.00000  Uiso   1.00
C385   C     0.15949   0.84814   0.48955   0.00000  Uiso   1.00
C386   C     0.15282   0.83336   0.44665   0.00000  Uiso   1.00
C387   C     0.17337   0.82087   0.01433   0.00000  Uiso   1.00
C388   C     0.17884   0.77905   0.49645   0.00000  Uiso   1.00
C389   C     0.16871   0.76474   0.45584   0.00000  Uiso   1.00
C390   C     0.15498   0.79106   0.43202   0.00000  Uiso   1.00
Cl391  Cl    0.20060   0.69989   0.00044   0.00000  Uiso   1.00
H392   H     0.20546   0.74302   0.08307   0.00000  Uiso   1.00
H393   H     0.02623   0.76127   0.32312   0.00000  Uiso   1.00
H394   H     0.06918   0.69830   0.36995   0.00000  Uiso   1.00
H395   H     0.20169   0.66877   0.21008   0.00000  Uiso   1.00
H396   H     0.17048   0.73275   0.44233   0.00000  Uiso   1.00
H397   H     0.17579   0.86385   0.07351   0.00000  Uiso   1.00
H398   H     0.12803   0.92326   0.41721   0.00000  Uiso   1.00
H399   H     0.15497   0.90305   0.03837   0.00000  Uiso   1.00
H400   H     0.13312   0.94679   0.49352   0.00000  Uiso   1.00
H401   H     0.14520   0.77731   0.40231   0.00000  Uiso   1.00
H402   H     0.01438   0.85726   0.21047   0.00000  Uiso   1.00
O403   O     0.16667   0.83333   0.25000   0.00000  Uiso   1.00
O404   O     0.15451   0.79304   0.15458   0.00000  Uiso   1.00
O405   O     0.12940   0.87058   0.34968   0.00000  Uiso   1.00
O406   O     0.20824   0.84425   0.14606   0.00000  Uiso   1.00
O407   O     0.17451   0.82546   0.34968   0.00000  Uiso   1.00
O408   O     0.28307   0.82646   0.34573   0.00000  Uiso   1.00
O409   O     0.28600   0.75923   0.30114   0.00000  Uiso   1.00
O410   O     0.01260   0.78467   0.34213   0.00000  Uiso   1.00
O411   O     0.07672   0.96860   0.30267   0.00000  Uiso   1.00
O412   O     0.13148   0.97991   0.34573   0.00000  Uiso   1.00
O413   O     0.09008   0.70828   0.34293   0.00000  Uiso   1.00
O414   O     0.17930   0.74686   0.28213   0.00000  Uiso   1.00
O415   O     0.14632   0.92751   0.27013   0.00000  Uiso   1.00
O416   O     0.07412   0.79958   0.23413   0.00000  Uiso   1.00
O417   O     0.26693   0.85939   0.21360   0.00000  Uiso   1.00
O418   O     0.07071   0.85544   0.28213   0.00000  Uiso   1.00
O419   O     0.25491   0.81892   0.27013   0.00000  Uiso   1.00
O420   O     0.13760   0.73610   0.23413   0.00000  Uiso   1.00
O421   O     0.20345   0.92286   0.21360   0.00000  Uiso   1.00
S422   S     0.31214   0.79789   0.31461   0.00000  Uiso   1.00
S423   S     0.11148   0.99900   0.31542   0.00000  Uiso   1.00
Zn424  Zn    0.19338   0.80661   0.28734   0.00000  Uiso   1.00
Zn425  Zn    0.13379   0.79124   0.21875   0.00000  Uiso   1.00
Zn426  Zn    0.21056   0.86442   0.20657   0.00000  Uiso   1.00
Zn427  Zn    0.12893   0.87106   0.28734   0.00000  Uiso   1.00
C428   C     0.38652   0.82696   0.25940   0.00000  Uiso   1.00
C429   C     0.51412   0.83340   0.05698   0.00000  Uiso   1.00
C430   C     0.53123   0.76489   0.06328   0.00000  Uiso   1.00
C431   C     0.61381   0.84020   0.24060   0.00000  Uiso   1.00
C432   C     0.47696   0.86120   0.41946   0.00000  Uiso   1.00
C433   C     0.65908   0.84131   0.23766   0.00000  Uiso   1.00
C434   C     0.34135   0.82334   0.26633   0.00000  Uiso   1.00
C435   C     0.51094   0.98864   0.23757   0.00000  Uiso   1.00
C436   C     0.48420   0.67977   0.26640   0.00000  Uiso   1.00
C437   C     0.49026   0.72280   0.25967   0.00000  Uiso   1.00
C438   C     0.50941   0.94445   0.24068   0.00000  Uiso   1.00
C439   C     0.47230   0.91533   0.48035   0.00000  Uiso   1.00
C440   C     0.51847   0.81453   0.12957   0.00000  Uiso   1.00
C441   C     0.48151   0.85093   0.37103   0.00000  Uiso   1.00
C442   C     0.52578   0.75173   0.02068   0.00000  Uiso   1.00
C443   C     0.52462   0.80523   0.08161   0.00000  Uiso   1.00
C444   C     0.46878   0.90159   0.43729   0.00000  Uiso   1.00
C445   C     0.48510   0.88952   0.00591   0.00000  Uiso   1.00
C446   C     0.49282   0.84814   0.48955   0.00000  Uiso   1.00
C447   C     0.48615   0.83336   0.44665   0.00000  Uiso   1.00
C448   C     0.50670   0.82087   0.01433   0.00000  Uiso   1.00
C449   C     0.51217   0.77905   0.49645   0.00000  Uiso   1.00
C450   C     0.50204   0.76474   0.45584   0.00000  Uiso   1.00
C451   C     0.48831   0.79106   0.43202   0.00000  Uiso   1.00
Cl452  Cl    0.53393   0.69989   0.00044   0.00000  Uiso   1.00
H453   H     0.53879   0.74302   0.08307   0.00000  Uiso   1.00
H454   H     0.35957   0.76127   0.32312   0.00000  Uiso   1.00
H455   H     0.40251   0.69830   0.36995   0.00000  Uiso   1.00
H456   H     0.53503   0.66877   0.21008   0.00000  Uiso   1.00
H457   H     0.50381   0.73275   0.44233   0.00000  Uiso   1.00
H458   H     0.50913   0.86385   0.07351   0.00000  Uiso   1.00
H459   H     0.46137   0.92326   0.41721   0.00000  Uiso   1.00
H460   H     0.48830   0.90305   0.03837   0.00000  Uiso   1.00
H461   H     0.46646   0.94679   0.49352   0.00000  Uiso   1.00
H462   H     0.47853   0.77731   0.40231   0.00000  Uiso   1.00
H463   H     0.34772   0.85726   0.21047   0.00000  Uiso   1.00
O464   O     0.50000   0.83333   0.25000   0.00000  Uiso   1.00
O465   O     0.48784   0.79304   0.15458   0.00000  Uiso   1.00
O466   O     0.46274   0.87058   0.34968   0.00000  Uiso   1.00
O467   O     0.54157   0.84425   0.14606   0.00000  Uiso   1.00
O468   O     0.50785   0.82546   0.34968   0.00000  Uiso   1.00
O469   O     0.61640   0.82646   0.34573   0.00000  Uiso   1.00
O470   O     0.61933   0.75923   0.30114   0.00000  Uiso   1.00
O471   O     0.34594   0.78467   0.34213   0.00000  Uiso   1.00
O472   O     0.41005   0.96860   0.30267   0.00000  Uiso   1.00
O473   O     0.46481   0.97991   0.34573   0.00000  Uiso   1.00
O474   O     0.42341   0.70828   0.34293   0.00000  Uiso   1.00
O475   O     0.51264   0.74686   0.28213   0.00000  Uiso   1.00
O476   O     0.47965   0.92751   0.27013   0.00000  Uiso   1.00
O477   O     0.40745   0.79958   0.23413   0.00000  Uiso   1.00
O478   O     0.60026   0.85939   0.21360   0.00000  Uiso   1.00
O479   O     0.40405   0.85544   0.28213   0.00000  Uiso   1.00
O480   O     0.58824   0.81892   0.27013   0.00000  Uiso   1.00
O481   O     0.47093   0.73610   0.23413   0.00000  Uiso   1.00
O482   O     0.53678   0.92286   0.21360   0.00000  Uiso   1.00
S483   S     0.64547   0.79789   0.31461   0.00000  Uiso   1.00
S484   S     0.44482   0.99900   0.31542   0.00000  Uiso   1.00
Zn485  Zn    0.52672   0.80661   0.28734   0.00000  Uiso   1.00
Zn486  Zn    0.46713   0.79124   0.21875   0.00000  Uiso   1.00
Zn487  Zn    0.54389   0.86442   0.20657   0.00000  Uiso   1.00
Zn488  Zn    0.46226   0.87106   0.28734   0.00000  Uiso   1.00
C489   C     0.71985   0.82696   0.25940   0.00000  Uiso   1.00
C490   C     0.84745   0.83340   0.05698   0.00000  Uiso   1.00
C491   C     0.86456   0.76489   0.06328   0.00000  Uiso   1.00
C492   C     0.94715   0.84020   0.24060   0.00000  Uiso   1.00
C493   C     0.81029   0.86120   0.41946   0.00000  Uiso   1.00
C494   C     0.99241   0.84131   0.23766   0.00000  Uiso   1.00
C495   C     0.67469   0.82334   0.26633   0.00000  Uiso   1.00
C496   C     0.84427   0.98864   0.23757   0.00000  Uiso   1.00
C497   C     0.81753   0.67977   0.26640   0.00000  Uiso   1.00
C498   C     0.82360   0.72280   0.25967   0.00000  Uiso   1.00
C499   C     0.84274   0.94445   0.24068   0.00000  Uiso   1.00
C500   C     0.80564   0.91533   0.48035   0.00000  Uiso   1.00
C501   C     0.85180   0.81453   0.12957   0.00000  Uiso   1.00
C502   C     0.81484   0.85093   0.37103   0.00000  Uiso   1.00
C503   C     0.85912   0.75173   0.02068   0.00000  Uiso   1.00
C504   C     0.85795   0.80523   0.08161   0.00000  Uiso   1.00
C505   C     0.80212   0.90159   0.43729   0.00000  Uiso   1.00
C506   C     0.81843   0.88952   0.00591   0.00000  Uiso   1.00
C507   C     0.82616   0.84814   0.48955   0.00000  Uiso   1.00
C508   C     0.81948   0.83336   0.44665   0.00000  Uiso   1.00
C509   C     0.84003   0.82087   0.01433   0.00000  Uiso   1.00
C510   C     0.84550   0.77905   0.49645   0.00000  Uiso   1.00
C511   C     0.83537   0.76474   0.45584   0.00000  Uiso   1.00
C512   C     0.82164   0.79106   0.43202   0.00000  Uiso   1.00
Cl513  Cl    0.86726   0.69989   0.00044   0.00000  Uiso   1.00
H514   H     0.87213   0.74302   0.08307   0.00000  Uiso   1.00
H515   H     0.69290   0.76127   0.32312   0.00000  Uiso   1.00
H516   H     0.73584   0.69830   0.36995   0.00000  Uiso   1.00
H517   H     0.86836   0.66877   0.21008   0.00000  Uiso   1.00
H518   H     0.83714   0.73275   0.44233   0.00000  Uiso   1.00
H519   H     0.84246   0.86385   0.07351   0.00000  Uiso   1.00
H520   H     0.79470   0.92326   0.41721   0.00000  Uiso   1.00
H521   H     0.82163   0.90305   0.03837   0.00000  Uiso   1.00
H522   H     0.79979   0.94679   0.49352   0.00000  Uiso   1.00
H523   H     0.81187   0.77731   0.40231   0.00000  Uiso   1.00
H524   H     0.68105   0.85726   0.21047   0.00000  Uiso   1.00
O525   O     0.83333   0.83333   0.25000   0.00000  Uiso   1.00
O526   O     0.82118   0.79304   0.15458   0.00000  Uiso   1.00
O527   O     0.79607   0.87058   0.34968   0.00000  Uiso   1.00
O528   O     0.87491   0.84425   0.14606   0.00000  Uiso   1.00
O529   O     0.84118   0.82546   0.34968   0.00000  Uiso   1.00
O530   O     0.94974   0.82646   0.34573   0.00000  Uiso   1.00
O531   O     0.95266   0.75923   0.30114   0.00000  Uiso   1.00
O532   O     0.67927   0.78467   0.34213   0.00000  Uiso   1.00
O533   O     0.74339   0.96860   0.30267   0.00000  Uiso   1.00
O534   O     0.79814   0.97991   0.34573   0.00000  Uiso   1.00
O535   O     0.75674   0.70828   0.34293   0.00000  Uiso   1.00
O536   O     0.84597   0.74686   0.28213   0.00000  Uiso   1.00
O537   O     0.81298   0.92751   0.27013   0.00000  Uiso   1.00
O538   O     0.74078   0.79958   0.23413   0.00000  Uiso   1.00
O539   O     0.93360   0.85939   0.21360   0.00000  Uiso   1.00
O540   O     0.73738   0.85544   0.28213   0.00000  Uiso   1.00
O541   O     0.92158   0.81892   0.27013   0.00000  Uiso   1.00
O542   O     0.80426   0.73610   0.23413   0.00000  Uiso   1.00
O543   O     0.87012   0.92286   0.21360   0.00000  Uiso   1.00
S544   S     0.97880   0.79789   0.31461   0.00000  Uiso   1.00
S545   S     0.77815   0.99900   0.31542   0.00000  Uiso   1.00
Zn546  Zn    0.86005   0.80661   0.28734   0.00000  Uiso   1.00
Zn547  Zn    0.80046   0.79124   0.21875   0.00000  Uiso   1.00
Zn548  Zn    0.87723   0.86442   0.20657   0.00000  Uiso   1.00
Zn549  Zn    0.79560   0.87106   0.28734   0.00000  Uiso   1.00
C550   C     0.05319   0.16030   0.75940   0.00000  Uiso   1.00
C551   C     0.18078   0.16673   0.55698   0.00000  Uiso   1.00
C552   C     0.19789   0.09822   0.56328   0.00000  Uiso   1.00
C553   C     0.28048   0.17354   0.74060   0.00000  Uiso   1.00
C554   C     0.14363   0.19454   0.91946   0.00000  Uiso   1.00
C555   C     0.32575   0.17464   0.73766   0.00000  Uiso   1.00
C556   C     0.00802   0.15668   0.76633   0.00000  Uiso   1.00
C557   C     0.17761   0.32197   0.73757   0.00000  Uiso   1.00
C558   C     0.15086   0.01310   0.76640   0.00000  Uiso   1.00
C559   C     0.15693   0.05613   0.75967   0.00000  Uiso   1.00
C560   C     0.17607   0.27778   0.74068   0.00000  Uiso   1.00
C561   C     0.13897   0.24866   0.98035   0.00000  Uiso   1.00
C562   C     0.18514   0.14787   0.62957   0.00000  Uiso   1.00
C563   C     0.14818   0.18427   0.87103   0.00000  Uiso   1.00
C564   C     0.19245   0.08507   0.52068   0.00000  Uiso   1.00
C565   C     0.19128   0.13857   0.58161   0.00000  Uiso   1.00
C566   C     0.13545   0.23492   0.93729   0.00000  Uiso   1.00
C567   C     0.15177   0.22285   0.50591   0.00000  Uiso   1.00
C568   C     0.15949   0.18147   0.98955   0.00000  Uiso   1.00
C569   C     0.15282   0.16670   0.94665   0.00000  Uiso   1.00
C570   C     0.17337   0.15421   0.51433   0.00000  Uiso   1.00
C571   C     0.17884   0.11239   0.99645   0.00000  Uiso   1.00
C572   C     0.16871   0.09808   0.95584   0.00000  Uiso   1.00
C573   C     0.15498   0.12439   0.93202   0.00000  Uiso   1.00
Cl574  Cl    0.20060   0.03323   0.50044   0.00000  Uiso   1.00
H575   H     0.20546   0.07635   0.58307   0.00000  Uiso   1.00
H576   H     0.02623   0.09460   0.82312   0.00000  Uiso   1.00
H577   H     0.06918   0.03163   0.86995   0.00000  Uiso   1.00
H578   H     0.20169   0.00210   0.71008   0.00000  Uiso   1.00
H579   H     0.17048   0.06609   0.94233   0.00000  Uiso   1.00
H580   H     0.17579   0.19718   0.57351   0.00000  Uiso   1.00
H581   H     0.12803   0.25659   0.91721   0.00000  Uiso   1.00
H582   H     0.15497   0.23638   0.53837   0.00000  Uiso   1.00
H583   H     0.13312   0.28012   0.99352   0.00000  Uiso   1.00
H584   H     0.14520   0.11064   0.90231   0.00000  Uiso   1.00
H585   H     0.01438   0.19059   0.71047   0.00000  Uiso   1.00
O586   O     0.16667   0.16667   0.75000   0.00000  Uiso   1.00
O587   O     0.15451   0.12637   0.65458   0.00000  Uiso   1.00
O588   O     0.12940   0.20391   0.84968   0.00000  Uiso   1.00
O589   O     0.20824   0.17759   0.64606   0.00000  Uiso   1.00
O590   O     0.17451   0.15880   0.84968   0.00000  Uiso   1.00
O591   O     0.28307   0.15979   0.84573   0.00000  Uiso   1.00
O592   O     0.28600   0.09256   0.80114   0.00000  Uiso   1.00
O593   O     0.01260   0.11801   0.84213   0.00000  Uiso   1.00
O594   O     0.07672   0.30194   0.80267   0.00000  Uiso   1.00
O595   O     0.13148   0.31324   0.84573   0.00000  Uiso   1.00
O596   O     0.09008   0.04162   0.84293   0.00000  Uiso   1.00
O597   O     0.17930   0.08019   0.78213   0.00000  Uiso   1.00
O598   O     0.14632   0.26085   0.77013   0.00000  Uiso   1.00
O599   O     0.07412   0.13291   0.73413   0.00000  Uiso   1.00
O600   O     0.26693   0.19272   0.71360   0.00000  Uiso   1.00
O601   O     0.07071   0.18878   0.78213   0.00000  Uiso   1.00
O602   O     0.25491   0.15226   0.77013   0.00000  Uiso   1.00
O603   O     0.13760   0.06944   0.73413   0.00000  Uiso   1.00
O604   O     0.20345   0.25620   0.71360   0.00000  Uiso   1.00
S605   S     0.31214   0.13122   0.81461   0.00000  Uiso   1.00
S606   S     0.11148   0.33233   0.81542   0.00000  Uiso   1.00
Zn607  Zn    0.19338   0.13994   0.78734   0.00000  Uiso   1.00
Zn608  Zn    0.13379   0.12458   0.71875   0.00000  Uiso   1.00
Zn609  Zn    0.21056   0.19775   0.70657   0.00000  Uiso   1.00
Zn610  Zn    0.12893   0.20439   0.78734   0.00000  Uiso   1.00
C611   C     0.38652   0.16030   0.75940   0.00000  Uiso   1.00
C612   C     0.51412   0.16673   0.55698   0.00000  Uiso   1.00
C613   C     0.53123   0.09822   0.56328   0.00000  Uiso   1.00
C614   C     0.61381   0.17354   0.74060   0.00000  Uiso   1.00
C615   C     0.47696   0.19454   0.91946   0.00000  Uiso   1.00
C616   C     0.65908   0.17464   0.73766   0.00000  Uiso   1.00
C617   C     0.34135   0.15668   0.76633   0.00000  Uiso   1.00
C618   C     0.51094   0.32197   0.73757   0.00000  Uiso   1.00
C619   C     0.48420   0.01310   0.76640   0.00000  Uiso   1.00
C620   C     0.49026   0.05613   0.75967   0.00000  Uiso   1.00
C621   C     0.50941   0.27778   0.74068   0.00000  Uiso   1.00
C622   C     0.47230   0.24866   0.98035   0.00000  Uiso   1.00
C623   C     0.51847   0.14787   0.62957   0.00000  Uiso   1.00
C624   C     0.48151   0.18427   0.87103   0.00000  Uiso   1.00
C625   C     0.52578   0.08507   0.52068   0.00000  Uiso   1.00
C626   C     0.52462   0.13857   0.58161   0.00000  Uiso   1.00
C627   C     0.46878   0.23492   0.93729   0.00000  Uiso   1.00
C628   C     0.48510   0.22285   0.50591   0.00000  Uiso   1.00
C629   C     0.49282   0.18147   0.98955   0.00000  Uiso   1.00
C630   C     0.48615   0.16670   0.94665   0.00000  Uiso   1.00
C631   C     0.50670   0.15421   0.51433   0.00000  Uiso   1.00
C632   C     0.51217   0.11239   0.99645   0.00000  Uiso   1.00
C633   C     0.50204   0.09808   0.95584   0.00000  Uiso   1.00
C634   C     0.48831   0.12439   0.93202   0.00000  Uiso   1.00
Cl635  Cl    0.53393   0.03323   0.50044   0.00000  Uiso   1.00
H636   H     0.53879   0.07635   0.58307   0.00000  Uiso   1.00
H637   H     0.35957   0.09460   0.82312   0.00000  Uiso   1.00
H638   H     0.40251   0.03163   0.86995   0.00000  Uiso   1.00
H639   H     0.53503   0.00210   0.71008   0.00000  Uiso   1.00
H640   H     0.50381   0.06609   0.94233   0.00000  Uiso   1.00
H641   H     0.50913   0.19718   0.57351   0.00000  Uiso   1.00
H642   H     0.46137   0.25659   0.91721   0.00000  Uiso   1.00
H643   H     0.48830   0.23638   0.53837   0.00000  Uiso   1.00
H644   H     0.46646   0.28012   0.99352   0.00000  Uiso   1.00
H645   H     0.47853   0.11064   0.90231   0.00000  Uiso   1.00
H646   H     0.34772   0.19059   0.71047   0.00000  Uiso   1.00
O647   O     0.50000   0.16667   0.75000   0.00000  Uiso   1.00
O648   O     0.48784   0.12637   0.65458   0.00000  Uiso   1.00
O649   O     0.46274   0.20391   0.84968   0.00000  Uiso   1.00
O650   O     0.54157   0.17759   0.64606   0.00000  Uiso   1.00
O651   O     0.50785   0.15880   0.84968   0.00000  Uiso   1.00
O652   O     0.61640   0.15979   0.84573   0.00000  Uiso   1.00
O653   O     0.61933   0.09256   0.80114   0.00000  Uiso   1.00
O654   O     0.34594   0.11801   0.84213   0.00000  Uiso   1.00
O655   O     0.41005   0.30194   0.80267   0.00000  Uiso   1.00
O656   O     0.46481   0.31324   0.84573   0.00000  Uiso   1.00
O657   O     0.42341   0.04162   0.84293   0.00000  Uiso   1.00
O658   O     0.51264   0.08019   0.78213   0.00000  Uiso   1.00
O659   O     0.47965   0.26085   0.77013   0.00000  Uiso   1.00
O660   O     0.40745   0.13291   0.73413   0.00000  Uiso   1.00
O661   O     0.60026   0.19272   0.71360   0.00000  Uiso   1.00
O662   O     0.40405   0.18878   0.78213   0.00000  Uiso   1.00
O663   O     0.58824   0.15226   0.77013   0.00000  Uiso   1.00
O664   O     0.47093   0.06944   0.73413   0.00000  Uiso   1.00
O665   O     0.53678   0.25620   0.71360   0.00000  Uiso   1.00
S666   S     0.64547   0.13122   0.81461   0.00000  Uiso   1.00
S667   S     0.44482   0.33233   0.81542   0.00000  Uiso   1.00
Zn668  Zn    0.52672   0.13994   0.78734   0.00000  Uiso   1.00
Zn669  Zn    0.46713   0.12458   0.71875   0.00000  Uiso   1.00
Zn670  Zn    0.54389   0.19775   0.70657   0.00000  Uiso   1.00
Zn671  Zn    0.46226   0.20439   0.78734   0.00000  Uiso   1.00
C672   C     0.71985   0.16030   0.75940   0.00000  Uiso   1.00
C673   C     0.84745   0.16673   0.55698   0.00000  Uiso   1.00
C674   C     0.86456   0.09822   0.56328   0.00000  Uiso   1.00
C675   C     0.94715   0.17354   0.74060   0.00000  Uiso   1.00
C676   C     0.81029   0.19454   0.91946   0.00000  Uiso   1.00
C677   C     0.99241   0.17464   0.73766   0.00000  Uiso   1.00
C678   C     0.67469   0.15668   0.76633   0.00000  Uiso   1.00
C679   C     0.84427   0.32197   0.73757   0.00000  Uiso   1.00
C680   C     0.81753   0.01310   0.76640   0.00000  Uiso   1.00
C681   C     0.82360   0.05613   0.75967   0.00000  Uiso   1.00
C682   C     0.84274   0.27778   0.74068   0.00000  Uiso   1.00
C683   C     0.80564   0.24866   0.98035   0.00000  Uiso   1.00
C684   C     0.85180   0.14787   0.62957   0.00000  Uiso   1.00
C685   C     0.81484   0.18427   0.87103   0.00000  Uiso   1.00
C686   C     0.85912   0.08507   0.52068   0.00000  Uiso   1.00
C687   C     0.85795   0.13857   0.58161   0.00000  Uiso   1.00
C688   C     0.80212   0.23492   0.93729   0.00000  Uiso   1.00
C689   C     0.81843   0.22285   0.50591   0.00000  Uiso   1.00
C690   C     0.82616   0.18147   0.98955   0.00000  Uiso   1.00
C691   C     0.81948   0.16670   0.94665   0.00000  Uiso   1.00
C692   C     0.84003   0.15421   0.51433   0.00000  Uiso   1.00
C693   C     0.84550   0.11239   0.99645   0.00000  Uiso   1.00
C694   C     0.83537   0.09808   0.95584   0.00000  Uiso   1.00
C695   C     0.82164   0.12439   0.93202   0.00000  Uiso   1.00
Cl696  Cl    0.86726   0.03323   0.50044   0.00000  Uiso   1.00
H697   H     0.87213   0.07635   0.58307   0.00000  Uiso   1.00
H698   H     0.69290   0.09460   0.82312   0.00000  Uiso   1.00
H699   H     0.73584   0.03163   0.86995   0.00000  Uiso   1.00
H700   H     0.86836   0.00210   0.71008   0.00000  Uiso   1.00
H701   H     0.83714   0.06609   0.94233   0.00000  Uiso   1.00
H702   H     0.84246   0.19718   0.57351   0.00000  Uiso   1.00
H703   H     0.79470   0.25659   0.91721   0.00000  Uiso   1.00
H704   H     0.82163   0.23638   0.53837   0.00000  Uiso   1.00
H705   H     0.79979   0.28012   0.99352   0.00000  Uiso   1.00
H706   H     0.81187   0.11064   0.90231   0.00000  Uiso   1.00
H707   H     0.68105   0.19059   0.71047   0.00000  Uiso   1.00
O708   O     0.83333   0.16667   0.75000   0.00000  Uiso   1.00
O709   O     0.82118   0.12637   0.65458   0.00000  Uiso   1.00
O710   O     0.79607   0.20391   0.84968   0.00000  Uiso   1.00
O711   O     0.87491   0.17759   0.64606   0.00000  Uiso   1.00
O712   O     0.84118   0.15880   0.84968   0.00000  Uiso   1.00
O713   O     0.94974   0.15979   0.84573   0.00000  Uiso   1.00
O714   O     0.95266   0.09256   0.80114   0.00000  Uiso   1.00
O715   O     0.67927   0.11801   0.84213   0.00000  Uiso   1.00
O716   O     0.74339   0.30194   0.80267   0.00000  Uiso   1.00
O717   O     0.79814   0.31324   0.84573   0.00000  Uiso   1.00
O718   O     0.75674   0.04162   0.84293   0.00000  Uiso   1.00
O719   O     0.84597   0.08019   0.78213   0.00000  Uiso   1.00
O720   O     0.81298   0.26085   0.77013   0.00000  Uiso   1.00
O721   O     0.74078   0.13291   0.73413   0.00000  Uiso   1.00
O722   O     0.93360   0.19272   0.71360   0.00000  Uiso   1.00
O723   O     0.73738   0.18878   0.78213   0.00000  Uiso   1.00
O724   O     0.92158   0.15226   0.77013   0.00000  Uiso   1.00
O725   O     0.80426   0.06944   0.73413   0.00000  Uiso   1.00
O726   O     0.87012   0.25620   0.71360   0.00000  Uiso   1.00
S727   S     0.97880   0.13122   0.81461   0.00000  Uiso   1.00
S728   S     0.77815   0.33233   0.81542   0.00000  Uiso   1.00
Zn729  Zn    0.86005   0.13994   0.78734   0.00000  Uiso   1.00
Zn730  Zn    0.80046   0.12458   0.71875   0.00000  Uiso   1.00
Zn731  Zn    0.87723   0.19775   0.70657   0.00000  Uiso   1.00
Zn732  Zn    0.79560   0.20439   0.78734   0.00000  Uiso   1.00
C733   C     0.05319   0.49363   0.75940   0.00000  Uiso   1.00
C734   C     0.18078   0.50006   0.55698   0.00000  Uiso   1.00
C735   C     0.19789   0.43156   0.56328   0.00000  Uiso   1.00
C736   C     0.28048   0.50687   0.74060   0.00000  Uiso   1.00
C737   C     0.14363   0.52787   0.91946   0.00000  Uiso   1.00
C738   C     0.32575   0.50797   0.73766   0.00000  Uiso   1.00
C739   C     0.00802   0.49001   0.76633   0.00000  Uiso   1.00
C740   C     0.17761   0.65531   0.73757   0.00000  Uiso   1.00
C741   C     0.15086   0.34643   0.76640   0.00000  Uiso   1.00
C742   C     0.15693   0.38947   0.75967   0.00000  Uiso   1.00
C743   C     0.17607   0.61112   0.74068   0.00000  Uiso   1.00
C744   C     0.13897   0.58200   0.98035   0.00000  Uiso   1.00
C745   C     0.18514   0.48120   0.62957   0.00000  Uiso   1.00
C746   C     0.14818   0.51760   0.87103   0.00000  Uiso   1.00
C747   C     0.19245   0.41840   0.52068   0.00000  Uiso   1.00
C748   C     0.19128   0.47190   0.58161   0.00000  Uiso   1.00
C749   C     0.13545   0.56825   0.93729   0.00000  Uiso   1.00
C750   C     0.15177   0.55619   0.50591   0.00000  Uiso   1.00
C751   C     0.15949   0.51480   0.98955   0.00000  Uiso   1.00
C752   C     0.15282   0.50003   0.94665   0.00000  Uiso   1.00
C753   C     0.17337   0.48754   0.51433   0.00000  Uiso   1.00
C754   C     0.17884   0.44572   0.99645   0.00000  Uiso   1.00
C755   C     0.16871   0.43141   0.95584   0.00000  Uiso   1.00
C756   C     0.15498   0.45772   0.93202   0.00000  Uiso   1.00
Cl757  Cl    0.20060   0.36656   0.50044   0.00000  Uiso   1.00
H758   H     0.20546   0.40968   0.58307   0.00000  Uiso   1.00
H759   H     0.02623   0.42793   0.82312   0.00000  Uiso   1.00
H760   H     0.06918   0.36496   0.86995   0.00000  Uiso   1.00
H761   H     0.20169   0.33543   0.71008   0.00000  Uiso   1.00
H762   H     0.17048   0.39942   0.94233   0.00000  Uiso   1.00
H763   H     0.17579   0.53051   0.57351   0.00000  Uiso   1.00
H764   H     0.12803   0.58993   0.91721   0.00000  Uiso   1.00
H765   H     0.15497   0.56972   0.53837   0.00000  Uiso   1.00
H766   H     0.13312   0.61345   0.99352   0.00000  Uiso   1.00
H767   H     0.14520   0.44397   0.90231   0.00000  Uiso   1.00
H768   H     0.01438   0.52393   0.71047   0.00000  Uiso   1.00
O769   O     0.16667   0.50000   0.75000   0.00000  Uiso   1.00
O770   O     0.15451   0.45970   0.65458   0.00000  Uiso   1.00
O771   O     0.12940   0.53724   0.84968   0.00000  Uiso   1.00
O772   O     0.20824   0.51092   0.64606   0.00000  Uiso   1.00
O773   O     0.17451   0.49213   0.84968   0.00000  Uiso   1.00
O774   O     0.28307   0.49312   0.84573   0.00000  Uiso   1.00
O775   O     0.28600   0.42589   0.80114   0.00000  Uiso   1.00
O776   O     0.01260   0.45134   0.84213   0.00000  Uiso   1.00
O777   O     0.07672   0.63527   0.80267   0.00000  Uiso   1.00
O778   O     0.13148   0.64657   0.84573   0.00000  Uiso   1.00
O779   O     0.09008   0.37495   0.84293   0.00000  Uiso   1.00
O780   O     0.17930   0.41352   0.78213   0.00000  Uiso   1.00
O781   O     0.14632   0.59418   0.77013   0.00000  Uiso   1.00
O782   O     0.07412   0.46625   0.73413   0.00000  Uiso   1.00
O783   O     0.26693   0.52605   0.71360   0.00000  Uiso   1.00
O784   O     0.07071   0.52211   0.78213   0.00000  Uiso   1.00
O785   O     0.25491   0.48559   0.77013   0.00000  Uiso   1.00
O786   O     0.13760   0.40277   0.73413   0.00000  Uiso   1.00
O787   O     0.20345   0.58953   0.71360   0.00000  Uiso   1.00
S788   S     0.31214   0.46456   0.81461   0.00000  Uiso   1.00
S789   S     0.11148   0.66567   0.81542   0.00000  Uiso   1.00
Zn790  Zn    0.19338   0.47327   0.78734   0.00000  Uiso   1.00
Zn791  Zn    0.13379   0.45791   0.71875   0.00000  Uiso   1.00
Zn792  Zn    0.21056   0.53109   0.70657   0.00000  Uiso   1.00
Zn793  Zn    0.12893   0.53773   0.78734   0.00000  Uiso   1.00
C794   C     0.38652   0.49363   0.75940   0.00000  Uiso   1.00
C795   C     0.51412   0.50006   0.55698   0.00000  Uiso   1.00
C796   C     0.53123   0.43156   0.56328   0.00000  Uiso   1.00
C797   C     0.61381   0.50687   0.74060   0.00000  Uiso   1.00
C798   C     0.47696   0.52787   0.91946   0.00000  Uiso   1.00
C799   C     0.65908   0.50797   0.73766   0.00000  Uiso   1.00
C800   C     0.34135   0.49001   0.76633   0.00000  Uiso   1.00
C801   C     0.51094   0.65531   0.73757   0.00000  Uiso   1.00
C802   C     0.48420   0.34643   0.76640   0.00000  Uiso   1.00
C803   C     0.49026   0.38947   0.75967   0.00000  Uiso   1.00
C804   C     0.50941   0.61112   0.74068   0.00000  Uiso   1.00
C805   C     0.47230   0.58200   0.98035   0.00000  Uiso   1.00
C806   C     0.51847   0.48120   0.62957   0.00000  Uiso   1.00
C807   C     0.48151   0.51760   0.87103   0.00000  Uiso   1.00
C808   C     0.52578   0.41840   0.52068   0.00000  Uiso   1.00
C809   C     0.52462   0.47190   0.58161   0.00000  Uiso   1.00
C810   C     0.46878   0.56825   0.93729   0.00000  Uiso   1.00
C811   C     0.48510   0.55619   0.50591   0.00000  Uiso   1.00
C812   C     0.49282   0.51480   0.98955   0.00000  Uiso   1.00
C813   C     0.48615   0.50003   0.94665   0.00000  Uiso   1.00
C814   C     0.50670   0.48754   0.51433   0.00000  Uiso   1.00
C815   C     0.51217   0.44572   0.99645   0.00000  Uiso   1.00
C816   C     0.50204   0.43141   0.95584   0.00000  Uiso   1.00
C817   C     0.48831   0.45772   0.93202   0.00000  Uiso   1.00
Cl818  Cl    0.53393   0.36656   0.50044   0.00000  Uiso   1.00
H819   H     0.53879   0.40968   0.58307   0.00000  Uiso   1.00
H820   H     0.35957   0.42793   0.82312   0.00000  Uiso   1.00
H821   H     0.40251   0.36496   0.86995   0.00000  Uiso   1.00
H822   H     0.53503   0.33543   0.71008   0.00000  Uiso   1.00
H823   H     0.50381   0.39942   0.94233   0.00000  Uiso   1.00
H824   H     0.50913   0.53051   0.57351   0.00000  Uiso   1.00
H825   H     0.46137   0.58993   0.91721   0.00000  Uiso   1.00
H826   H     0.48830   0.56972   0.53837   0.00000  Uiso   1.00
H827   H     0.46646   0.61345   0.99352   0.00000  Uiso   1.00
H828   H     0.47853   0.44397   0.90231   0.00000  Uiso   1.00
H829   H     0.34772   0.52393   0.71047   0.00000  Uiso   1.00
O830   O     0.50000   0.50000   0.75000   0.00000  Uiso   1.00
O831   O     0.48784   0.45970   0.65458   0.00000  Uiso   1.00
O832   O     0.46274   0.53724   0.84968   0.00000  Uiso   1.00
O833   O     0.54157   0.51092   0.64606   0.00000  Uiso   1.00
O834   O     0.50785   0.49213   0.84968   0.00000  Uiso   1.00
O835   O     0.61640   0.49312   0.84573   0.00000  Uiso   1.00
O836   O     0.61933   0.42589   0.80114   0.00000  Uiso   1.00
O837   O     0.34594   0.45134   0.84213   0.00000  Uiso   1.00
O838   O     0.41005   0.63527   0.80267   0.00000  Uiso   1.00
O839   O     0.46481   0.64657   0.84573   0.00000  Uiso   1.00
O840   O     0.42341   0.37495   0.84293   0.00000  Uiso   1.00
O841   O     0.51264   0.41352   0.78213   0.00000  Uiso   1.00
O842   O     0.47965   0.59418   0.77013   0.00000  Uiso   1.00
O843   O     0.40745   0.46625   0.73413   0.00000  Uiso   1.00
O844   O     0.60026   0.52605   0.71360   0.00000  Uiso   1.00
O845   O     0.40405   0.52211   0.78213   0.00000  Uiso   1.00
O846   O     0.58824   0.48559   0.77013   0.00000  Uiso   1.00
O847   O     0.47093   0.40277   0.73413   0.00000  Uiso   1.00
O848   O     0.53678   0.58953   0.71360   0.00000  Uiso   1.00
S849   S     0.64547   0.46456   0.81461   0.00000  Uiso   1.00
S850   S     0.44482   0.66567   0.81542   0.00000  Uiso   1.00
Zn851  Zn    0.52672   0.47327   0.78734   0.00000  Uiso   1.00
Zn852  Zn    0.46713   0.45791   0.71875   0.00000  Uiso   1.00
Zn853  Zn    0.54389   0.53109   0.70657   0.00000  Uiso   1.00
Zn854  Zn    0.46226   0.53773   0.78734   0.00000  Uiso   1.00
C855   C     0.71985   0.49363   0.75940   0.00000  Uiso   1.00
C856   C     0.84745   0.50006   0.55698   0.00000  Uiso   1.00
C857   C     0.86456   0.43156   0.56328   0.00000  Uiso   1.00
C858   C     0.94715   0.50687   0.74060   0.00000  Uiso   1.00
C859   C     0.81029   0.52787   0.91946   0.00000  Uiso   1.00
C860   C     0.99241   0.50797   0.73766   0.00000  Uiso   1.00
C861   C     0.67469   0.49001   0.76633   0.00000  Uiso   1.00
C862   C     0.84427   0.65531   0.73757   0.00000  Uiso   1.00
C863   C     0.81753   0.34643   0.76640   0.00000  Uiso   1.00
C864   C     0.82360   0.38947   0.75967   0.00000  Uiso   1.00
C865   C     0.84274   0.61112   0.74068   0.00000  Uiso   1.00
C866   C     0.80564   0.58200   0.98035   0.00000  Uiso   1.00
C867   C     0.85180   0.48120   0.62957   0.00000  Uiso   1.00
C868   C     0.81484   0.51760   0.87103   0.00000  Uiso   1.00
C869   C     0.85912   0.41840   0.52068   0.00000  Uiso   1.00
C870   C     0.85795   0.47190   0.58161   0.00000  Uiso   1.00
C871   C     0.80212   0.56825   0.93729   0.00000  Uiso   1.00
C872   C     0.81843   0.55619   0.50591   0.00000  Uiso   1.00
C873   C     0.82616   0.51480   0.98955   0.00000  Uiso   1.00
C874   C     0.81948   0.50003   0.94665   0.00000  Uiso   1.00
C875   C     0.84003   0.48754   0.51433   0.00000  Uiso   1.00
C876   C     0.84550   0.44572   0.99645   0.00000  Uiso   1.00
C877   C     0.83537   0.43141   0.95584   0.00000  Uiso   1.00
C878   C     0.82164   0.45772   0.93202   0.00000  Uiso   1.00
Cl879  Cl    0.86726   0.36656   0.50044   0.00000  Uiso   1.00
H880   H     0.87213   0.40968   0.58307   0.00000  Uiso   1.00
H881   H     0.69290   0.42793   0.82312   0.00000  Uiso   1.00
H882   H     0.73584   0.36496   0.86995   0.00000  Uiso   1.00
H883   H     0.86836   0.33543   0.71008   0.00000  Uiso   1.00
H884   H     0.83714   0.39942   0.94233   0.00000  Uiso   1.00
H885   H     0.84246   0.53051   0.57351   0.00000  Uiso   1.00
H886   H     0.79470   0.58993   0.91721   0.00000  Uiso   1.00
H887   H     0.82163   0.56972   0.53837   0.00000  Uiso   1.00
H888   H     0.79979   0.61345   0.99352   0.00000  Uiso   1.00
H889   H     0.81187   0.44397   0.90231   0.00000  Uiso   1.00
H890   H     0.68105   0.52393   0.71047   0.00000  Uiso   1.00
O891   O     0.83333   0.50000   0.75000   0.00000  Uiso   1.00
O892   O     0.82118   0.45970   0.65458   0.00000  Uiso   1.00
O893   O     0.79607   0.53724   0.84968   0.00000  Uiso   1.00
O894   O     0.87491   0.51092   0.64606   0.00000  Uiso   1.00
O895   O     0.84118   0.49213   0.84968   0.00000  Uiso   1.00
O896   O     0.94974   0.49312   0.84573   0.00000  Uiso   1.00
O897   O     0.95266   0.42589   0.80114   0.00000  Uiso   1.00
O898   O     0.67927   0.45134   0.84213   0.00000  Uiso   1.00
O899   O     0.74339   0.63527   0.80267   0.00000  Uiso   1.00
O900   O     0.79814   0.64657   0.84573   0.00000  Uiso   1.00
O901   O     0.75674   0.37495   0.84293   0.00000  Uiso   1.00
O902   O     0.84597   0.41352   0.78213   0.00000  Uiso   1.00
O903   O     0.81298   0.59418   0.77013   0.00000  Uiso   1.00
O904   O     0.74078   0.46625   0.73413   0.00000  Uiso   1.00
O905   O     0.93360   0.52605   0.71360   0.00000  Uiso   1.00
O906   O     0.73738   0.52211   0.78213   0.00000  Uiso   1.00
O907   O     0.92158   0.48559   0.77013   0.00000  Uiso   1.00
O908   O     0.80426   0.40277   0.73413   0.00000  Uiso   1.00
O909   O     0.87012   0.58953   0.71360   0.00000  Uiso   1.00
S910   S     0.97880   0.46456   0.81461   0.00000  Uiso   1.00
S911   S     0.77815   0.66567   0.81542   0.00000  Uiso   1.00
Zn912  Zn    0.86005   0.47327   0.78734   0.00000  Uiso   1.00
Zn913  Zn    0.80046   0.45791   0.71875   0.00000  Uiso   1.00
Zn914  Zn    0.87723   0.53109   0.70657   0.00000  Uiso   1.00
Zn915  Zn    0.79560   0.53773   0.78734   0.00000  Uiso   1.00
C916   C     0.05319   0.82696   0.75940   0.00000  Uiso   1.00
C917   C     0.18078   0.83340   0.55698   0.00000  Uiso   1.00
C918   C     0.19789   0.76489   0.56328   0.00000  Uiso   1.00
C919   C     0.28048   0.84020   0.74060   0.00000  Uiso   1.00
C920   C     0.14363   0.86120   0.91946   0.00000  Uiso   1.00
C921   C     0.32575   0.84131   0.73766   0.00000  Uiso   1.00
C922   C     0.00802   0.82334   0.76633   0.00000  Uiso   1.00
C923   C     0.17761   0.98864   0.73757   0.00000  Uiso   1.00
C924   C     0.15086   0.67977   0.76640   0.00000  Uiso   1.00
C925   C     0.15693   0.72280   0.75967   0.00000  Uiso   1.00
C926   C     0.17607   0.94445   0.74068   0.00000  Uiso   1.00
C927   C     0.13897   0.91533   0.98035   0.00000  Uiso   1.00
C928   C     0.18514   0.81453   0.62957   0.00000  Uiso   1.00
C929   C     0.14818   0.85093   0.87103   0.00000  Uiso   1.00
C930   C     0.19245   0.75173   0.52068   0.00000  Uiso   1.00
C931   C     0.19128   0.80523   0.58161   0.00000  Uiso   1.00
C932   C     0.13545   0.90159   0.93729   0.00000  Uiso   1.00
C933   C     0.15177   0.88952   0.50591   0.00000  Uiso   1.00
C934   C     0.15949   0.84814   0.98955   0.00000  Uiso   1.00
C935   C     0.15282   0.83336   0.94665   0.00000  Uiso   1.00
C936   C     0.17337   0.82087   0.51433   0.00000  Uiso   1.00
C937   C     0.17884   0.77905   0.99645   0.00000  Uiso   1.00
C938   C     0.16871   0.76474   0.95584   0.00000  Uiso   1.00
C939   C     0.15498   0.79106   0.93202   0.00000  Uiso   1.00
Cl940  Cl    0.20060   0.69989   0.50044   0.00000  Uiso   1.00
H941   H     0.20546   0.74302   0.58307   0.00000  Uiso   1.00
H942   H     0.02623   0.76127   0.82312   0.00000  Uiso   1.00
H943   H     0.06918   0.69830   0.86995   0.00000  Uiso   1.00
H944   H     0.20169   0.66877   0.71008   0.00000  Uiso   1.00
H945   H     0.17048   0.73275   0.94233   0.00000  Uiso   1.00
H946   H     0.17579   0.86385   0.57351   0.00000  Uiso   1.00
H947   H     0.12803   0.92326   0.91721   0.00000  Uiso   1.00
H948   H     0.15497   0.90305   0.53837   0.00000  Uiso   1.00
H949   H     0.13312   0.94679   0.99352   0.00000  Uiso   1.00
H950   H     0.14520   0.77731   0.90231   0.00000  Uiso   1.00
H951   H     0.01438   0.85726   0.71047   0.00000  Uiso   1.00
O952   O     0.16667   0.83333   0.75000   0.00000  Uiso   1.00
O953   O     0.15451   0.79304   0.65458   0.00000  Uiso   1.00
O954   O     0.12940   0.87058   0.84968   0.00000  Uiso   1.00
O955   O     0.20824   0.84425   0.64606   0.00000  Uiso   1.00
O956   O     0.17451   0.82546   0.84968   0.00000  Uiso   1.00
O957   O     0.28307   0.82646   0.84573   0.00000  Uiso   1.00
O958   O     0.28600   0.75923   0.80114   0.00000  Uiso   1.00
O959   O     0.01260   0.78467   0.84213   0.00000  Uiso   1.00
O960   O     0.07672   0.96860   0.80267   0.00000  Uiso   1.00
O961   O     0.13148   0.97991   0.84573   0.00000  Uiso   1.00
O962   O     0.09008   0.70828   0.84293   0.00000  Uiso   1.00
O963   O     0.17930   0.74686   0.78213   0.00000  Uiso   1.00
O964   O     0.14632   0.92751   0.77013   0.00000  Uiso   1.00
O965   O     0.07412   0.79958   0.73413   0.00000  Uiso   1.00
O966   O     0.26693   0.85939   0.71360   0.00000  Uiso   1.00
O967   O     0.07071   0.85544   0.78213   0.00000  Uiso   1.00
O968   O     0.25491   0.81892   0.77013   0.00000  Uiso   1.00
O969   O     0.13760   0.73610   0.73413   0.00000  Uiso   1.00
O970   O     0.20345   0.92286   0.71360   0.00000  Uiso   1.00
S971   S     0.31214   0.79789   0.81461   0.00000  Uiso   1.00
S972   S     0.11148   0.99900   0.81542   0.00000  Uiso   1.00
Zn973  Zn    0.19338   0.80661   0.78734   0.00000  Uiso   1.00
Zn974  Zn    0.13379   0.79124   0.71875   0.00000  Uiso   1.00
Zn975  Zn    0.21056   0.86442   0.70657   0.00000  Uiso   1.00
Zn976  Zn    0.12893   0.87106   0.78734   0.00000  Uiso   1.00
C977   C     0.38652   0.82696   0.75940   0.00000  Uiso   1.00
C978   C     0.51412   0.83340   0.55698   0.00000  Uiso   1.00
C979   C     0.53123   0.76489   0.56328   0.00000  Uiso   1.00
C980   C     0.61381   0.84020   0.74060   0.00000  Uiso   1.00
C981   C     0.47696   0.86120   0.91946   0.00000  Uiso   1.00
C982   C     0.65908   0.84131   0.73766   0.00000  Uiso   1.00
C983   C     0.34135   0.82334   0.76633   0.00000  Uiso   1.00
C984   C     0.51094   0.98864   0.73757   0.00000  Uiso   1.00
C985   C     0.48420   0.67977   0.76640   0.00000  Uiso   1.00
C986   C     0.49026   0.72280   0.75967   0.00000  Uiso   1.00
C987   C     0.50941   0.94445   0.74068   0.00000  Uiso   1.00
C988   C     0.47230   0.91533   0.98035   0.00000  Uiso   1.00
C989   C     0.51847   0.81453   0.62957   0.00000  Uiso   1.00
C990   C     0.48151   0.85093   0.87103   0.00000  Uiso   1.00
C991   C     0.52578   0.75173   0.52068   0.00000  Uiso   1.00
C992   C     0.52462   0.80523   0.58161   0.00000  Uiso   1.00
C993   C     0.46878   0.90159   0.93729   0.00000  Uiso   1.00
C994   C     0.48510   0.88952   0.50591   0.00000  Uiso   1.00
C995   C     0.49282   0.84814   0.98955   0.00000  Uiso   1.00
C996   C     0.48615   0.83336   0.94665   0.00000  Uiso   1.00
C997   C     0.50670   0.82087   0.51433   0.00000  Uiso   1.00
C998   C     0.51217   0.77905   0.99645   0.00000  Uiso   1.00
C999   C     0.50204   0.76474   0.95584   0.00000  Uiso   1.00
C1000  C     0.48831   0.79106   0.93202   0.00000  Uiso   1.00
Cl1001 Cl    0.53393   0.69989   0.50044   0.00000  Uiso   1.00
H1002  H     0.53879   0.74302   0.58307   0.00000  Uiso   1.00
H1003  H     0.35957   0.76127   0.82312   0.00000  Uiso   1.00
H1004  H     0.40251   0.69830   0.86995   0.00000  Uiso   1.00
H1005  H     0.53503   0.66877   0.71008   0.00000  Uiso   1.00
H1006  H     0.50381   0.73275   0.94233   0.00000  Uiso   1.00
H1007  H     0.50913   0.86385   0.57351   0.00000  Uiso   1.00
H1008  H     0.46137   0.92326   0.91721   0.00000  Uiso   1.00
H1009  H     0.48830   0.90305   0.53837   0.00000  Uiso   1.00
H1010  H     0.46646   0.94679   0.99352   0.00000  Uiso   1.00
H1011  H     0.47853   0.77731   0.90231   0.00000  Uiso   1.00
H1012  H     0.34772   0.85726   0.71047   0.00000  Uiso   1.00
O1013  O     0.50000   0.83333   0.75000   0.00000  Uiso   1.00
O1014  O     0.48784   0.79304   0.65458   0.00000  Uiso   1.00
O1015  O     0.46274   0.87058   0.84968   0.00000  Uiso   1.00
O1016  O     0.54157   0.84425   0.64606   0.00000  Uiso   1.00
O1017  O     0.50785   0.82546   0.84968   0.00000  Uiso   1.00
O1018  O     0.61640   0.82646   0.84573   0.00000  Uiso   1.00
O1019  O     0.61933   0.75923   0.80114   0.00000  Uiso   1.00
O1020  O     0.34594   0.78467   0.84213   0.00000  Uiso   1.00
O1021  O     0.41005   0.96860   0.80267   0.00000  Uiso   1.00
O1022  O     0.46481   0.97991   0.84573   0.00000  Uiso   1.00
O1023  O     0.42341   0.70828   0.84293   0.00000  Uiso   1.00
O1024  O     0.51264   0.74686   0.78213   0.00000  Uiso   1.00
O1025  O     0.47965   0.92751   0.77013   0.00000  Uiso   1.00
O1026  O     0.40745   0.79958   0.73413   0.00000  Uiso   1.00
O1027  O     0.60026   0.85939   0.71360   0.00000  Uiso   1.00
O1028  O     0.40405   0.85544   0.78213   0.00000  Uiso   1.00
O1029  O     0.58824   0.81892   0.77013   0.00000  Uiso   1.00
O1030  O     0.47093   0.73610   0.73413   0.00000  Uiso   1.00
O1031  O     0.53678   0.92286   0.71360   0.00000  Uiso   1.00
S1032  S     0.64547   0.79789   0.81461   0.00000  Uiso   1.00
S1033  S     0.44482   0.99900   0.81542   0.00000  Uiso   1.00
Zn1034 Zn    0.52672   0.80661   0.78734   0.00000  Uiso   1.00
Zn1035 Zn    0.46713   0.79124   0.71875   0.00000  Uiso   1.00
Zn1036 Zn    0.54389   0.86442   0.70657   0.00000  Uiso   1.00
Zn1037 Zn    0.46226   0.87106   0.78734   0.00000  Uiso   1.00
C1038  C     0.71985   0.82696   0.75940   0.00000  Uiso   1.00
C1039  C     0.84745   0.83340   0.55698   0.00000  Uiso   1.00
C1040  C     0.86456   0.76489   0.56328   0.00000  Uiso   1.00
C1041  C     0.94715   0.84020   0.74060   0.00000  Uiso   1.00
C1042  C     0.81029   0.86120   0.91946   0.00000  Uiso   1.00
C1043  C     0.99241   0.84131   0.73766   0.00000  Uiso   1.00
C1044  C     0.67469   0.82334   0.76633   0.00000  Uiso   1.00
C1045  C     0.84427   0.98864   0.73757   0.00000  Uiso   1.00
C1046  C     0.81753   0.67977   0.76640   0.00000  Uiso   1.00
C1047  C     0.82360   0.72280   0.75967   0.00000  Uiso   1.00
C1048  C     0.84274   0.94445   0.74068   0.00000  Uiso   1.00
C1049  C     0.80564   0.91533   0.98035   0.00000  Uiso   1.00
C1050  C     0.85180   0.81453   0.62957   0.00000  Uiso   1.00
C1051  C     0.81484   0.85093   0.87103   0.00000  Uiso   1.00
C1052  C     0.85912   0.75173   0.52068   0.00000  Uiso   1.00
C1053  C     0.85795   0.80523   0.58161   0.00000  Uiso   1.00
C1054  C     0.80212   0.90159   0.93729   0.00000  Uiso   1.00
C1055  C     0.81843   0.88952   0.50591   0.00000  Uiso   1.00
C1056  C     0.82616   0.84814   0.98955   0.00000  Uiso   1.00
C1057  C     0.81948   0.83336   0.94665   0.00000  Uiso   1.00
C1058  C     0.84003   0.82087   0.51433   0.00000  Uiso   1.00
C1059  C     0.84550   0.77905   0.99645   0.00000  Uiso   1.00
C1060  C     0.83537   0.76474   0.95584   0.00000  Uiso   1.00
C1061  C     0.82164   0.79106   0.93202   0.00000  Uiso   1.00
Cl1062 Cl    0.86726   0.69989   0.50044   0.00000  Uiso   1.00
H1063  H     0.87213   0.74302   0.58307   0.00000  Uiso   1.00
H1064  H     0.69290   0.76127   0.82312   0.00000  Uiso   1.00
H1065  H     0.73584   0.69830   0.86995   0.00000  Uiso   1.00
H1066  H     0.86836   0.66877   0.71008   0.00000  Uiso   1.00
H1067  H     0.83714   0.73275   0.94233   0.00000  Uiso   1.00
H1068  H     0.84246   0.86385   0.57351   0.00000  Uiso   1.00
H1069  H     0.79470   0.92326   0.91721   0.00000  Uiso   1.00
H1070  H     0.82163   0.90305   0.53837   0.00000  Uiso   1.00
H1071  H     0.79979   0.94679   0.99352   0.00000  Uiso   1.00
H1072  H     0.81187   0.77731   0.90231   0.00000  Uiso   1.00
H1073  H     0.68105   0.85726   0.71047   0.00000  Uiso   1.00
O1074  O     0.83333   0.83333   0.75000   0.00000  Uiso   1.00
O1075  O     0.82118   0.79304   0.65458   0.00000  Uiso   1.00
O1076  O     0.79607   0.87058   0.84968   0.00000  Uiso   1.00
O1077  O     0.87491   0.84425   0.64606   0.00000  Uiso   1.00
O1078  O     0.84118   0.82546   0.84968   0.00000  Uiso   1.00
O1079  O     0.94974   0.82646   0.84573   0.00000  Uiso   1.00
O1080  O     0.95266   0.75923   0.80114   0.00000  Uiso   1.00
O1081  O     0.67927   0.78467   0.84213   0.00000  Uiso   1.00
O1082  O     0.74339   0.96860   0.80267   0.00000  Uiso   1.00
O1083  O     0.79814   0.97991   0.84573   0.00000  Uiso   1.00
O1084  O     0.75674   0.70828   0.84293   0.00000  Uiso   1.00
O1085  O     0.84597   0.74686   0.78213   0.00000  Uiso   1.00
O1086  O     0.81298   0.92751   0.77013   0.00000  Uiso   1.00
O1087  O     0.74078   0.79958   0.73413   0.00000  Uiso   1.00
O1088  O     0.93360   0.85939   0.71360   0.00000  Uiso   1.00
O1089  O     0.73738   0.85544   0.78213   0.00000  Uiso   1.00
O1090  O     0.92158   0.81892   0.77013   0.00000  Uiso   1.00
O1091  O     0.80426   0.73610   0.73413   0.00000  Uiso   1.00
O1092  O     0.87012   0.92286   0.71360   0.00000  Uiso   1.00
S1093  S     0.97880   0.79789   0.81461   0.00000  Uiso   1.00
S1094  S     0.77815   0.99900   0.81542   0.00000  Uiso   1.00
Zn1095 Zn    0.86005   0.80661   0.78734   0.00000  Uiso   1.00
Zn1096 Zn    0.80046   0.79124   0.71875   0.00000  Uiso   1.00
Zn1097 Zn    0.87723   0.86442   0.70657   0.00000  Uiso   1.00
Zn1098 Zn    0.79560   0.87106   0.78734   0.00000  Uiso   1.00
loop_
_geom_bond_atom_site_label_1
_geom_bond_atom_site_label_2
_geom_bond_distance
_geom_bond_site_symmetry_2
_ccdc_geom_bond_type
C1     O50     1.268   .     A
C1     O52     1.264   .     A
C1     C7      1.425   .     S
C2     C16     1.389   .     A
C2     C21     1.409   .     A
C2     H31     1.077   .     S
C3     C15     1.389   .     A
C3     H26     1.084   .     S
C3     C16     1.394   .     A
C4     O53     1.270   .     A
C4     O51     1.295   .     A
C4     C6      1.453   .     S
C5     C14     1.473   .     S
C5     C20     1.418   .     A
C5     C17     1.401   .     A
C6     C68     1.353   .     S
C6     H97     1.088   .     S
C7     C128    1.353   1_455 S
C7     S178    1.782   1_455 S
C8     C11     1.450   .     S
C8     C192    1.349   .     S
C8     H212    1.089   .     S
C9     C10     1.423   .     S
C9     C374    1.349   1_545 S
C9     S423    1.780   1_545 S
C10    O48     1.270   .     A
C10    O54     1.275   .     A
C11    O55     1.283   .     A
C11    O49     1.263   .     A
C12    C17     1.386   .     A
C12    H34     1.083   .     S
C12    C567    1.391   .     S
C13    O38     1.276   .     A
C13    C16     1.449   .     S
C13    O40     1.286   .     A
C14    O41     1.281   .     A
C14    O39     1.281   .     A
C15    Cl25    1.765   .     S
C15    C571    1.412   1_554 S
C17    H32     1.083   .     S
C18    H33     1.076   .     S
C18    C561    1.391   1_554 S
C18    C568    1.419   1_554 S
C19    C20     1.421   .     A
C19    C567    1.419   .     S
C19    C570    1.427   .     S
C20    C24     1.408   .     A
C21    C568    1.427   1_554 S
C21    C571    1.429   1_554 S
C22    C23     1.396   .     A
C22    C570    1.429   .     S
C22    C564    1.412   .     S
C23    C24     1.381   .     A
C23    H30     1.082   .     S
C24    H35     1.081   .     S
H27    O44     0.991   .     S
H28    O47     0.991   .     S
H29    C374    1.089   1_545 S
H36    C128    1.088   1_455 S
O37    Zn61    1.929   .     S
O37    Zn58    1.956   .     S
O37    Zn59    1.950   .     S
O37    Zn60    1.955   .     S
O38    Zn59    1.934   .     S
O39    Zn61    1.939   .     S
O40    Zn60    1.931   .     S
O41    Zn58    1.925   .     S
O42    S56     1.503   .     D
O43    S56     1.504   .     D
O44    S178    1.683   1_455 S
O45    S57     1.504   .     D
O46    S57     1.504   .     D
O47    S423    1.683   1_545 S
O48    Zn58    1.939   .     S
O49    Zn61    1.946   .     S
O50    Zn59    1.932   .     S
O51    Zn60    1.939   .     S
O52    Zn61    1.942   .     S
O53    Zn58    1.938   .     S
O54    Zn59    1.942   .     S
O55    Zn60    1.933   .     S
S56    O105    1.683   .     S
S56    C68     1.782   .     S
S57    O230    1.683   .     S
S57    C192    1.780   .     S
C62    O111    1.268   .     A
C62    O113    1.264   .     A
C62    C68     1.425   .     S
C63    C77     1.389   .     A
C63    C82     1.409   .     A
C63    H92     1.077   .     S
C64    C76     1.389   .     A
C64    H87     1.084   .     S
C64    C77     1.394   .     A
C65    O114    1.270   .     A
C65    O112    1.295   .     A
C65    C67     1.453   .     S
C66    C75     1.473   .     S
C66    C81     1.418   .     A
C66    C78     1.401   .     A
C67    C129    1.353   .     S
C67    H158    1.088   .     S
C69    C72     1.450   .     S
C69    C253    1.349   .     S
C69    H273    1.089   .     S
C70    C71     1.423   .     S
C70    C435    1.349   1_545 S
C70    S484    1.780   1_545 S
C71    O109    1.270   .     A
C71    O115    1.275   .     A
C72    O116    1.283   .     A
C72    O110    1.263   .     A
C73    C78     1.386   .     A
C73    H95     1.083   .     S
C73    C628    1.391   .     S
C74    O99     1.276   .     A
C74    C77     1.449   .     S
C74    O101    1.286   .     A
C75    O102    1.281   .     A
C75    O100    1.281   .     A
C76    Cl86    1.765   .     S
C76    C632    1.412   1_554 S
C78    H93     1.083   .     S
C79    H94     1.076   .     S
C79    C622    1.391   1_554 S
C79    C629    1.419   1_554 S
C80    C81     1.421   .     A
C80    C628    1.419   .     S
C80    C631    1.427   .     S
C81    C85     1.408   .     A
C82    C629    1.427   1_554 S
C82    C632    1.429   1_554 S
C83    C84     1.396   .     A
C83    C631    1.429   .     S
C83    C625    1.412   .     S
C84    C85     1.381   .     A
C84    H91     1.082   .     S
C85    H96     1.081   .     S
H88    O105    0.991   .     S
H89    O108    0.991   .     S
H90    C435    1.089   1_545 S
O98    Zn122   1.929   .     S
O98    Zn119   1.956   .     S
O98    Zn120   1.950   .     S
O98    Zn121   1.955   .     S
O99    Zn120   1.934   .     S
O100   Zn122   1.939   .     S
O101   Zn121   1.931   .     S
O102   Zn119   1.925   .     S
O103   S117    1.503   .     D
O104   S117    1.504   .     D
O106   S118    1.504   .     D
O107   S118    1.504   .     D
O108   S484    1.683   1_545 S
O109   Zn119   1.939   .     S
O110   Zn122   1.946   .     S
O111   Zn120   1.932   .     S
O112   Zn121   1.939   .     S
O113   Zn122   1.942   .     S
O114   Zn119   1.938   .     S
O115   Zn120   1.942   .     S
O116   Zn121   1.933   .     S
S117   O166    1.683   .     S
S117   C129    1.782   .     S
S118   O291    1.683   .     S
S118   C253    1.780   .     S
C123   O172    1.268   .     A
C123   O174    1.264   .     A
C123   C129    1.425   .     S
C124   C138    1.389   .     A
C124   C143    1.409   .     A
C124   H153    1.077   .     S
C125   C137    1.389   .     A
C125   H148    1.084   .     S
C125   C138    1.394   .     A
C126   O175    1.270   .     A
C126   O173    1.295   .     A
C126   C128    1.453   .     S
C127   C136    1.473   .     S
C127   C142    1.418   .     A
C127   C139    1.401   .     A
C128   C7      1.353   1_655 S
C128   H36     1.088   1_655 S
C130   C133    1.450   .     S
C130   C314    1.349   .     S
C130   H334    1.089   .     S
C131   C132    1.423   .     S
C131   C496    1.349   1_545 S
C131   S545    1.780   1_545 S
C132   O170    1.270   .     A
C132   O176    1.275   .     A
C133   O177    1.283   .     A
C133   O171    1.263   .     A
C134   C139    1.386   .     A
C134   H156    1.083   .     S
C134   C689    1.391   .     S
C135   O160    1.276   .     A
C135   C138    1.449   .     S
C135   O162    1.286   .     A
C136   O163    1.281   .     A
C136   O161    1.281   .     A
C137   Cl147   1.765   .     S
C137   C693    1.412   1_554 S
C139   H154    1.083   .     S
C140   H155    1.076   .     S
C140   C683    1.391   1_554 S
C140   C690    1.419   1_554 S
C141   C142    1.421   .     A
C141   C689    1.419   .     S
C141   C692    1.427   .     S
C142   C146    1.408   .     A
C143   C690    1.427   1_554 S
C143   C693    1.429   1_554 S
C144   C145    1.396   .     A
C144   C692    1.429   .     S
C144   C686    1.412   .     S
C145   C146    1.381   .     A
C145   H152    1.082   .     S
C146   H157    1.081   .     S
H149   O166    0.991   .     S
H150   O169    0.991   .     S
H151   C496    1.089   1_545 S
O159   Zn183   1.929   .     S
O159   Zn180   1.956   .     S
O159   Zn181   1.950   .     S
O159   Zn182   1.955   .     S
O160   Zn181   1.934   .     S
O161   Zn183   1.939   .     S
O162   Zn182   1.931   .     S
O163   Zn180   1.925   .     S
O164   S178    1.503   .     D
O165   S178    1.504   .     D
O167   S179    1.504   .     D
O168   S179    1.504   .     D
O169   S545    1.683   1_545 S
O170   Zn180   1.939   .     S
O171   Zn183   1.946   .     S
O172   Zn181   1.932   .     S
O173   Zn182   1.939   .     S
O174   Zn183   1.942   .     S
O175   Zn180   1.938   .     S
O176   Zn181   1.942   .     S
O177   Zn182   1.933   .     S
S178   O44     1.683   1_655 S
S178   C7      1.782   1_655 S
S179   O352    1.683   .     S
S179   C314    1.780   .     S
C184   O233    1.268   .     A
C184   O235    1.264   .     A
C184   C190    1.425   .     S
C185   C199    1.389   .     A
C185   C204    1.409   .     A
C185   H214    1.077   .     S
C186   C198    1.389   .     A
C186   H209    1.084   .     S
C186   C199    1.394   .     A
C187   O236    1.270   .     A
C187   O234    1.295   .     A
C187   C189    1.453   .     S
C188   C197    1.473   .     S
C188   C203    1.418   .     A
C188   C200    1.401   .     A
C189   C251    1.353   .     S
C189   H280    1.088   .     S
C190   C311    1.353   1_455 S
C190   S361    1.782   1_455 S
C191   C194    1.450   .     S
C191   C375    1.349   .     S
C191   H395    1.089   .     S
C192   C193    1.423   .     S
C193   O231    1.270   .     A
C193   O237    1.275   .     A
C194   O238    1.283   .     A
C194   O232    1.263   .     A
C195   C200    1.386   .     A
C195   H217    1.083   .     S
C195   C750    1.391   .     S
C196   O221    1.276   .     A
C196   C199    1.449   .     S
C196   O223    1.286   .     A
C197   O224    1.281   .     A
C197   O222    1.281   .     A
C198   Cl208   1.765   .     S
C198   C754    1.412   1_554 S
C200   H215    1.083   .     S
C201   H216    1.076   .     S
C201   C744    1.391   1_554 S
C201   C751    1.419   1_554 S
C202   C203    1.421   .     A
C202   C750    1.419   .     S
C202   C753    1.427   .     S
C203   C207    1.408   .     A
C204   C751    1.427   1_554 S
C204   C754    1.429   1_554 S
C205   C206    1.396   .     A
C205   C753    1.429   .     S
C205   C747    1.412   .     S
C206   C207    1.381   .     A
C206   H213    1.082   .     S
C207   H218    1.081   .     S
H210   O227    0.991   .     S
H211   O230    0.991   .     S
H219   C311    1.088   1_455 S
O220   Zn244   1.929   .     S
O220   Zn241   1.956   .     S
O220   Zn242   1.950   .     S
O220   Zn243   1.955   .     S
O221   Zn242   1.934   .     S
O222   Zn244   1.939   .     S
O223   Zn243   1.931   .     S
O224   Zn241   1.925   .     S
O225   S239    1.503   .     D
O226   S239    1.504   .     D
O227   S361    1.683   1_455 S
O228   S240    1.504   .     D
O229   S240    1.504   .     D
O231   Zn241   1.939   .     S
O232   Zn244   1.946   .     S
O233   Zn242   1.932   .     S
O234   Zn243   1.939   .     S
O235   Zn244   1.942   .     S
O236   Zn241   1.938   .     S
O237   Zn242   1.942   .     S
O238   Zn243   1.933   .     S
S239   O288    1.683   .     S
S239   C251    1.782   .     S
S240   O413    1.683   .     S
S240   C375    1.780   .     S
C245   O294    1.268   .     A
C245   O296    1.264   .     A
C245   C251    1.425   .     S
C246   C260    1.389   .     A
C246   C265    1.409   .     A
C246   H275    1.077   .     S
C247   C259    1.389   .     A
C247   H270    1.084   .     S
C247   C260    1.394   .     A
C248   O297    1.270   .     A
C248   O295    1.295   .     A
C248   C250    1.453   .     S
C249   C258    1.473   .     S
C249   C264    1.418   .     A
C249   C261    1.401   .     A
C250   C312    1.353   .     S
C250   H341    1.088   .     S
C252   C255    1.450   .     S
C252   C436    1.349   .     S
C252   H456    1.089   .     S
C253   C254    1.423   .     S
C254   O292    1.270   .     A
C254   O298    1.275   .     A
C255   O299    1.283   .     A
C255   O293    1.263   .     A
C256   C261    1.386   .     A
C256   H278    1.083   .     S
C256   C811    1.391   .     S
C257   O282    1.276   .     A
C257   C260    1.449   .     S
C257   O284    1.286   .     A
C258   O285    1.281   .     A
C258   O283    1.281   .     A
C259   Cl269   1.765   .     S
C259   C815    1.412   1_554 S
C261   H276    1.083   .     S
C262   H277    1.076   .     S
C262   C805    1.391   1_554 S
C262   C812    1.419   1_554 S
C263   C264    1.421   .     A
C263   C811    1.419   .     S
C263   C814    1.427   .     S
C264   C268    1.408   .     A
C265   C812    1.427   1_554 S
C265   C815    1.429   1_554 S
C266   C267    1.396   .     A
C266   C814    1.429   .     S
C266   C808    1.412   .     S
C267   C268    1.381   .     A
C267   H274    1.082   .     S
C268   H279    1.081   .     S
H271   O288    0.991   .     S
H272   O291    0.991   .     S
O281   Zn305   1.929   .     S
O281   Zn302   1.956   .     S
O281   Zn303   1.950   .     S
O281   Zn304   1.955   .     S
O282   Zn303   1.934   .     S
O283   Zn305   1.939   .     S
O284   Zn304   1.931   .     S
O285   Zn302   1.925   .     S
O286   S300    1.503   .     D
O287   S300    1.504   .     D
O289   S301    1.504   .     D
O290   S301    1.504   .     D
O292   Zn302   1.939   .     S
O293   Zn305   1.946   .     S
O294   Zn303   1.932   .     S
O295   Zn304   1.939   .     S
O296   Zn305   1.942   .     S
O297   Zn302   1.938   .     S
O298   Zn303   1.942   .     S
O299   Zn304   1.933   .     S
S300   O349    1.683   .     S
S300   C312    1.782   .     S
S301   O474    1.683   .     S
S301   C436    1.780   .     S
C306   O355    1.268   .     A
C306   O357    1.264   .     A
C306   C312    1.425   .     S
C307   C321    1.389   .     A
C307   C326    1.409   .     A
C307   H336    1.077   .     S
C308   C320    1.389   .     A
C308   H331    1.084   .     S
C308   C321    1.394   .     A
C309   O358    1.270   .     A
C309   O356    1.295   .     A
C309   C311    1.453   .     S
C310   C319    1.473   .     S
C310   C325    1.418   .     A
C310   C322    1.401   .     A
C311   C190    1.353   1_655 S
C311   H219    1.088   1_655 S
C313   C316    1.450   .     S
C313   C497    1.349   .     S
C313   H517    1.089   .     S
C314   C315    1.423   .     S
C315   O353    1.270   .     A
C315   O359    1.275   .     A
C316   O360    1.283   .     A
C316   O354    1.263   .     A
C317   C322    1.386   .     A
C317   H339    1.083   .     S
C317   C872    1.391   .     S
C318   O343    1.276   .     A
C318   C321    1.449   .     S
C318   O345    1.286   .     A
C319   O346    1.281   .     A
C319   O344    1.281   .     A
C320   Cl330   1.765   .     S
C320   C876    1.412   1_554 S
C322   H337    1.083   .     S
C323   H338    1.076   .     S
C323   C866    1.391   1_554 S
C323   C873    1.419   1_554 S
C324   C325    1.421   .     A
C324   C872    1.419   .     S
C324   C875    1.427   .     S
C325   C329    1.408   .     A
C326   C873    1.427   1_554 S
C326   C876    1.429   1_554 S
C327   C328    1.396   .     A
C327   C875    1.429   .     S
C327   C869    1.412   .     S
C328   C329    1.381   .     A
C328   H335    1.082   .     S
C329   H340    1.081   .     S
H332   O349    0.991   .     S
H333   O352    0.991   .     S
O342   Zn366   1.929   .     S
O342   Zn363   1.956   .     S
O342   Zn364   1.950   .     S
O342   Zn365   1.955   .     S
O343   Zn364   1.934   .     S
O344   Zn366   1.939   .     S
O345   Zn365   1.931   .     S
O346   Zn363   1.925   .     S
O347   S361    1.503   .     D
O348   S361    1.504   .     D
O350   S362    1.504   .     D
O351   S362    1.504   .     D
O353   Zn363   1.939   .     S
O354   Zn366   1.946   .     S
O355   Zn364   1.932   .     S
O356   Zn365   1.939   .     S
O357   Zn366   1.942   .     S
O358   Zn363   1.938   .     S
O359   Zn364   1.942   .     S
O360   Zn365   1.933   .     S
S361   O227    1.683   1_655 S
S361   C190    1.782   1_655 S
S362   O535    1.683   .     S
S362   C497    1.780   .     S
C367   O416    1.268   .     A
C367   O418    1.264   .     A
C367   C373    1.425   .     S
C368   C382    1.389   .     A
C368   C387    1.409   .     A
C368   H397    1.077   .     S
C369   C381    1.389   .     A
C369   H392    1.084   .     S
C369   C382    1.394   .     A
C370   O419    1.270   .     A
C370   O417    1.295   .     A
C370   C372    1.453   .     S
C371   C380    1.473   .     S
C371   C386    1.418   .     A
C371   C383    1.401   .     A
C372   C434    1.353   .     S
C372   H463    1.088   .     S
C373   C494    1.353   1_455 S
C373   S544    1.782   1_455 S
C374   C377    1.450   .     S
C374   C9      1.349   1_565 S
C374   H29     1.089   1_565 S
C375   C376    1.423   .     S
C376   O414    1.270   .     A
C376   O420    1.275   .     A
C377   O421    1.283   .     A
C377   O415    1.263   .     A
C378   C383    1.386   .     A
C378   H400    1.083   .     S
C378   C933    1.391   .     S
C379   O404    1.276   .     A
C379   C382    1.449   .     S
C379   O406    1.286   .     A
C380   O407    1.281   .     A
C380   O405    1.281   .     A
C381   Cl391   1.765   .     S
C381   C937    1.412   1_554 S
C383   H398    1.083   .     S
C384   H399    1.076   .     S
C384   C927    1.391   1_554 S
C384   C934    1.419   1_554 S
C385   C386    1.421   .     A
C385   C933    1.419   .     S
C385   C936    1.427   .     S
C386   C390    1.408   .     A
C387   C934    1.427   1_554 S
C387   C937    1.429   1_554 S
C388   C389    1.396   .     A
C388   C936    1.429   .     S
C388   C930    1.412   .     S
C389   C390    1.381   .     A
C389   H396    1.082   .     S
C390   H401    1.081   .     S
H393   O410    0.991   .     S
H394   O413    0.991   .     S
H402   C494    1.088   1_455 S
O403   Zn427   1.929   .     S
O403   Zn424   1.956   .     S
O403   Zn425   1.950   .     S
O403   Zn426   1.955   .     S
O404   Zn425   1.934   .     S
O405   Zn427   1.939   .     S
O406   Zn426   1.931   .     S
O407   Zn424   1.925   .     S
O408   S422    1.503   .     D
O409   S422    1.504   .     D
O410   S544    1.683   1_455 S
O411   S423    1.504   .     D
O412   S423    1.504   .     D
O414   Zn424   1.939   .     S
O415   Zn427   1.946   .     S
O416   Zn425   1.932   .     S
O417   Zn426   1.939   .     S
O418   Zn427   1.942   .     S
O419   Zn424   1.938   .     S
O420   Zn425   1.942   .     S
O421   Zn426   1.933   .     S
S422   O471    1.683   .     S
S422   C434    1.782   .     S
S423   O47     1.683   1_565 S
S423   C9      1.780   1_565 S
C428   O477    1.268   .     A
C428   O479    1.264   .     A
C428   C434    1.425   .     S
C429   C443    1.389   .     A
C429   C448    1.409   .     A
C429   H458    1.077   .     S
C430   C442    1.389   .     A
C430   H453    1.084   .     S
C430   C443    1.394   .     A
C431   O480    1.270   .     A
C431   O478    1.295   .     A
C431   C433    1.453   .     S
C432   C441    1.473   .     S
C432   C447    1.418   .     A
C432   C444    1.401   .     A
C433   C495    1.353   .     S
C433   H524    1.088   .     S
C435   C438    1.450   .     S
C435   C70     1.349   1_565 S
C435   H90     1.089   1_565 S
C436   C437    1.423   .     S
C437   O475    1.270   .     A
C437   O481    1.275   .     A
C438   O482    1.283   .     A
C438   O476    1.263   .     A
C439   C444    1.386   .     A
C439   H461    1.083   .     S
C439   C994    1.391   .     S
C440   O465    1.276   .     A
C440   C443    1.449   .     S
C440   O467    1.286   .     A
C441   O468    1.281   .     A
C441   O466    1.281   .     A
C442   Cl452   1.765   .     S
C442   C998    1.412   1_554 S
C444   H459    1.083   .     S
C445   H460    1.076   .     S
C445   C988    1.391   1_554 S
C445   C995    1.419   1_554 S
C446   C447    1.421   .     A
C446   C994    1.419   .     S
C446   C997    1.427   .     S
C447   C451    1.408   .     A
C448   C995    1.427   1_554 S
C448   C998    1.429   1_554 S
C449   C450    1.396   .     A
C449   C997    1.429   .     S
C449   C991    1.412   .     S
C450   C451    1.381   .     A
C450   H457    1.082   .     S
C451   H462    1.081   .     S
H454   O471    0.991   .     S
H455   O474    0.991   .     S
O464   Zn488   1.929   .     S
O464   Zn485   1.956   .     S
O464   Zn486   1.950   .     S
O464   Zn487   1.955   .     S
O465   Zn486   1.934   .     S
O466   Zn488   1.939   .     S
O467   Zn487   1.931   .     S
O468   Zn485   1.925   .     S
O469   S483    1.503   .     D
O470   S483    1.504   .     D
O472   S484    1.504   .     D
O473   S484    1.504   .     D
O475   Zn485   1.939   .     S
O476   Zn488   1.946   .     S
O477   Zn486   1.932   .     S
O478   Zn487   1.939   .     S
O479   Zn488   1.942   .     S
O480   Zn485   1.938   .     S
O481   Zn486   1.942   .     S
O482   Zn487   1.933   .     S
S483   O532    1.683   .     S
S483   C495    1.782   .     S
S484   O108    1.683   1_565 S
S484   C70     1.780   1_565 S
C489   O538    1.268   .     A
C489   O540    1.264   .     A
C489   C495    1.425   .     S
C490   C504    1.389   .     A
C490   C509    1.409   .     A
C490   H519    1.077   .     S
C491   C503    1.389   .     A
C491   H514    1.084   .     S
C491   C504    1.394   .     A
C492   O541    1.270   .     A
C492   O539    1.295   .     A
C492   C494    1.453   .     S
C493   C502    1.473   .     S
C493   C508    1.418   .     A
C493   C505    1.401   .     A
C494   C373    1.353   1_655 S
C494   H402    1.088   1_655 S
C496   C499    1.450   .     S
C496   C131    1.349   1_565 S
C496   H151    1.089   1_565 S
C497   C498    1.423   .     S
C498   O536    1.270   .     A
C498   O542    1.275   .     A
C499   O543    1.283   .     A
C499   O537    1.263   .     A
C500   C505    1.386   .     A
C500   H522    1.083   .     S
C500   C1055   1.391   .     S
C501   O526    1.276   .     A
C501   C504    1.449   .     S
C501   O528    1.286   .     A
C502   O529    1.281   .     A
C502   O527    1.281   .     A
C503   Cl513   1.765   .     S
C503   C1059   1.412   1_554 S
C505   H520    1.083   .     S
C506   H521    1.076   .     S
C506   C1049   1.391   1_554 S
C506   C1056   1.419   1_554 S
C507   C508    1.421   .     A
C507   C1055   1.419   .     S
C507   C1058   1.427   .     S
C508   C512    1.408   .     A
C509   C1056   1.427   1_554 S
C509   C1059   1.429   1_554 S
C510   C511    1.396   .     A
C510   C1058   1.429   .     S
C510   C1052   1.412   .     S
C511   C512    1.381   .     A
C511   H518    1.082   .     S
C512   H523    1.081   .     S
H515   O532    0.991   .     S
H516   O535    0.991   .     S
O525   Zn549   1.929   .     S
O525   Zn546   1.956   .     S
O525   Zn547   1.950   .     S
O525   Zn548   1.955   .     S
O526   Zn547   1.934   .     S
O527   Zn549   1.939   .     S
O528   Zn548   1.931   .     S
O529   Zn546   1.925   .     S
O530   S544    1.503   .     D
O531   S544    1.504   .     D
O533   S545    1.504   .     D
O534   S545    1.504   .     D
O536   Zn546   1.939   .     S
O537   Zn549   1.946   .     S
O538   Zn547   1.932   .     S
O539   Zn548   1.939   .     S
O540   Zn549   1.942   .     S
O541   Zn546   1.938   .     S
O542   Zn547   1.942   .     S
O543   Zn548   1.933   .     S
S544   O410    1.683   1_655 S
S544   C373    1.782   1_655 S
S545   O169    1.683   1_565 S
S545   C131    1.780   1_565 S
C550   O599    1.268   .     A
C550   O601    1.264   .     A
C550   C556    1.425   .     S
C551   C565    1.389   .     A
C551   C570    1.409   .     A
C551   H580    1.077   .     S
C552   C564    1.389   .     A
C552   H575    1.084   .     S
C552   C565    1.394   .     A
C553   O602    1.270   .     A
C553   O600    1.295   .     A
C553   C555    1.453   .     S
C554   C563    1.473   .     S
C554   C569    1.418   .     A
C554   C566    1.401   .     A
C555   C617    1.353   .     S
C555   H646    1.088   .     S
C556   C677    1.353   1_455 S
C556   S727    1.782   1_455 S
C557   C560    1.450   .     S
C557   C741    1.349   .     S
C557   H761    1.089   .     S
C558   C559    1.423   .     S
C558   C923    1.349   1_545 S
C558   S972    1.780   1_545 S
C559   O597    1.270   .     A
C559   O603    1.275   .     A
C560   O604    1.283   .     A
C560   O598    1.263   .     A
C561   C566    1.386   .     A
C561   H583    1.083   .     S
C561   C18     1.391   1_556 S
C562   O587    1.276   .     A
C562   C565    1.449   .     S
C562   O589    1.286   .     A
C563   O590    1.281   .     A
C563   O588    1.281   .     A
C564   Cl574   1.765   .     S
C566   H581    1.083   .     S
C567   H582    1.076   .     S
C568   C569    1.421   .     A
C568   C18     1.419   1_556 S
C568   C21     1.427   1_556 S
C569   C573    1.408   .     A
C571   C572    1.396   .     A
C571   C21     1.429   1_556 S
C571   C15     1.412   1_556 S
C572   C573    1.381   .     A
C572   H579    1.082   .     S
C573   H584    1.081   .     S
H576   O593    0.991   .     S
H577   O596    0.991   .     S
H578   C923    1.089   1_545 S
H585   C677    1.088   1_455 S
O586   Zn610   1.929   .     S
O586   Zn607   1.956   .     S
O586   Zn608   1.950   .     S
O586   Zn609   1.955   .     S
O587   Zn608   1.934   .     S
O588   Zn610   1.939   .     S
O589   Zn609   1.931   .     S
O590   Zn607   1.925   .     S
O591   S605    1.503   .     D
O592   S605    1.504   .     D
O593   S727    1.683   1_455 S
O594   S606    1.504   .     D
O595   S606    1.504   .     D
O596   S972    1.683   1_545 S
O597   Zn607   1.939   .     S
O598   Zn610   1.946   .     S
O599   Zn608   1.932   .     S
O600   Zn609   1.939   .     S
O601   Zn610   1.942   .     S
O602   Zn607   1.938   .     S
O603   Zn608   1.942   .     S
O604   Zn609   1.933   .     S
S605   O654    1.683   .     S
S605   C617    1.782   .     S
S606   O779    1.683   .     S
S606   C741    1.780   .     S
C611   O660    1.268   .     A
C611   O662    1.264   .     A
C611   C617    1.425   .     S
C612   C626    1.389   .     A
C612   C631    1.409   .     A
C612   H641    1.077   .     S
C613   C625    1.389   .     A
C613   H636    1.084   .     S
C613   C626    1.394   .     A
C614   O663    1.270   .     A
C614   O661    1.295   .     A
C614   C616    1.453   .     S
C615   C624    1.473   .     S
C615   C630    1.418   .     A
C615   C627    1.401   .     A
C616   C678    1.353   .     S
C616   H707    1.088   .     S
C618   C621    1.450   .     S
C618   C802    1.349   .     S
C618   H822    1.089   .     S
C619   C620    1.423   .     S
C619   C984    1.349   1_545 S
C619   S1033   1.780   1_545 S
C620   O658    1.270   .     A
C620   O664    1.275   .     A
C621   O665    1.283   .     A
C621   O659    1.263   .     A
C622   C627    1.386   .     A
C622   H644    1.083   .     S
C622   C79     1.391   1_556 S
C623   O648    1.276   .     A
C623   C626    1.449   .     S
C623   O650    1.286   .     A
C624   O651    1.281   .     A
C624   O649    1.281   .     A
C625   Cl635   1.765   .     S
C627   H642    1.083   .     S
C628   H643    1.076   .     S
C629   C630    1.421   .     A
C629   C79     1.419   1_556 S
C629   C82     1.427   1_556 S
C630   C634    1.408   .     A
C632   C633    1.396   .     A
C632   C82     1.429   1_556 S
C632   C76     1.412   1_556 S
C633   C634    1.381   .     A
C633   H640    1.082   .     S
C634   H645    1.081   .     S
H637   O654    0.991   .     S
H638   O657    0.991   .     S
H639   C984    1.089   1_545 S
O647   Zn671   1.929   .     S
O647   Zn668   1.956   .     S
O647   Zn669   1.950   .     S
O647   Zn670   1.955   .     S
O648   Zn669   1.934   .     S
O649   Zn671   1.939   .     S
O650   Zn670   1.931   .     S
O651   Zn668   1.925   .     S
O652   S666    1.503   .     D
O653   S666    1.504   .     D
O655   S667    1.504   .     D
O656   S667    1.504   .     D
O657   S1033   1.683   1_545 S
O658   Zn668   1.939   .     S
O659   Zn671   1.946   .     S
O660   Zn669   1.932   .     S
O661   Zn670   1.939   .     S
O662   Zn671   1.942   .     S
O663   Zn668   1.938   .     S
O664   Zn669   1.942   .     S
O665   Zn670   1.933   .     S
S666   O715    1.683   .     S
S666   C678    1.782   .     S
S667   O840    1.683   .     S
S667   C802    1.780   .     S
C672   O721    1.268   .     A
C672   O723    1.264   .     A
C672   C678    1.425   .     S
C673   C687    1.389   .     A
C673   C692    1.409   .     A
C673   H702    1.077   .     S
C674   C686    1.389   .     A
C674   H697    1.084   .     S
C674   C687    1.394   .     A
C675   O724    1.270   .     A
C675   O722    1.295   .     A
C675   C677    1.453   .     S
C676   C685    1.473   .     S
C676   C691    1.418   .     A
C676   C688    1.401   .     A
C677   C556    1.353   1_655 S
C677   H585    1.088   1_655 S
C679   C682    1.450   .     S
C679   C863    1.349   .     S
C679   H883    1.089   .     S
C680   C681    1.423   .     S
C680   C1045   1.349   1_545 S
C680   S1094   1.780   1_545 S
C681   O719    1.270   .     A
C681   O725    1.275   .     A
C682   O726    1.283   .     A
C682   O720    1.263   .     A
C683   C688    1.386   .     A
C683   H705    1.083   .     S
C683   C140    1.391   1_556 S
C684   O709    1.276   .     A
C684   C687    1.449   .     S
C684   O711    1.286   .     A
C685   O712    1.281   .     A
C685   O710    1.281   .     A
C686   Cl696   1.765   .     S
C688   H703    1.083   .     S
C689   H704    1.076   .     S
C690   C691    1.421   .     A
C690   C140    1.419   1_556 S
C690   C143    1.427   1_556 S
C691   C695    1.408   .     A
C693   C694    1.396   .     A
C693   C143    1.429   1_556 S
C693   C137    1.412   1_556 S
C694   C695    1.381   .     A
C694   H701    1.082   .     S
C695   H706    1.081   .     S
H698   O715    0.991   .     S
H699   O718    0.991   .     S
H700   C1045   1.089   1_545 S
O708   Zn732   1.929   .     S
O708   Zn729   1.956   .     S
O708   Zn730   1.950   .     S
O708   Zn731   1.955   .     S
O709   Zn730   1.934   .     S
O710   Zn732   1.939   .     S
O711   Zn731   1.931   .     S
O712   Zn729   1.925   .     S
O713   S727    1.503   .     D
O714   S727    1.504   .     D
O716   S728    1.504   .     D
O717   S728    1.504   .     D
O718   S1094   1.683   1_545 S
O719   Zn729   1.939   .     S
O720   Zn732   1.946   .     S
O721   Zn730   1.932   .     S
O722   Zn731   1.939   .     S
O723   Zn732   1.942   .     S
O724   Zn729   1.938   .     S
O725   Zn730   1.942   .     S
O726   Zn731   1.933   .     S
S727   O593    1.683   1_655 S
S727   C556    1.782   1_655 S
S728   O901    1.683   .     S
S728   C863    1.780   .     S
C733   O782    1.268   .     A
C733   O784    1.264   .     A
C733   C739    1.425   .     S
C734   C748    1.389   .     A
C734   C753    1.409   .     A
C734   H763    1.077   .     S
C735   C747    1.389   .     A
C735   H758    1.084   .     S
C735   C748    1.394   .     A
C736   O785    1.270   .     A
C736   O783    1.295   .     A
C736   C738    1.453   .     S
C737   C746    1.473   .     S
C737   C752    1.418   .     A
C737   C749    1.401   .     A
C738   C800    1.353   .     S
C738   H829    1.088   .     S
C739   C860    1.353   1_455 S
C739   S910    1.782   1_455 S
C740   C743    1.450   .     S
C740   C924    1.349   .     S
C740   H944    1.089   .     S
C741   C742    1.423   .     S
C742   O780    1.270   .     A
C742   O786    1.275   .     A
C743   O787    1.283   .     A
C743   O781    1.263   .     A
C744   C749    1.386   .     A
C744   H766    1.083   .     S
C744   C201    1.391   1_556 S
C745   O770    1.276   .     A
C745   C748    1.449   .     S
C745   O772    1.286   .     A
C746   O773    1.281   .     A
C746   O771    1.281   .     A
C747   Cl757   1.765   .     S
C749   H764    1.083   .     S
C750   H765    1.076   .     S
C751   C752    1.421   .     A
C751   C201    1.419   1_556 S
C751   C204    1.427   1_556 S
C752   C756    1.408   .     A
C754   C755    1.396   .     A
C754   C204    1.429   1_556 S
C754   C198    1.412   1_556 S
C755   C756    1.381   .     A
C755   H762    1.082   .     S
C756   H767    1.081   .     S
H759   O776    0.991   .     S
H760   O779    0.991   .     S
H768   C860    1.088   1_455 S
O769   Zn793   1.929   .     S
O769   Zn790   1.956   .     S
O769   Zn791   1.950   .     S
O769   Zn792   1.955   .     S
O770   Zn791   1.934   .     S
O771   Zn793   1.939   .     S
O772   Zn792   1.931   .     S
O773   Zn790   1.925   .     S
O774   S788    1.503   .     D
O775   S788    1.504   .     D
O776   S910    1.683   1_455 S
O777   S789    1.504   .     D
O778   S789    1.504   .     D
O780   Zn790   1.939   .     S
O781   Zn793   1.946   .     S
O782   Zn791   1.932   .     S
O783   Zn792   1.939   .     S
O784   Zn793   1.942   .     S
O785   Zn790   1.938   .     S
O786   Zn791   1.942   .     S
O787   Zn792   1.933   .     S
S788   O837    1.683   .     S
S788   C800    1.782   .     S
S789   O962    1.683   .     S
S789   C924    1.780   .     S
C794   O843    1.268   .     A
C794   O845    1.264   .     A
C794   C800    1.425   .     S
C795   C809    1.389   .     A
C795   C814    1.409   .     A
C795   H824    1.077   .     S
C796   C808    1.389   .     A
C796   H819    1.084   .     S
C796   C809    1.394   .     A
C797   O846    1.270   .     A
C797   O844    1.295   .     A
C797   C799    1.453   .     S
C798   C807    1.473   .     S
C798   C813    1.418   .     A
C798   C810    1.401   .     A
C799   C861    1.353   .     S
C799   H890    1.088   .     S
C801   C804    1.450   .     S
C801   C985    1.349   .     S
C801   H1005   1.089   .     S
C802   C803    1.423   .     S
C803   O841    1.270   .     A
C803   O847    1.275   .     A
C804   O848    1.283   .     A
C804   O842    1.263   .     A
C805   C810    1.386   .     A
C805   H827    1.083   .     S
C805   C262    1.391   1_556 S
C806   O831    1.276   .     A
C806   C809    1.449   .     S
C806   O833    1.286   .     A
C807   O834    1.281   .     A
C807   O832    1.281   .     A
C808   Cl818   1.765   .     S
C810   H825    1.083   .     S
C811   H826    1.076   .     S
C812   C813    1.421   .     A
C812   C262    1.419   1_556 S
C812   C265    1.427   1_556 S
C813   C817    1.408   .     A
C815   C816    1.396   .     A
C815   C265    1.429   1_556 S
C815   C259    1.412   1_556 S
C816   C817    1.381   .     A
C816   H823    1.082   .     S
C817   H828    1.081   .     S
H820   O837    0.991   .     S
H821   O840    0.991   .     S
O830   Zn854   1.929   .     S
O830   Zn851   1.956   .     S
O830   Zn852   1.950   .     S
O830   Zn853   1.955   .     S
O831   Zn852   1.934   .     S
O832   Zn854   1.939   .     S
O833   Zn853   1.931   .     S
O834   Zn851   1.925   .     S
O835   S849    1.503   .     D
O836   S849    1.504   .     D
O838   S850    1.504   .     D
O839   S850    1.504   .     D
O841   Zn851   1.939   .     S
O842   Zn854   1.946   .     S
O843   Zn852   1.932   .     S
O844   Zn853   1.939   .     S
O845   Zn854   1.942   .     S
O846   Zn851   1.938   .     S
O847   Zn852   1.942   .     S
O848   Zn853   1.933   .     S
S849   O898    1.683   .     S
S849   C861    1.782   .     S
S850   O1023   1.683   .     S
S850   C985    1.780   .     S
C855   O904    1.268   .     A
C855   O906    1.264   .     A
C855   C861    1.425   .     S
C856   C870    1.389   .     A
C856   C875    1.409   .     A
C856   H885    1.077   .     S
C857   C869    1.389   .     A
C857   H880    1.084   .     S
C857   C870    1.394   .     A
C858   O907    1.270   .     A
C858   O905    1.295   .     A
C858   C860    1.453   .     S
C859   C868    1.473   .     S
C859   C874    1.418   .     A
C859   C871    1.401   .     A
C860   C739    1.353   1_655 S
C860   H768    1.088   1_655 S
C862   C865    1.450   .     S
C862   C1046   1.349   .     S
C862   H1066   1.089   .     S
C863   C864    1.423   .     S
C864   O902    1.270   .     A
C864   O908    1.275   .     A
C865   O909    1.283   .     A
C865   O903    1.263   .     A
C866   C871    1.386   .     A
C866   H888    1.083   .     S
C866   C323    1.391   1_556 S
C867   O892    1.276   .     A
C867   C870    1.449   .     S
C867   O894    1.286   .     A
C868   O895    1.281   .     A
C868   O893    1.281   .     A
C869   Cl879   1.765   .     S
C871   H886    1.083   .     S
C872   H887    1.076   .     S
C873   C874    1.421   .     A
C873   C323    1.419   1_556 S
C873   C326    1.427   1_556 S
C874   C878    1.408   .     A
C876   C877    1.396   .     A
C876   C326    1.429   1_556 S
C876   C320    1.412   1_556 S
C877   C878    1.381   .     A
C877   H884    1.082   .     S
C878   H889    1.081   .     S
H881   O898    0.991   .     S
H882   O901    0.991   .     S
O891   Zn915   1.929   .     S
O891   Zn912   1.956   .     S
O891   Zn913   1.950   .     S
O891   Zn914   1.955   .     S
O892   Zn913   1.934   .     S
O893   Zn915   1.939   .     S
O894   Zn914   1.931   .     S
O895   Zn912   1.925   .     S
O896   S910    1.503   .     D
O897   S910    1.504   .     D
O899   S911    1.504   .     D
O900   S911    1.504   .     D
O902   Zn912   1.939   .     S
O903   Zn915   1.946   .     S
O904   Zn913   1.932   .     S
O905   Zn914   1.939   .     S
O906   Zn915   1.942   .     S
O907   Zn912   1.938   .     S
O908   Zn913   1.942   .     S
O909   Zn914   1.933   .     S
S910   O776    1.683   1_655 S
S910   C739    1.782   1_655 S
S911   O1084   1.683   .     S
S911   C1046   1.780   .     S
C916   O965    1.268   .     A
C916   O967    1.264   .     A
C916   C922    1.425   .     S
C917   C931    1.389   .     A
C917   C936    1.409   .     A
C917   H946    1.077   .     S
C918   C930    1.389   .     A
C918   H941    1.084   .     S
C918   C931    1.394   .     A
C919   O968    1.270   .     A
C919   O966    1.295   .     A
C919   C921    1.453   .     S
C920   C929    1.473   .     S
C920   C935    1.418   .     A
C920   C932    1.401   .     A
C921   C983    1.353   .     S
C921   H1012   1.088   .     S
C922   C1043   1.353   1_455 S
C922   S1093   1.782   1_455 S
C923   C926    1.450   .     S
C923   C558    1.349   1_565 S
C923   H578    1.089   1_565 S
C924   C925    1.423   .     S
C925   O963    1.270   .     A
C925   O969    1.275   .     A
C926   O970    1.283   .     A
C926   O964    1.263   .     A
C927   C932    1.386   .     A
C927   H949    1.083   .     S
C927   C384    1.391   1_556 S
C928   O953    1.276   .     A
C928   C931    1.449   .     S
C928   O955    1.286   .     A
C929   O956    1.281   .     A
C929   O954    1.281   .     A
C930   Cl940   1.765   .     S
C932   H947    1.083   .     S
C933   H948    1.076   .     S
C934   C935    1.421   .     A
C934   C384    1.419   1_556 S
C934   C387    1.427   1_556 S
C935   C939    1.408   .     A
C937   C938    1.396   .     A
C937   C387    1.429   1_556 S
C937   C381    1.412   1_556 S
C938   C939    1.381   .     A
C938   H945    1.082   .     S
C939   H950    1.081   .     S
H942   O959    0.991   .     S
H943   O962    0.991   .     S
H951   C1043   1.088   1_455 S
O952   Zn976   1.929   .     S
O952   Zn973   1.956   .     S
O952   Zn974   1.950   .     S
O952   Zn975   1.955   .     S
O953   Zn974   1.934   .     S
O954   Zn976   1.939   .     S
O955   Zn975   1.931   .     S
O956   Zn973   1.925   .     S
O957   S971    1.503   .     D
O958   S971    1.504   .     D
O959   S1093   1.683   1_455 S
O960   S972    1.504   .     D
O961   S972    1.504   .     D
O963   Zn973   1.939   .     S
O964   Zn976   1.946   .     S
O965   Zn974   1.932   .     S
O966   Zn975   1.939   .     S
O967   Zn976   1.942   .     S
O968   Zn973   1.938   .     S
O969   Zn974   1.942   .     S
O970   Zn975   1.933   .     S
S971   O1020   1.683   .     S
S971   C983    1.782   .     S
S972   O596    1.683   1_565 S
S972   C558    1.780   1_565 S
C977   O1026   1.268   .     A
C977   O1028   1.264   .     A
C977   C983    1.425   .     S
C978   C992    1.389   .     A
C978   C997    1.409   .     A
C978   H1007   1.077   .     S
C979   C991    1.389   .     A
C979   H1002   1.084   .     S
C979   C992    1.394   .     A
C980   O1029   1.270   .     A
C980   O1027   1.295   .     A
C980   C982    1.453   .     S
C981   C990    1.473   .     S
C981   C996    1.418   .     A
C981   C993    1.401   .     A
C982   C1044   1.353   .     S
C982   H1073   1.088   .     S
C984   C987    1.450   .     S
C984   C619    1.349   1_565 S
C984   H639    1.089   1_565 S
C985   C986    1.423   .     S
C986   O1024   1.270   .     A
C986   O1030   1.275   .     A
C987   O1031   1.283   .     A
C987   O1025   1.263   .     A
C988   C993    1.386   .     A
C988   H1010   1.083   .     S
C988   C445    1.391   1_556 S
C989   O1014   1.276   .     A
C989   C992    1.449   .     S
C989   O1016   1.286   .     A
C990   O1017   1.281   .     A
C990   O1015   1.281   .     A
C991   Cl1001  1.765   .     S
C993   H1008   1.083   .     S
C994   H1009   1.076   .     S
C995   C996    1.421   .     A
C995   C445    1.419   1_556 S
C995   C448    1.427   1_556 S
C996   C1000   1.408   .     A
C998   C999    1.396   .     A
C998   C448    1.429   1_556 S
C998   C442    1.412   1_556 S
C999   C1000   1.381   .     A
C999   H1006   1.082   .     S
C1000  H1011   1.081   .     S
H1003  O1020   0.991   .     S
H1004  O1023   0.991   .     S
O1013  Zn1037  1.929   .     S
O1013  Zn1034  1.956   .     S
O1013  Zn1035  1.950   .     S
O1013  Zn1036  1.955   .     S
O1014  Zn1035  1.934   .     S
O1015  Zn1037  1.939   .     S
O1016  Zn1036  1.931   .     S
O1017  Zn1034  1.925   .     S
O1018  S1032   1.503   .     D
O1019  S1032   1.504   .     D
O1021  S1033   1.504   .     D
O1022  S1033   1.504   .     D
O1024  Zn1034  1.939   .     S
O1025  Zn1037  1.946   .     S
O1026  Zn1035  1.932   .     S
O1027  Zn1036  1.939   .     S
O1028  Zn1037  1.942   .     S
O1029  Zn1034  1.938   .     S
O1030  Zn1035  1.942   .     S
O1031  Zn1036  1.933   .     S
S1032  O1081   1.683   .     S
S1032  C1044   1.782   .     S
S1033  O657    1.683   1_565 S
S1033  C619    1.780   1_565 S
C1038  O1087   1.268   .     A
C1038  O1089   1.264   .     A
C1038  C1044   1.425   .     S
C1039  C1053   1.389   .     A
C1039  C1058   1.409   .     A
C1039  H1068   1.077   .     S
C1040  C1052   1.389   .     A
C1040  H1063   1.084   .     S
C1040  C1053   1.394   .     A
C1041  O1090   1.270   .     A
C1041  O1088   1.295   .     A
C1041  C1043   1.453   .     S
C1042  C1051   1.473   .     S
C1042  C1057   1.418   .     A
C1042  C1054   1.401   .     A
C1043  C922    1.353   1_655 S
C1043  H951    1.088   1_655 S
C1045  C1048   1.450   .     S
C1045  C680    1.349   1_565 S
C1045  H700    1.089   1_565 S
C1046  C1047   1.423   .     S
C1047  O1085   1.270   .     A
C1047  O1091   1.275   .     A
C1048  O1092   1.283   .     A
C1048  O1086   1.263   .     A
C1049  C1054   1.386   .     A
C1049  H1071   1.083   .     S
C1049  C506    1.391   1_556 S
C1050  O1075   1.276   .     A
C1050  C1053   1.449   .     S
C1050  O1077   1.286   .     A
C1051  O1078   1.281   .     A
C1051  O1076   1.281   .     A
C1052  Cl1062  1.765   .     S
C1054  H1069   1.083   .     S
C1055  H1070   1.076   .     S
C1056  C1057   1.421   .     A
C1056  C506    1.419   1_556 S
C1056  C509    1.427   1_556 S
C1057  C1061   1.408   .     A
C1059  C1060   1.396   .     A
C1059  C509    1.429   1_556 S
C1059  C503    1.412   1_556 S
C1060  C1061   1.381   .     A
C1060  H1067   1.082   .     S
C1061  H1072   1.081   .     S
H1064  O1081   0.991   .     S
H1065  O1084   0.991   .     S
O1074  Zn1098  1.929   .     S
O1074  Zn1095  1.956   .     S
O1074  Zn1096  1.950   .     S
O1074  Zn1097  1.955   .     S
O1075  Zn1096  1.934   .     S
O1076  Zn1098  1.939   .     S
O1077  Zn1097  1.931   .     S
O1078  Zn1095  1.925   .     S
O1079  S1093   1.503   .     D
O1080  S1093   1.504   .     D
O1082  S1094   1.504   .     D
O1083  S1094   1.504   .     D
O1085  Zn1095  1.939   .     S
O1086  Zn1098  1.946   .     S
O1087  Zn1096  1.932   .     S
O1088  Zn1097  1.939   .     S
O1089  Zn1098  1.942   .     S
O1090  Zn1095  1.938   .     S
O1091  Zn1096  1.942   .     S
O1092  Zn1097  1.933   .     S
S1093  O959    1.683   1_655 S
S1093  C922    1.782   1_655 S
S1094  O718    1.683   1_565 S
S1094  C680    1.780   1_565 S
