data_str_m1_o10_o18_pcu_sym.190
_audit_creation_date              2020-01-03
_audit_creation_method            'Materials Studio'
_symmetry_space_group_name_H-M    'P1'
_symmetry_Int_Tables_number       1
_symmetry_cell_setting            triclinic
loop_
_symmetry_equiv_pos_as_xyz
  x,y,z
_cell_length_a                    32.5274
_cell_length_b                    32.6812
_cell_length_c                    35.6579
_cell_angle_alpha                 98.5569
_cell_angle_beta                  73.1429
_cell_angle_gamma                 98.5112
loop_
_atom_site_label
_atom_site_type_symbol
_atom_site_fract_x
_atom_site_fract_y
_atom_site_fract_z
_atom_site_U_iso_or_equiv
_atom_site_adp_type
_atom_site_occupancy
C1     C     0.05246   0.15990   0.25877   0.00000  Uiso   1.00
C2     C     0.18075   0.11439   0.46229   0.00000  Uiso   1.00
C3     C     0.20072   0.09486   0.48330   0.00000  Uiso   1.00
C4     C     0.28099   0.17356   0.24126   0.00000  Uiso   1.00
C5     C     0.19912   0.10902   0.02248   0.00000  Uiso   1.00
C6     C     0.17613   0.14322   0.04211   0.00000  Uiso   1.00
C7     C     0.21904   0.08783   0.04255   0.00000  Uiso   1.00
C8     C     0.21585   0.09949   0.08250   0.00000  Uiso   1.00
C9     C     0.17911   0.15893   0.08088   0.00000  Uiso   1.00
C10    C     0.32696   0.17626   0.23780   0.00000  Uiso   1.00
C11    C     0.00709   0.15751   0.26216   0.00000  Uiso   1.00
C12    C     0.09797   0.21528   0.42101   0.00000  Uiso   1.00
C13    C     0.17989   0.32201   0.23901   0.00000  Uiso   1.00
C14    C     0.15047   0.01269   0.26275   0.00000  Uiso   1.00
C15    C     0.15631   0.05625   0.25851   0.00000  Uiso   1.00
C16    C     0.17659   0.27761   0.24154   0.00000  Uiso   1.00
C17    C     0.18806   0.14513   0.14404   0.00000  Uiso   1.00
C18    C     0.14538   0.18777   0.35623   0.00000  Uiso   1.00
C19    C     0.13294   0.19344   0.39964   0.00000  Uiso   1.00
C20    C     0.19605   0.13524   0.10142   0.00000  Uiso   1.00
C21    C     0.08437   0.21796   0.46230   0.00000  Uiso   1.00
C22    C     0.17817   0.09265   0.42446   0.00000  Uiso   1.00
C23    C     0.15440   0.17425   0.41971   0.00000  Uiso   1.00
C24    C     0.13911   0.17277   0.46062   0.00000  Uiso   1.00
C25    C     0.10537   0.19711   0.48227   0.00000  Uiso   1.00
C26    C     0.15797   0.14938   0.48083   0.00000  Uiso   1.00
C27    C     0.15109   0.15967   0.02224   0.00000  Uiso   1.00
C28    C     0.11612   0.18230   0.04300   0.00000  Uiso   1.00
C29    C     0.09331   0.20014   0.02345   0.00000  Uiso   1.00
H30    H     0.06681   0.21723   0.04099   0.00000  Uiso   1.00
H31    H     0.08567   0.00356   0.28569   0.00000  Uiso   1.00
H32    H     0.11422   0.01266   0.31936   0.00000  Uiso   1.00
H33    H     0.17379   0.22037   0.07701   0.00000  Uiso   1.00
H34    H     0.14013   0.19982   0.11863   0.00000  Uiso   1.00
H35    H     0.20761   0.06066   0.12372   0.00000  Uiso   1.00
H36    H     0.25030   0.05254   0.08482   0.00000  Uiso   1.00
H37    H     0.04010   0.25793   0.46518   0.00000  Uiso   1.00
H38    H     0.02256   0.22009   0.49491   0.00000  Uiso   1.00
H39    H     0.23558   0.06105   0.02748   0.00000  Uiso   1.00
H40    H     0.01662   0.19355   0.21532   0.00000  Uiso   1.00
H41    H     0.31811   0.14009   0.28486   0.00000  Uiso   1.00
H42    H     0.20724   0.00237   0.21714   0.00000  Uiso   1.00
H43    H     0.21702   0.06763   0.46911   0.00000  Uiso   1.00
H44    H     0.08109   0.23014   0.40559   0.00000  Uiso   1.00
H45    H     0.18394   0.16150   0.40303   0.00000  Uiso   1.00
H46    H     0.10424   0.18458   0.07464   0.00000  Uiso   1.00
N47    N     0.11325   0.33004   0.29189   0.00000  Uiso   1.00
N48    N     0.17066   0.20054   0.09834   0.00000  Uiso   1.00
N49    N     0.23353   0.07585   0.10386   0.00000  Uiso   1.00
N50    N     0.04914   0.24143   0.48395   0.00000  Uiso   1.00
N51    N     0.17610   0.07506   0.39427   0.00000  Uiso   1.00
O52    O     0.16667   0.16667   0.25000   0.00000  Uiso   1.00
O53    O     0.15693   0.12393   0.16625   0.00000  Uiso   1.00
O54    O     0.12687   0.20646   0.33749   0.00000  Uiso   1.00
O55    O     0.21088   0.17493   0.15877   0.00000  Uiso   1.00
O56    O     0.17198   0.16135   0.33749   0.00000  Uiso   1.00
O57    O     0.17849   0.08101   0.27821   0.00000  Uiso   1.00
O58    O     0.14581   0.26136   0.26767   0.00000  Uiso   1.00
O59    O     0.07452   0.13251   0.23607   0.00000  Uiso   1.00
O60    O     0.26785   0.19179   0.21806   0.00000  Uiso   1.00
O61    O     0.06990   0.18960   0.27820   0.00000  Uiso   1.00
O62    O     0.25440   0.15277   0.26768   0.00000  Uiso   1.00
O63    O     0.13800   0.06903   0.23607   0.00000  Uiso   1.00
O64    O     0.20437   0.25527   0.21806   0.00000  Uiso   1.00
Zn65   Zn    0.19244   0.14090   0.28278   0.00000  Uiso   1.00
Zn66   Zn    0.13459   0.12378   0.22258   0.00000  Uiso   1.00
Zn67   Zn    0.21166   0.19664   0.21188   0.00000  Uiso   1.00
Zn68   Zn    0.12798   0.20535   0.28277   0.00000  Uiso   1.00
C69    C     0.38580   0.15990   0.25877   0.00000  Uiso   1.00
C70    C     0.51409   0.11439   0.46229   0.00000  Uiso   1.00
C71    C     0.53405   0.09486   0.48330   0.00000  Uiso   1.00
C72    C     0.61433   0.17356   0.24126   0.00000  Uiso   1.00
C73    C     0.53246   0.10902   0.02248   0.00000  Uiso   1.00
C74    C     0.50947   0.14322   0.04211   0.00000  Uiso   1.00
C75    C     0.55238   0.08783   0.04255   0.00000  Uiso   1.00
C76    C     0.54918   0.09949   0.08250   0.00000  Uiso   1.00
C77    C     0.51244   0.15893   0.08088   0.00000  Uiso   1.00
C78    C     0.66029   0.17626   0.23780   0.00000  Uiso   1.00
C79    C     0.34042   0.15751   0.26216   0.00000  Uiso   1.00
C80    C     0.43130   0.21528   0.42101   0.00000  Uiso   1.00
C81    C     0.51322   0.32201   0.23901   0.00000  Uiso   1.00
C82    C     0.48381   0.01269   0.26275   0.00000  Uiso   1.00
C83    C     0.48964   0.05625   0.25851   0.00000  Uiso   1.00
C84    C     0.50992   0.27761   0.24154   0.00000  Uiso   1.00
C85    C     0.52139   0.14513   0.14404   0.00000  Uiso   1.00
C86    C     0.47871   0.18777   0.35623   0.00000  Uiso   1.00
C87    C     0.46627   0.19344   0.39964   0.00000  Uiso   1.00
C88    C     0.52938   0.13524   0.10142   0.00000  Uiso   1.00
C89    C     0.41771   0.21796   0.46230   0.00000  Uiso   1.00
C90    C     0.51151   0.09265   0.42446   0.00000  Uiso   1.00
C91    C     0.48773   0.17425   0.41971   0.00000  Uiso   1.00
C92    C     0.47244   0.17277   0.46062   0.00000  Uiso   1.00
C93    C     0.43870   0.19711   0.48227   0.00000  Uiso   1.00
C94    C     0.49131   0.14938   0.48083   0.00000  Uiso   1.00
C95    C     0.48442   0.15967   0.02224   0.00000  Uiso   1.00
C96    C     0.44945   0.18230   0.04300   0.00000  Uiso   1.00
C97    C     0.42665   0.20014   0.02345   0.00000  Uiso   1.00
H98    H     0.40014   0.21723   0.04099   0.00000  Uiso   1.00
H99    H     0.41900   0.00356   0.28569   0.00000  Uiso   1.00
H100   H     0.44756   0.01266   0.31936   0.00000  Uiso   1.00
H101   H     0.50713   0.22037   0.07701   0.00000  Uiso   1.00
H102   H     0.47346   0.19982   0.11863   0.00000  Uiso   1.00
H103   H     0.54094   0.06066   0.12372   0.00000  Uiso   1.00
H104   H     0.58363   0.05254   0.08482   0.00000  Uiso   1.00
H105   H     0.37343   0.25793   0.46518   0.00000  Uiso   1.00
H106   H     0.35590   0.22009   0.49491   0.00000  Uiso   1.00
H107   H     0.56892   0.06105   0.02748   0.00000  Uiso   1.00
H108   H     0.34995   0.19355   0.21532   0.00000  Uiso   1.00
H109   H     0.65144   0.14009   0.28486   0.00000  Uiso   1.00
H110   H     0.54058   0.00237   0.21714   0.00000  Uiso   1.00
H111   H     0.55036   0.06763   0.46911   0.00000  Uiso   1.00
H112   H     0.41442   0.23014   0.40559   0.00000  Uiso   1.00
H113   H     0.51728   0.16150   0.40303   0.00000  Uiso   1.00
H114   H     0.43757   0.18458   0.07464   0.00000  Uiso   1.00
N115   N     0.44658   0.33004   0.29189   0.00000  Uiso   1.00
N116   N     0.50400   0.20054   0.09834   0.00000  Uiso   1.00
N117   N     0.56686   0.07585   0.10386   0.00000  Uiso   1.00
N118   N     0.38247   0.24143   0.48395   0.00000  Uiso   1.00
N119   N     0.50943   0.07506   0.39427   0.00000  Uiso   1.00
O120   O     0.50000   0.16667   0.25000   0.00000  Uiso   1.00
O121   O     0.49027   0.12393   0.16625   0.00000  Uiso   1.00
O122   O     0.46020   0.20646   0.33749   0.00000  Uiso   1.00
O123   O     0.54421   0.17493   0.15877   0.00000  Uiso   1.00
O124   O     0.50532   0.16135   0.33749   0.00000  Uiso   1.00
O125   O     0.51182   0.08101   0.27821   0.00000  Uiso   1.00
O126   O     0.47914   0.26136   0.26767   0.00000  Uiso   1.00
O127   O     0.40785   0.13251   0.23607   0.00000  Uiso   1.00
O128   O     0.60119   0.19179   0.21806   0.00000  Uiso   1.00
O129   O     0.40323   0.18960   0.27820   0.00000  Uiso   1.00
O130   O     0.58773   0.15277   0.26768   0.00000  Uiso   1.00
O131   O     0.47133   0.06903   0.23607   0.00000  Uiso   1.00
O132   O     0.53771   0.25527   0.21806   0.00000  Uiso   1.00
Zn133  Zn    0.52577   0.14090   0.28278   0.00000  Uiso   1.00
Zn134  Zn    0.46792   0.12378   0.22258   0.00000  Uiso   1.00
Zn135  Zn    0.54500   0.19664   0.21188   0.00000  Uiso   1.00
Zn136  Zn    0.46131   0.20535   0.28277   0.00000  Uiso   1.00
C137   C     0.71913   0.15990   0.25877   0.00000  Uiso   1.00
C138   C     0.84742   0.11439   0.46229   0.00000  Uiso   1.00
C139   C     0.86738   0.09486   0.48330   0.00000  Uiso   1.00
C140   C     0.94766   0.17356   0.24126   0.00000  Uiso   1.00
C141   C     0.86579   0.10902   0.02248   0.00000  Uiso   1.00
C142   C     0.84280   0.14322   0.04211   0.00000  Uiso   1.00
C143   C     0.88571   0.08783   0.04255   0.00000  Uiso   1.00
C144   C     0.88252   0.09949   0.08250   0.00000  Uiso   1.00
C145   C     0.84577   0.15893   0.08088   0.00000  Uiso   1.00
C146   C     0.99362   0.17626   0.23780   0.00000  Uiso   1.00
C147   C     0.67375   0.15751   0.26216   0.00000  Uiso   1.00
C148   C     0.76464   0.21528   0.42101   0.00000  Uiso   1.00
C149   C     0.84655   0.32201   0.23901   0.00000  Uiso   1.00
C150   C     0.81714   0.01269   0.26275   0.00000  Uiso   1.00
C151   C     0.82297   0.05625   0.25851   0.00000  Uiso   1.00
C152   C     0.84326   0.27761   0.24154   0.00000  Uiso   1.00
C153   C     0.85472   0.14513   0.14404   0.00000  Uiso   1.00
C154   C     0.81204   0.18777   0.35623   0.00000  Uiso   1.00
C155   C     0.79960   0.19344   0.39964   0.00000  Uiso   1.00
C156   C     0.86271   0.13524   0.10142   0.00000  Uiso   1.00
C157   C     0.75104   0.21796   0.46230   0.00000  Uiso   1.00
C158   C     0.84484   0.09265   0.42446   0.00000  Uiso   1.00
C159   C     0.82107   0.17425   0.41971   0.00000  Uiso   1.00
C160   C     0.80577   0.17277   0.46062   0.00000  Uiso   1.00
C161   C     0.77203   0.19711   0.48227   0.00000  Uiso   1.00
C162   C     0.82464   0.14938   0.48083   0.00000  Uiso   1.00
C163   C     0.81775   0.15967   0.02224   0.00000  Uiso   1.00
C164   C     0.78279   0.18230   0.04300   0.00000  Uiso   1.00
C165   C     0.75998   0.20014   0.02345   0.00000  Uiso   1.00
H166   H     0.73347   0.21723   0.04099   0.00000  Uiso   1.00
H167   H     0.75234   0.00356   0.28569   0.00000  Uiso   1.00
H168   H     0.78089   0.01266   0.31936   0.00000  Uiso   1.00
H169   H     0.84046   0.22037   0.07701   0.00000  Uiso   1.00
H170   H     0.80679   0.19982   0.11863   0.00000  Uiso   1.00
H171   H     0.87428   0.06066   0.12372   0.00000  Uiso   1.00
H172   H     0.91696   0.05254   0.08482   0.00000  Uiso   1.00
H173   H     0.70676   0.25793   0.46518   0.00000  Uiso   1.00
H174   H     0.68923   0.22009   0.49491   0.00000  Uiso   1.00
H175   H     0.90225   0.06105   0.02748   0.00000  Uiso   1.00
H176   H     0.68329   0.19355   0.21532   0.00000  Uiso   1.00
H177   H     0.98478   0.14009   0.28486   0.00000  Uiso   1.00
H178   H     0.87391   0.00237   0.21714   0.00000  Uiso   1.00
H179   H     0.88369   0.06763   0.46911   0.00000  Uiso   1.00
H180   H     0.74775   0.23014   0.40559   0.00000  Uiso   1.00
H181   H     0.85061   0.16150   0.40303   0.00000  Uiso   1.00
H182   H     0.77091   0.18458   0.07464   0.00000  Uiso   1.00
N183   N     0.77991   0.33004   0.29189   0.00000  Uiso   1.00
N184   N     0.83733   0.20054   0.09834   0.00000  Uiso   1.00
N185   N     0.90020   0.07585   0.10386   0.00000  Uiso   1.00
N186   N     0.71580   0.24143   0.48395   0.00000  Uiso   1.00
N187   N     0.84277   0.07506   0.39427   0.00000  Uiso   1.00
O188   O     0.83333   0.16667   0.25000   0.00000  Uiso   1.00
O189   O     0.82360   0.12393   0.16625   0.00000  Uiso   1.00
O190   O     0.79354   0.20646   0.33749   0.00000  Uiso   1.00
O191   O     0.87755   0.17493   0.15877   0.00000  Uiso   1.00
O192   O     0.83865   0.16135   0.33749   0.00000  Uiso   1.00
O193   O     0.84515   0.08101   0.27821   0.00000  Uiso   1.00
O194   O     0.81247   0.26136   0.26767   0.00000  Uiso   1.00
O195   O     0.74119   0.13251   0.23607   0.00000  Uiso   1.00
O196   O     0.93452   0.19179   0.21806   0.00000  Uiso   1.00
O197   O     0.73656   0.18960   0.27820   0.00000  Uiso   1.00
O198   O     0.92106   0.15277   0.26768   0.00000  Uiso   1.00
O199   O     0.80467   0.06903   0.23607   0.00000  Uiso   1.00
O200   O     0.87104   0.25527   0.21806   0.00000  Uiso   1.00
Zn201  Zn    0.85910   0.14090   0.28278   0.00000  Uiso   1.00
Zn202  Zn    0.80125   0.12378   0.22258   0.00000  Uiso   1.00
Zn203  Zn    0.87833   0.19664   0.21188   0.00000  Uiso   1.00
Zn204  Zn    0.79465   0.20535   0.28277   0.00000  Uiso   1.00
C205   C     0.05246   0.49323   0.25877   0.00000  Uiso   1.00
C206   C     0.18075   0.44773   0.46229   0.00000  Uiso   1.00
C207   C     0.20072   0.42820   0.48330   0.00000  Uiso   1.00
C208   C     0.28099   0.50689   0.24126   0.00000  Uiso   1.00
C209   C     0.19912   0.44235   0.02248   0.00000  Uiso   1.00
C210   C     0.17613   0.47656   0.04211   0.00000  Uiso   1.00
C211   C     0.21904   0.42116   0.04255   0.00000  Uiso   1.00
C212   C     0.21585   0.43282   0.08250   0.00000  Uiso   1.00
C213   C     0.17911   0.49226   0.08088   0.00000  Uiso   1.00
C214   C     0.32696   0.50959   0.23780   0.00000  Uiso   1.00
C215   C     0.00709   0.49084   0.26216   0.00000  Uiso   1.00
C216   C     0.09797   0.54861   0.42101   0.00000  Uiso   1.00
C217   C     0.17989   0.65534   0.23901   0.00000  Uiso   1.00
C218   C     0.15047   0.34602   0.26275   0.00000  Uiso   1.00
C219   C     0.15631   0.38958   0.25851   0.00000  Uiso   1.00
C220   C     0.17659   0.61094   0.24154   0.00000  Uiso   1.00
C221   C     0.18806   0.47846   0.14404   0.00000  Uiso   1.00
C222   C     0.14538   0.52110   0.35623   0.00000  Uiso   1.00
C223   C     0.13294   0.52677   0.39964   0.00000  Uiso   1.00
C224   C     0.19605   0.46857   0.10142   0.00000  Uiso   1.00
C225   C     0.08437   0.55129   0.46230   0.00000  Uiso   1.00
C226   C     0.17817   0.42598   0.42446   0.00000  Uiso   1.00
C227   C     0.15440   0.50758   0.41971   0.00000  Uiso   1.00
C228   C     0.13911   0.50610   0.46062   0.00000  Uiso   1.00
C229   C     0.10537   0.53044   0.48227   0.00000  Uiso   1.00
C230   C     0.15797   0.48271   0.48083   0.00000  Uiso   1.00
C231   C     0.15109   0.49300   0.02224   0.00000  Uiso   1.00
C232   C     0.11612   0.51564   0.04300   0.00000  Uiso   1.00
C233   C     0.09331   0.53347   0.02345   0.00000  Uiso   1.00
H234   H     0.06681   0.55057   0.04099   0.00000  Uiso   1.00
H235   H     0.08567   0.33690   0.28569   0.00000  Uiso   1.00
H236   H     0.11422   0.34600   0.31936   0.00000  Uiso   1.00
H237   H     0.17379   0.55370   0.07701   0.00000  Uiso   1.00
H238   H     0.14013   0.53315   0.11863   0.00000  Uiso   1.00
H239   H     0.20761   0.39400   0.12372   0.00000  Uiso   1.00
H240   H     0.25030   0.38587   0.08482   0.00000  Uiso   1.00
H241   H     0.04010   0.59126   0.46518   0.00000  Uiso   1.00
H242   H     0.02256   0.55342   0.49491   0.00000  Uiso   1.00
H243   H     0.23558   0.39438   0.02748   0.00000  Uiso   1.00
H244   H     0.01662   0.52688   0.21532   0.00000  Uiso   1.00
H245   H     0.31811   0.47342   0.28486   0.00000  Uiso   1.00
H246   H     0.20724   0.33570   0.21714   0.00000  Uiso   1.00
H247   H     0.21702   0.40096   0.46911   0.00000  Uiso   1.00
H248   H     0.08109   0.56348   0.40559   0.00000  Uiso   1.00
H249   H     0.18394   0.49484   0.40303   0.00000  Uiso   1.00
H250   H     0.10424   0.51791   0.07464   0.00000  Uiso   1.00
N251   N     0.11325   0.66338   0.29189   0.00000  Uiso   1.00
N252   N     0.17066   0.53387   0.09834   0.00000  Uiso   1.00
N253   N     0.23353   0.40919   0.10386   0.00000  Uiso   1.00
N254   N     0.04914   0.57476   0.48395   0.00000  Uiso   1.00
N255   N     0.17610   0.40839   0.39427   0.00000  Uiso   1.00
O256   O     0.16667   0.50000   0.25000   0.00000  Uiso   1.00
O257   O     0.15693   0.45726   0.16625   0.00000  Uiso   1.00
O258   O     0.12687   0.53979   0.33749   0.00000  Uiso   1.00
O259   O     0.21088   0.50826   0.15877   0.00000  Uiso   1.00
O260   O     0.17198   0.49468   0.33749   0.00000  Uiso   1.00
O261   O     0.17849   0.41434   0.27821   0.00000  Uiso   1.00
O262   O     0.14581   0.59469   0.26767   0.00000  Uiso   1.00
O263   O     0.07452   0.46584   0.23607   0.00000  Uiso   1.00
O264   O     0.26785   0.52512   0.21806   0.00000  Uiso   1.00
O265   O     0.06990   0.52293   0.27820   0.00000  Uiso   1.00
O266   O     0.25440   0.48610   0.26768   0.00000  Uiso   1.00
O267   O     0.13800   0.40236   0.23607   0.00000  Uiso   1.00
O268   O     0.20437   0.58860   0.21806   0.00000  Uiso   1.00
Zn269  Zn    0.19244   0.47423   0.28278   0.00000  Uiso   1.00
Zn270  Zn    0.13459   0.45711   0.22258   0.00000  Uiso   1.00
Zn271  Zn    0.21166   0.52997   0.21188   0.00000  Uiso   1.00
Zn272  Zn    0.12798   0.53868   0.28277   0.00000  Uiso   1.00
C273   C     0.38580   0.49323   0.25877   0.00000  Uiso   1.00
C274   C     0.51409   0.44773   0.46229   0.00000  Uiso   1.00
C275   C     0.53405   0.42820   0.48330   0.00000  Uiso   1.00
C276   C     0.61433   0.50689   0.24126   0.00000  Uiso   1.00
C277   C     0.53246   0.44235   0.02248   0.00000  Uiso   1.00
C278   C     0.50947   0.47656   0.04211   0.00000  Uiso   1.00
C279   C     0.55238   0.42116   0.04255   0.00000  Uiso   1.00
C280   C     0.54918   0.43282   0.08250   0.00000  Uiso   1.00
C281   C     0.51244   0.49226   0.08088   0.00000  Uiso   1.00
C282   C     0.66029   0.50959   0.23780   0.00000  Uiso   1.00
C283   C     0.34042   0.49084   0.26216   0.00000  Uiso   1.00
C284   C     0.43130   0.54861   0.42101   0.00000  Uiso   1.00
C285   C     0.51322   0.65534   0.23901   0.00000  Uiso   1.00
C286   C     0.48381   0.34602   0.26275   0.00000  Uiso   1.00
C287   C     0.48964   0.38958   0.25851   0.00000  Uiso   1.00
C288   C     0.50992   0.61094   0.24154   0.00000  Uiso   1.00
C289   C     0.52139   0.47846   0.14404   0.00000  Uiso   1.00
C290   C     0.47871   0.52110   0.35623   0.00000  Uiso   1.00
C291   C     0.46627   0.52677   0.39964   0.00000  Uiso   1.00
C292   C     0.52938   0.46857   0.10142   0.00000  Uiso   1.00
C293   C     0.41771   0.55129   0.46230   0.00000  Uiso   1.00
C294   C     0.51151   0.42598   0.42446   0.00000  Uiso   1.00
C295   C     0.48773   0.50758   0.41971   0.00000  Uiso   1.00
C296   C     0.47244   0.50610   0.46062   0.00000  Uiso   1.00
C297   C     0.43870   0.53044   0.48227   0.00000  Uiso   1.00
C298   C     0.49131   0.48271   0.48083   0.00000  Uiso   1.00
C299   C     0.48442   0.49300   0.02224   0.00000  Uiso   1.00
C300   C     0.44945   0.51564   0.04300   0.00000  Uiso   1.00
C301   C     0.42665   0.53347   0.02345   0.00000  Uiso   1.00
H302   H     0.40014   0.55057   0.04099   0.00000  Uiso   1.00
H303   H     0.41900   0.33690   0.28569   0.00000  Uiso   1.00
H304   H     0.44756   0.34600   0.31936   0.00000  Uiso   1.00
H305   H     0.50713   0.55370   0.07701   0.00000  Uiso   1.00
H306   H     0.47346   0.53315   0.11863   0.00000  Uiso   1.00
H307   H     0.54094   0.39400   0.12372   0.00000  Uiso   1.00
H308   H     0.58363   0.38587   0.08482   0.00000  Uiso   1.00
H309   H     0.37343   0.59126   0.46518   0.00000  Uiso   1.00
H310   H     0.35590   0.55342   0.49491   0.00000  Uiso   1.00
H311   H     0.56892   0.39438   0.02748   0.00000  Uiso   1.00
H312   H     0.34995   0.52688   0.21532   0.00000  Uiso   1.00
H313   H     0.65144   0.47342   0.28486   0.00000  Uiso   1.00
H314   H     0.54058   0.33570   0.21714   0.00000  Uiso   1.00
H315   H     0.55036   0.40096   0.46911   0.00000  Uiso   1.00
H316   H     0.41442   0.56348   0.40559   0.00000  Uiso   1.00
H317   H     0.51728   0.49484   0.40303   0.00000  Uiso   1.00
H318   H     0.43757   0.51791   0.07464   0.00000  Uiso   1.00
N319   N     0.44658   0.66338   0.29189   0.00000  Uiso   1.00
N320   N     0.50400   0.53387   0.09834   0.00000  Uiso   1.00
N321   N     0.56686   0.40919   0.10386   0.00000  Uiso   1.00
N322   N     0.38247   0.57476   0.48395   0.00000  Uiso   1.00
N323   N     0.50943   0.40839   0.39427   0.00000  Uiso   1.00
O324   O     0.50000   0.50000   0.25000   0.00000  Uiso   1.00
O325   O     0.49027   0.45726   0.16625   0.00000  Uiso   1.00
O326   O     0.46020   0.53979   0.33749   0.00000  Uiso   1.00
O327   O     0.54421   0.50826   0.15877   0.00000  Uiso   1.00
O328   O     0.50532   0.49468   0.33749   0.00000  Uiso   1.00
O329   O     0.51182   0.41434   0.27821   0.00000  Uiso   1.00
O330   O     0.47914   0.59469   0.26767   0.00000  Uiso   1.00
O331   O     0.40785   0.46584   0.23607   0.00000  Uiso   1.00
O332   O     0.60119   0.52512   0.21806   0.00000  Uiso   1.00
O333   O     0.40323   0.52293   0.27820   0.00000  Uiso   1.00
O334   O     0.58773   0.48610   0.26768   0.00000  Uiso   1.00
O335   O     0.47133   0.40236   0.23607   0.00000  Uiso   1.00
O336   O     0.53771   0.58860   0.21806   0.00000  Uiso   1.00
Zn337  Zn    0.52577   0.47423   0.28278   0.00000  Uiso   1.00
Zn338  Zn    0.46792   0.45711   0.22258   0.00000  Uiso   1.00
Zn339  Zn    0.54500   0.52997   0.21188   0.00000  Uiso   1.00
Zn340  Zn    0.46131   0.53868   0.28277   0.00000  Uiso   1.00
C341   C     0.71913   0.49323   0.25877   0.00000  Uiso   1.00
C342   C     0.84742   0.44773   0.46229   0.00000  Uiso   1.00
C343   C     0.86738   0.42820   0.48330   0.00000  Uiso   1.00
C344   C     0.94766   0.50689   0.24126   0.00000  Uiso   1.00
C345   C     0.86579   0.44235   0.02248   0.00000  Uiso   1.00
C346   C     0.84280   0.47656   0.04211   0.00000  Uiso   1.00
C347   C     0.88571   0.42116   0.04255   0.00000  Uiso   1.00
C348   C     0.88252   0.43282   0.08250   0.00000  Uiso   1.00
C349   C     0.84577   0.49226   0.08088   0.00000  Uiso   1.00
C350   C     0.99362   0.50959   0.23780   0.00000  Uiso   1.00
C351   C     0.67375   0.49084   0.26216   0.00000  Uiso   1.00
C352   C     0.76464   0.54861   0.42101   0.00000  Uiso   1.00
C353   C     0.84655   0.65534   0.23901   0.00000  Uiso   1.00
C354   C     0.81714   0.34602   0.26275   0.00000  Uiso   1.00
C355   C     0.82297   0.38958   0.25851   0.00000  Uiso   1.00
C356   C     0.84326   0.61094   0.24154   0.00000  Uiso   1.00
C357   C     0.85472   0.47846   0.14404   0.00000  Uiso   1.00
C358   C     0.81204   0.52110   0.35623   0.00000  Uiso   1.00
C359   C     0.79960   0.52677   0.39964   0.00000  Uiso   1.00
C360   C     0.86271   0.46857   0.10142   0.00000  Uiso   1.00
C361   C     0.75104   0.55129   0.46230   0.00000  Uiso   1.00
C362   C     0.84484   0.42598   0.42446   0.00000  Uiso   1.00
C363   C     0.82107   0.50758   0.41971   0.00000  Uiso   1.00
C364   C     0.80577   0.50610   0.46062   0.00000  Uiso   1.00
C365   C     0.77203   0.53044   0.48227   0.00000  Uiso   1.00
C366   C     0.82464   0.48271   0.48083   0.00000  Uiso   1.00
C367   C     0.81775   0.49300   0.02224   0.00000  Uiso   1.00
C368   C     0.78279   0.51564   0.04300   0.00000  Uiso   1.00
C369   C     0.75998   0.53347   0.02345   0.00000  Uiso   1.00
H370   H     0.73347   0.55057   0.04099   0.00000  Uiso   1.00
H371   H     0.75234   0.33690   0.28569   0.00000  Uiso   1.00
H372   H     0.78089   0.34600   0.31936   0.00000  Uiso   1.00
H373   H     0.84046   0.55370   0.07701   0.00000  Uiso   1.00
H374   H     0.80679   0.53315   0.11863   0.00000  Uiso   1.00
H375   H     0.87428   0.39400   0.12372   0.00000  Uiso   1.00
H376   H     0.91696   0.38587   0.08482   0.00000  Uiso   1.00
H377   H     0.70676   0.59126   0.46518   0.00000  Uiso   1.00
H378   H     0.68923   0.55342   0.49491   0.00000  Uiso   1.00
H379   H     0.90225   0.39438   0.02748   0.00000  Uiso   1.00
H380   H     0.68329   0.52688   0.21532   0.00000  Uiso   1.00
H381   H     0.98478   0.47342   0.28486   0.00000  Uiso   1.00
H382   H     0.87391   0.33570   0.21714   0.00000  Uiso   1.00
H383   H     0.88369   0.40096   0.46911   0.00000  Uiso   1.00
H384   H     0.74775   0.56348   0.40559   0.00000  Uiso   1.00
H385   H     0.85061   0.49484   0.40303   0.00000  Uiso   1.00
H386   H     0.77091   0.51791   0.07464   0.00000  Uiso   1.00
N387   N     0.77991   0.66338   0.29189   0.00000  Uiso   1.00
N388   N     0.83733   0.53387   0.09834   0.00000  Uiso   1.00
N389   N     0.90020   0.40919   0.10386   0.00000  Uiso   1.00
N390   N     0.71580   0.57476   0.48395   0.00000  Uiso   1.00
N391   N     0.84277   0.40839   0.39427   0.00000  Uiso   1.00
O392   O     0.83333   0.50000   0.25000   0.00000  Uiso   1.00
O393   O     0.82360   0.45726   0.16625   0.00000  Uiso   1.00
O394   O     0.79354   0.53979   0.33749   0.00000  Uiso   1.00
O395   O     0.87755   0.50826   0.15877   0.00000  Uiso   1.00
O396   O     0.83865   0.49468   0.33749   0.00000  Uiso   1.00
O397   O     0.84515   0.41434   0.27821   0.00000  Uiso   1.00
O398   O     0.81247   0.59469   0.26767   0.00000  Uiso   1.00
O399   O     0.74119   0.46584   0.23607   0.00000  Uiso   1.00
O400   O     0.93452   0.52512   0.21806   0.00000  Uiso   1.00
O401   O     0.73656   0.52293   0.27820   0.00000  Uiso   1.00
O402   O     0.92106   0.48610   0.26768   0.00000  Uiso   1.00
O403   O     0.80467   0.40236   0.23607   0.00000  Uiso   1.00
O404   O     0.87104   0.58860   0.21806   0.00000  Uiso   1.00
Zn405  Zn    0.85910   0.47423   0.28278   0.00000  Uiso   1.00
Zn406  Zn    0.80125   0.45711   0.22258   0.00000  Uiso   1.00
Zn407  Zn    0.87833   0.52997   0.21188   0.00000  Uiso   1.00
Zn408  Zn    0.79465   0.53868   0.28277   0.00000  Uiso   1.00
C409   C     0.05246   0.82656   0.25877   0.00000  Uiso   1.00
C410   C     0.18075   0.78106   0.46229   0.00000  Uiso   1.00
C411   C     0.20072   0.76153   0.48330   0.00000  Uiso   1.00
C412   C     0.28099   0.84023   0.24126   0.00000  Uiso   1.00
C413   C     0.19912   0.77568   0.02248   0.00000  Uiso   1.00
C414   C     0.17613   0.80989   0.04211   0.00000  Uiso   1.00
C415   C     0.21904   0.75450   0.04255   0.00000  Uiso   1.00
C416   C     0.21585   0.76616   0.08250   0.00000  Uiso   1.00
C417   C     0.17911   0.82559   0.08088   0.00000  Uiso   1.00
C418   C     0.32696   0.84293   0.23780   0.00000  Uiso   1.00
C419   C     0.00709   0.82417   0.26216   0.00000  Uiso   1.00
C420   C     0.09797   0.88194   0.42101   0.00000  Uiso   1.00
C421   C     0.17989   0.98868   0.23901   0.00000  Uiso   1.00
C422   C     0.15047   0.67935   0.26275   0.00000  Uiso   1.00
C423   C     0.15631   0.72291   0.25851   0.00000  Uiso   1.00
C424   C     0.17659   0.94427   0.24154   0.00000  Uiso   1.00
C425   C     0.18806   0.81179   0.14404   0.00000  Uiso   1.00
C426   C     0.14538   0.85444   0.35623   0.00000  Uiso   1.00
C427   C     0.13294   0.86010   0.39964   0.00000  Uiso   1.00
C428   C     0.19605   0.80190   0.10142   0.00000  Uiso   1.00
C429   C     0.08437   0.88462   0.46230   0.00000  Uiso   1.00
C430   C     0.17817   0.75932   0.42446   0.00000  Uiso   1.00
C431   C     0.15440   0.84091   0.41971   0.00000  Uiso   1.00
C432   C     0.13911   0.83943   0.46062   0.00000  Uiso   1.00
C433   C     0.10537   0.86377   0.48227   0.00000  Uiso   1.00
C434   C     0.15797   0.81604   0.48083   0.00000  Uiso   1.00
C435   C     0.15109   0.82634   0.02224   0.00000  Uiso   1.00
C436   C     0.11612   0.84897   0.04300   0.00000  Uiso   1.00
C437   C     0.09331   0.86681   0.02345   0.00000  Uiso   1.00
H438   H     0.06681   0.88390   0.04099   0.00000  Uiso   1.00
H439   H     0.08567   0.67023   0.28569   0.00000  Uiso   1.00
H440   H     0.11422   0.67933   0.31936   0.00000  Uiso   1.00
H441   H     0.17379   0.88703   0.07701   0.00000  Uiso   1.00
H442   H     0.14013   0.86648   0.11863   0.00000  Uiso   1.00
H443   H     0.20761   0.72733   0.12372   0.00000  Uiso   1.00
H444   H     0.25030   0.71920   0.08482   0.00000  Uiso   1.00
H445   H     0.04010   0.92460   0.46518   0.00000  Uiso   1.00
H446   H     0.02256   0.88675   0.49491   0.00000  Uiso   1.00
H447   H     0.23558   0.72772   0.02748   0.00000  Uiso   1.00
H448   H     0.01662   0.86021   0.21532   0.00000  Uiso   1.00
H449   H     0.31811   0.80676   0.28486   0.00000  Uiso   1.00
H450   H     0.20724   0.66904   0.21714   0.00000  Uiso   1.00
H451   H     0.21702   0.73429   0.46911   0.00000  Uiso   1.00
H452   H     0.08109   0.89681   0.40559   0.00000  Uiso   1.00
H453   H     0.18394   0.82817   0.40303   0.00000  Uiso   1.00
H454   H     0.10424   0.85124   0.07464   0.00000  Uiso   1.00
N455   N     0.11325   0.99671   0.29189   0.00000  Uiso   1.00
N456   N     0.17066   0.86721   0.09834   0.00000  Uiso   1.00
N457   N     0.23353   0.74252   0.10386   0.00000  Uiso   1.00
N458   N     0.04914   0.90810   0.48395   0.00000  Uiso   1.00
N459   N     0.17610   0.74173   0.39427   0.00000  Uiso   1.00
O460   O     0.16667   0.83333   0.25000   0.00000  Uiso   1.00
O461   O     0.15693   0.79060   0.16625   0.00000  Uiso   1.00
O462   O     0.12687   0.87313   0.33749   0.00000  Uiso   1.00
O463   O     0.21088   0.84159   0.15877   0.00000  Uiso   1.00
O464   O     0.17198   0.82802   0.33749   0.00000  Uiso   1.00
O465   O     0.17849   0.74768   0.27821   0.00000  Uiso   1.00
O466   O     0.14581   0.92803   0.26767   0.00000  Uiso   1.00
O467   O     0.07452   0.79917   0.23607   0.00000  Uiso   1.00
O468   O     0.26785   0.85845   0.21806   0.00000  Uiso   1.00
O469   O     0.06990   0.85627   0.27820   0.00000  Uiso   1.00
O470   O     0.25440   0.81944   0.26768   0.00000  Uiso   1.00
O471   O     0.13800   0.73570   0.23607   0.00000  Uiso   1.00
O472   O     0.20437   0.92193   0.21806   0.00000  Uiso   1.00
Zn473  Zn    0.19244   0.80756   0.28278   0.00000  Uiso   1.00
Zn474  Zn    0.13459   0.79044   0.22258   0.00000  Uiso   1.00
Zn475  Zn    0.21166   0.86331   0.21188   0.00000  Uiso   1.00
Zn476  Zn    0.12798   0.87202   0.28277   0.00000  Uiso   1.00
C477   C     0.38580   0.82656   0.25877   0.00000  Uiso   1.00
C478   C     0.51409   0.78106   0.46229   0.00000  Uiso   1.00
C479   C     0.53405   0.76153   0.48330   0.00000  Uiso   1.00
C480   C     0.61433   0.84023   0.24126   0.00000  Uiso   1.00
C481   C     0.53246   0.77568   0.02248   0.00000  Uiso   1.00
C482   C     0.50947   0.80989   0.04211   0.00000  Uiso   1.00
C483   C     0.55238   0.75450   0.04255   0.00000  Uiso   1.00
C484   C     0.54918   0.76616   0.08250   0.00000  Uiso   1.00
C485   C     0.51244   0.82559   0.08088   0.00000  Uiso   1.00
C486   C     0.66029   0.84293   0.23780   0.00000  Uiso   1.00
C487   C     0.34042   0.82417   0.26216   0.00000  Uiso   1.00
C488   C     0.43130   0.88194   0.42101   0.00000  Uiso   1.00
C489   C     0.51322   0.98868   0.23901   0.00000  Uiso   1.00
C490   C     0.48381   0.67935   0.26275   0.00000  Uiso   1.00
C491   C     0.48964   0.72291   0.25851   0.00000  Uiso   1.00
C492   C     0.50992   0.94427   0.24154   0.00000  Uiso   1.00
C493   C     0.52139   0.81179   0.14404   0.00000  Uiso   1.00
C494   C     0.47871   0.85444   0.35623   0.00000  Uiso   1.00
C495   C     0.46627   0.86010   0.39964   0.00000  Uiso   1.00
C496   C     0.52938   0.80190   0.10142   0.00000  Uiso   1.00
C497   C     0.41771   0.88462   0.46230   0.00000  Uiso   1.00
C498   C     0.51151   0.75932   0.42446   0.00000  Uiso   1.00
C499   C     0.48773   0.84091   0.41971   0.00000  Uiso   1.00
C500   C     0.47244   0.83943   0.46062   0.00000  Uiso   1.00
C501   C     0.43870   0.86377   0.48227   0.00000  Uiso   1.00
C502   C     0.49131   0.81604   0.48083   0.00000  Uiso   1.00
C503   C     0.48442   0.82634   0.02224   0.00000  Uiso   1.00
C504   C     0.44945   0.84897   0.04300   0.00000  Uiso   1.00
C505   C     0.42665   0.86681   0.02345   0.00000  Uiso   1.00
H506   H     0.40014   0.88390   0.04099   0.00000  Uiso   1.00
H507   H     0.41900   0.67023   0.28569   0.00000  Uiso   1.00
H508   H     0.44756   0.67933   0.31936   0.00000  Uiso   1.00
H509   H     0.50713   0.88703   0.07701   0.00000  Uiso   1.00
H510   H     0.47346   0.86648   0.11863   0.00000  Uiso   1.00
H511   H     0.54094   0.72733   0.12372   0.00000  Uiso   1.00
H512   H     0.58363   0.71920   0.08482   0.00000  Uiso   1.00
H513   H     0.37343   0.92460   0.46518   0.00000  Uiso   1.00
H514   H     0.35590   0.88675   0.49491   0.00000  Uiso   1.00
H515   H     0.56892   0.72772   0.02748   0.00000  Uiso   1.00
H516   H     0.34995   0.86021   0.21532   0.00000  Uiso   1.00
H517   H     0.65144   0.80676   0.28486   0.00000  Uiso   1.00
H518   H     0.54058   0.66904   0.21714   0.00000  Uiso   1.00
H519   H     0.55036   0.73429   0.46911   0.00000  Uiso   1.00
H520   H     0.41442   0.89681   0.40559   0.00000  Uiso   1.00
H521   H     0.51728   0.82817   0.40303   0.00000  Uiso   1.00
H522   H     0.43757   0.85124   0.07464   0.00000  Uiso   1.00
N523   N     0.44658   0.99671   0.29189   0.00000  Uiso   1.00
N524   N     0.50400   0.86721   0.09834   0.00000  Uiso   1.00
N525   N     0.56686   0.74252   0.10386   0.00000  Uiso   1.00
N526   N     0.38247   0.90810   0.48395   0.00000  Uiso   1.00
N527   N     0.50943   0.74173   0.39427   0.00000  Uiso   1.00
O528   O     0.50000   0.83333   0.25000   0.00000  Uiso   1.00
O529   O     0.49027   0.79060   0.16625   0.00000  Uiso   1.00
O530   O     0.46020   0.87313   0.33749   0.00000  Uiso   1.00
O531   O     0.54421   0.84159   0.15877   0.00000  Uiso   1.00
O532   O     0.50532   0.82802   0.33749   0.00000  Uiso   1.00
O533   O     0.51182   0.74768   0.27821   0.00000  Uiso   1.00
O534   O     0.47914   0.92803   0.26767   0.00000  Uiso   1.00
O535   O     0.40785   0.79917   0.23607   0.00000  Uiso   1.00
O536   O     0.60119   0.85845   0.21806   0.00000  Uiso   1.00
O537   O     0.40323   0.85627   0.27820   0.00000  Uiso   1.00
O538   O     0.58773   0.81944   0.26768   0.00000  Uiso   1.00
O539   O     0.47133   0.73570   0.23607   0.00000  Uiso   1.00
O540   O     0.53771   0.92193   0.21806   0.00000  Uiso   1.00
Zn541  Zn    0.52577   0.80756   0.28278   0.00000  Uiso   1.00
Zn542  Zn    0.46792   0.79044   0.22258   0.00000  Uiso   1.00
Zn543  Zn    0.54500   0.86331   0.21188   0.00000  Uiso   1.00
Zn544  Zn    0.46131   0.87202   0.28277   0.00000  Uiso   1.00
C545   C     0.71913   0.82656   0.25877   0.00000  Uiso   1.00
C546   C     0.84742   0.78106   0.46229   0.00000  Uiso   1.00
C547   C     0.86738   0.76153   0.48330   0.00000  Uiso   1.00
C548   C     0.94766   0.84023   0.24126   0.00000  Uiso   1.00
C549   C     0.86579   0.77568   0.02248   0.00000  Uiso   1.00
C550   C     0.84280   0.80989   0.04211   0.00000  Uiso   1.00
C551   C     0.88571   0.75450   0.04255   0.00000  Uiso   1.00
C552   C     0.88252   0.76616   0.08250   0.00000  Uiso   1.00
C553   C     0.84577   0.82559   0.08088   0.00000  Uiso   1.00
C554   C     0.99362   0.84293   0.23780   0.00000  Uiso   1.00
C555   C     0.67375   0.82417   0.26216   0.00000  Uiso   1.00
C556   C     0.76464   0.88194   0.42101   0.00000  Uiso   1.00
C557   C     0.84655   0.98868   0.23901   0.00000  Uiso   1.00
C558   C     0.81714   0.67935   0.26275   0.00000  Uiso   1.00
C559   C     0.82297   0.72291   0.25851   0.00000  Uiso   1.00
C560   C     0.84326   0.94427   0.24154   0.00000  Uiso   1.00
C561   C     0.85472   0.81179   0.14404   0.00000  Uiso   1.00
C562   C     0.81204   0.85444   0.35623   0.00000  Uiso   1.00
C563   C     0.79960   0.86010   0.39964   0.00000  Uiso   1.00
C564   C     0.86271   0.80190   0.10142   0.00000  Uiso   1.00
C565   C     0.75104   0.88462   0.46230   0.00000  Uiso   1.00
C566   C     0.84484   0.75932   0.42446   0.00000  Uiso   1.00
C567   C     0.82107   0.84091   0.41971   0.00000  Uiso   1.00
C568   C     0.80577   0.83943   0.46062   0.00000  Uiso   1.00
C569   C     0.77203   0.86377   0.48227   0.00000  Uiso   1.00
C570   C     0.82464   0.81604   0.48083   0.00000  Uiso   1.00
C571   C     0.81775   0.82634   0.02224   0.00000  Uiso   1.00
C572   C     0.78279   0.84897   0.04300   0.00000  Uiso   1.00
C573   C     0.75998   0.86681   0.02345   0.00000  Uiso   1.00
H574   H     0.73347   0.88390   0.04099   0.00000  Uiso   1.00
H575   H     0.75234   0.67023   0.28569   0.00000  Uiso   1.00
H576   H     0.78089   0.67933   0.31936   0.00000  Uiso   1.00
H577   H     0.84046   0.88703   0.07701   0.00000  Uiso   1.00
H578   H     0.80679   0.86648   0.11863   0.00000  Uiso   1.00
H579   H     0.87428   0.72733   0.12372   0.00000  Uiso   1.00
H580   H     0.91696   0.71920   0.08482   0.00000  Uiso   1.00
H581   H     0.70676   0.92460   0.46518   0.00000  Uiso   1.00
H582   H     0.68923   0.88675   0.49491   0.00000  Uiso   1.00
H583   H     0.90225   0.72772   0.02748   0.00000  Uiso   1.00
H584   H     0.68329   0.86021   0.21532   0.00000  Uiso   1.00
H585   H     0.98478   0.80676   0.28486   0.00000  Uiso   1.00
H586   H     0.87391   0.66904   0.21714   0.00000  Uiso   1.00
H587   H     0.88369   0.73429   0.46911   0.00000  Uiso   1.00
H588   H     0.74775   0.89681   0.40559   0.00000  Uiso   1.00
H589   H     0.85061   0.82817   0.40303   0.00000  Uiso   1.00
H590   H     0.77091   0.85124   0.07464   0.00000  Uiso   1.00
N591   N     0.77991   0.99671   0.29189   0.00000  Uiso   1.00
N592   N     0.83733   0.86721   0.09834   0.00000  Uiso   1.00
N593   N     0.90020   0.74252   0.10386   0.00000  Uiso   1.00
N594   N     0.71580   0.90810   0.48395   0.00000  Uiso   1.00
N595   N     0.84277   0.74173   0.39427   0.00000  Uiso   1.00
O596   O     0.83333   0.83333   0.25000   0.00000  Uiso   1.00
O597   O     0.82360   0.79060   0.16625   0.00000  Uiso   1.00
O598   O     0.79354   0.87313   0.33749   0.00000  Uiso   1.00
O599   O     0.87755   0.84159   0.15877   0.00000  Uiso   1.00
O600   O     0.83865   0.82802   0.33749   0.00000  Uiso   1.00
O601   O     0.84515   0.74768   0.27821   0.00000  Uiso   1.00
O602   O     0.81247   0.92803   0.26767   0.00000  Uiso   1.00
O603   O     0.74119   0.79917   0.23607   0.00000  Uiso   1.00
O604   O     0.93452   0.85845   0.21806   0.00000  Uiso   1.00
O605   O     0.73656   0.85627   0.27820   0.00000  Uiso   1.00
O606   O     0.92106   0.81944   0.26768   0.00000  Uiso   1.00
O607   O     0.80467   0.73570   0.23607   0.00000  Uiso   1.00
O608   O     0.87104   0.92193   0.21806   0.00000  Uiso   1.00
Zn609  Zn    0.85910   0.80756   0.28278   0.00000  Uiso   1.00
Zn610  Zn    0.80125   0.79044   0.22258   0.00000  Uiso   1.00
Zn611  Zn    0.87833   0.86331   0.21188   0.00000  Uiso   1.00
Zn612  Zn    0.79465   0.87202   0.28277   0.00000  Uiso   1.00
C613   C     0.05246   0.15990   0.75877   0.00000  Uiso   1.00
C614   C     0.18075   0.11439   0.96229   0.00000  Uiso   1.00
C615   C     0.20072   0.09486   0.98330   0.00000  Uiso   1.00
C616   C     0.28099   0.17356   0.74126   0.00000  Uiso   1.00
C617   C     0.19912   0.10902   0.52248   0.00000  Uiso   1.00
C618   C     0.17613   0.14322   0.54211   0.00000  Uiso   1.00
C619   C     0.21904   0.08783   0.54255   0.00000  Uiso   1.00
C620   C     0.21585   0.09949   0.58250   0.00000  Uiso   1.00
C621   C     0.17911   0.15893   0.58088   0.00000  Uiso   1.00
C622   C     0.32696   0.17626   0.73780   0.00000  Uiso   1.00
C623   C     0.00709   0.15751   0.76216   0.00000  Uiso   1.00
C624   C     0.09797   0.21528   0.92101   0.00000  Uiso   1.00
C625   C     0.17989   0.32201   0.73901   0.00000  Uiso   1.00
C626   C     0.15047   0.01269   0.76275   0.00000  Uiso   1.00
C627   C     0.15631   0.05625   0.75851   0.00000  Uiso   1.00
C628   C     0.17659   0.27761   0.74154   0.00000  Uiso   1.00
C629   C     0.18806   0.14513   0.64404   0.00000  Uiso   1.00
C630   C     0.14538   0.18777   0.85623   0.00000  Uiso   1.00
C631   C     0.13294   0.19344   0.89964   0.00000  Uiso   1.00
C632   C     0.19605   0.13524   0.60142   0.00000  Uiso   1.00
C633   C     0.08437   0.21796   0.96230   0.00000  Uiso   1.00
C634   C     0.17817   0.09265   0.92446   0.00000  Uiso   1.00
C635   C     0.15440   0.17425   0.91971   0.00000  Uiso   1.00
C636   C     0.13911   0.17277   0.96062   0.00000  Uiso   1.00
C637   C     0.10537   0.19711   0.98227   0.00000  Uiso   1.00
C638   C     0.15797   0.14938   0.98083   0.00000  Uiso   1.00
C639   C     0.15109   0.15967   0.52224   0.00000  Uiso   1.00
C640   C     0.11612   0.18230   0.54300   0.00000  Uiso   1.00
C641   C     0.09331   0.20014   0.52345   0.00000  Uiso   1.00
H642   H     0.06681   0.21723   0.54099   0.00000  Uiso   1.00
H643   H     0.08567   0.00356   0.78569   0.00000  Uiso   1.00
H644   H     0.11422   0.01266   0.81936   0.00000  Uiso   1.00
H645   H     0.17379   0.22037   0.57701   0.00000  Uiso   1.00
H646   H     0.14013   0.19982   0.61863   0.00000  Uiso   1.00
H647   H     0.20761   0.06066   0.62372   0.00000  Uiso   1.00
H648   H     0.25030   0.05254   0.58482   0.00000  Uiso   1.00
H649   H     0.04010   0.25793   0.96518   0.00000  Uiso   1.00
H650   H     0.02256   0.22009   0.99491   0.00000  Uiso   1.00
H651   H     0.23558   0.06105   0.52748   0.00000  Uiso   1.00
H652   H     0.01662   0.19355   0.71532   0.00000  Uiso   1.00
H653   H     0.31811   0.14009   0.78486   0.00000  Uiso   1.00
H654   H     0.20724   0.00237   0.71714   0.00000  Uiso   1.00
H655   H     0.21702   0.06763   0.96911   0.00000  Uiso   1.00
H656   H     0.08109   0.23014   0.90559   0.00000  Uiso   1.00
H657   H     0.18394   0.16150   0.90303   0.00000  Uiso   1.00
H658   H     0.10424   0.18458   0.57464   0.00000  Uiso   1.00
N659   N     0.11325   0.33004   0.79189   0.00000  Uiso   1.00
N660   N     0.17066   0.20054   0.59834   0.00000  Uiso   1.00
N661   N     0.23353   0.07585   0.60386   0.00000  Uiso   1.00
N662   N     0.04914   0.24143   0.98395   0.00000  Uiso   1.00
N663   N     0.17610   0.07506   0.89427   0.00000  Uiso   1.00
O664   O     0.16667   0.16667   0.75000   0.00000  Uiso   1.00
O665   O     0.15693   0.12393   0.66625   0.00000  Uiso   1.00
O666   O     0.12687   0.20646   0.83749   0.00000  Uiso   1.00
O667   O     0.21088   0.17493   0.65877   0.00000  Uiso   1.00
O668   O     0.17198   0.16135   0.83749   0.00000  Uiso   1.00
O669   O     0.17849   0.08101   0.77821   0.00000  Uiso   1.00
O670   O     0.14581   0.26136   0.76767   0.00000  Uiso   1.00
O671   O     0.07452   0.13251   0.73607   0.00000  Uiso   1.00
O672   O     0.26785   0.19179   0.71806   0.00000  Uiso   1.00
O673   O     0.06990   0.18960   0.77820   0.00000  Uiso   1.00
O674   O     0.25440   0.15277   0.76768   0.00000  Uiso   1.00
O675   O     0.13800   0.06903   0.73607   0.00000  Uiso   1.00
O676   O     0.20437   0.25527   0.71806   0.00000  Uiso   1.00
Zn677  Zn    0.19244   0.14090   0.78278   0.00000  Uiso   1.00
Zn678  Zn    0.13459   0.12378   0.72258   0.00000  Uiso   1.00
Zn679  Zn    0.21166   0.19664   0.71188   0.00000  Uiso   1.00
Zn680  Zn    0.12798   0.20535   0.78277   0.00000  Uiso   1.00
C681   C     0.38580   0.15990   0.75877   0.00000  Uiso   1.00
C682   C     0.51409   0.11439   0.96229   0.00000  Uiso   1.00
C683   C     0.53405   0.09486   0.98330   0.00000  Uiso   1.00
C684   C     0.61433   0.17356   0.74126   0.00000  Uiso   1.00
C685   C     0.53246   0.10902   0.52248   0.00000  Uiso   1.00
C686   C     0.50947   0.14322   0.54211   0.00000  Uiso   1.00
C687   C     0.55238   0.08783   0.54255   0.00000  Uiso   1.00
C688   C     0.54918   0.09949   0.58250   0.00000  Uiso   1.00
C689   C     0.51244   0.15893   0.58088   0.00000  Uiso   1.00
C690   C     0.66029   0.17626   0.73780   0.00000  Uiso   1.00
C691   C     0.34042   0.15751   0.76216   0.00000  Uiso   1.00
C692   C     0.43130   0.21528   0.92101   0.00000  Uiso   1.00
C693   C     0.51322   0.32201   0.73901   0.00000  Uiso   1.00
C694   C     0.48381   0.01269   0.76275   0.00000  Uiso   1.00
C695   C     0.48964   0.05625   0.75851   0.00000  Uiso   1.00
C696   C     0.50992   0.27761   0.74154   0.00000  Uiso   1.00
C697   C     0.52139   0.14513   0.64404   0.00000  Uiso   1.00
C698   C     0.47871   0.18777   0.85623   0.00000  Uiso   1.00
C699   C     0.46627   0.19344   0.89964   0.00000  Uiso   1.00
C700   C     0.52938   0.13524   0.60142   0.00000  Uiso   1.00
C701   C     0.41771   0.21796   0.96230   0.00000  Uiso   1.00
C702   C     0.51151   0.09265   0.92446   0.00000  Uiso   1.00
C703   C     0.48773   0.17425   0.91971   0.00000  Uiso   1.00
C704   C     0.47244   0.17277   0.96062   0.00000  Uiso   1.00
C705   C     0.43870   0.19711   0.98227   0.00000  Uiso   1.00
C706   C     0.49131   0.14938   0.98083   0.00000  Uiso   1.00
C707   C     0.48442   0.15967   0.52224   0.00000  Uiso   1.00
C708   C     0.44945   0.18230   0.54300   0.00000  Uiso   1.00
C709   C     0.42665   0.20014   0.52345   0.00000  Uiso   1.00
H710   H     0.40014   0.21723   0.54099   0.00000  Uiso   1.00
H711   H     0.41900   0.00356   0.78569   0.00000  Uiso   1.00
H712   H     0.44756   0.01266   0.81936   0.00000  Uiso   1.00
H713   H     0.50713   0.22037   0.57701   0.00000  Uiso   1.00
H714   H     0.47346   0.19982   0.61863   0.00000  Uiso   1.00
H715   H     0.54094   0.06066   0.62372   0.00000  Uiso   1.00
H716   H     0.58363   0.05254   0.58482   0.00000  Uiso   1.00
H717   H     0.37343   0.25793   0.96518   0.00000  Uiso   1.00
H718   H     0.35590   0.22009   0.99491   0.00000  Uiso   1.00
H719   H     0.56892   0.06105   0.52748   0.00000  Uiso   1.00
H720   H     0.34995   0.19355   0.71532   0.00000  Uiso   1.00
H721   H     0.65144   0.14009   0.78486   0.00000  Uiso   1.00
H722   H     0.54058   0.00237   0.71714   0.00000  Uiso   1.00
H723   H     0.55036   0.06763   0.96911   0.00000  Uiso   1.00
H724   H     0.41442   0.23014   0.90559   0.00000  Uiso   1.00
H725   H     0.51728   0.16150   0.90303   0.00000  Uiso   1.00
H726   H     0.43757   0.18458   0.57464   0.00000  Uiso   1.00
N727   N     0.44658   0.33004   0.79189   0.00000  Uiso   1.00
N728   N     0.50400   0.20054   0.59834   0.00000  Uiso   1.00
N729   N     0.56686   0.07585   0.60386   0.00000  Uiso   1.00
N730   N     0.38247   0.24143   0.98395   0.00000  Uiso   1.00
N731   N     0.50943   0.07506   0.89427   0.00000  Uiso   1.00
O732   O     0.50000   0.16667   0.75000   0.00000  Uiso   1.00
O733   O     0.49027   0.12393   0.66625   0.00000  Uiso   1.00
O734   O     0.46020   0.20646   0.83749   0.00000  Uiso   1.00
O735   O     0.54421   0.17493   0.65877   0.00000  Uiso   1.00
O736   O     0.50532   0.16135   0.83749   0.00000  Uiso   1.00
O737   O     0.51182   0.08101   0.77821   0.00000  Uiso   1.00
O738   O     0.47914   0.26136   0.76767   0.00000  Uiso   1.00
O739   O     0.40785   0.13251   0.73607   0.00000  Uiso   1.00
O740   O     0.60119   0.19179   0.71806   0.00000  Uiso   1.00
O741   O     0.40323   0.18960   0.77820   0.00000  Uiso   1.00
O742   O     0.58773   0.15277   0.76768   0.00000  Uiso   1.00
O743   O     0.47133   0.06903   0.73607   0.00000  Uiso   1.00
O744   O     0.53771   0.25527   0.71806   0.00000  Uiso   1.00
Zn745  Zn    0.52577   0.14090   0.78278   0.00000  Uiso   1.00
Zn746  Zn    0.46792   0.12378   0.72258   0.00000  Uiso   1.00
Zn747  Zn    0.54500   0.19664   0.71188   0.00000  Uiso   1.00
Zn748  Zn    0.46131   0.20535   0.78277   0.00000  Uiso   1.00
C749   C     0.71913   0.15990   0.75877   0.00000  Uiso   1.00
C750   C     0.84742   0.11439   0.96229   0.00000  Uiso   1.00
C751   C     0.86738   0.09486   0.98330   0.00000  Uiso   1.00
C752   C     0.94766   0.17356   0.74126   0.00000  Uiso   1.00
C753   C     0.86579   0.10902   0.52248   0.00000  Uiso   1.00
C754   C     0.84280   0.14322   0.54211   0.00000  Uiso   1.00
C755   C     0.88571   0.08783   0.54255   0.00000  Uiso   1.00
C756   C     0.88252   0.09949   0.58250   0.00000  Uiso   1.00
C757   C     0.84577   0.15893   0.58088   0.00000  Uiso   1.00
C758   C     0.99362   0.17626   0.73780   0.00000  Uiso   1.00
C759   C     0.67375   0.15751   0.76216   0.00000  Uiso   1.00
C760   C     0.76464   0.21528   0.92101   0.00000  Uiso   1.00
C761   C     0.84655   0.32201   0.73901   0.00000  Uiso   1.00
C762   C     0.81714   0.01269   0.76275   0.00000  Uiso   1.00
C763   C     0.82297   0.05625   0.75851   0.00000  Uiso   1.00
C764   C     0.84326   0.27761   0.74154   0.00000  Uiso   1.00
C765   C     0.85472   0.14513   0.64404   0.00000  Uiso   1.00
C766   C     0.81204   0.18777   0.85623   0.00000  Uiso   1.00
C767   C     0.79960   0.19344   0.89964   0.00000  Uiso   1.00
C768   C     0.86271   0.13524   0.60142   0.00000  Uiso   1.00
C769   C     0.75104   0.21796   0.96230   0.00000  Uiso   1.00
C770   C     0.84484   0.09265   0.92446   0.00000  Uiso   1.00
C771   C     0.82107   0.17425   0.91971   0.00000  Uiso   1.00
C772   C     0.80577   0.17277   0.96062   0.00000  Uiso   1.00
C773   C     0.77203   0.19711   0.98227   0.00000  Uiso   1.00
C774   C     0.82464   0.14938   0.98083   0.00000  Uiso   1.00
C775   C     0.81775   0.15967   0.52224   0.00000  Uiso   1.00
C776   C     0.78279   0.18230   0.54300   0.00000  Uiso   1.00
C777   C     0.75998   0.20014   0.52345   0.00000  Uiso   1.00
H778   H     0.73347   0.21723   0.54099   0.00000  Uiso   1.00
H779   H     0.75234   0.00356   0.78569   0.00000  Uiso   1.00
H780   H     0.78089   0.01266   0.81936   0.00000  Uiso   1.00
H781   H     0.84046   0.22037   0.57701   0.00000  Uiso   1.00
H782   H     0.80679   0.19982   0.61863   0.00000  Uiso   1.00
H783   H     0.87428   0.06066   0.62372   0.00000  Uiso   1.00
H784   H     0.91696   0.05254   0.58482   0.00000  Uiso   1.00
H785   H     0.70676   0.25793   0.96518   0.00000  Uiso   1.00
H786   H     0.68923   0.22009   0.99491   0.00000  Uiso   1.00
H787   H     0.90225   0.06105   0.52748   0.00000  Uiso   1.00
H788   H     0.68329   0.19355   0.71532   0.00000  Uiso   1.00
H789   H     0.98478   0.14009   0.78486   0.00000  Uiso   1.00
H790   H     0.87391   0.00237   0.71714   0.00000  Uiso   1.00
H791   H     0.88369   0.06763   0.96911   0.00000  Uiso   1.00
H792   H     0.74775   0.23014   0.90559   0.00000  Uiso   1.00
H793   H     0.85061   0.16150   0.90303   0.00000  Uiso   1.00
H794   H     0.77091   0.18458   0.57464   0.00000  Uiso   1.00
N795   N     0.77991   0.33004   0.79189   0.00000  Uiso   1.00
N796   N     0.83733   0.20054   0.59834   0.00000  Uiso   1.00
N797   N     0.90020   0.07585   0.60386   0.00000  Uiso   1.00
N798   N     0.71580   0.24143   0.98395   0.00000  Uiso   1.00
N799   N     0.84277   0.07506   0.89427   0.00000  Uiso   1.00
O800   O     0.83333   0.16667   0.75000   0.00000  Uiso   1.00
O801   O     0.82360   0.12393   0.66625   0.00000  Uiso   1.00
O802   O     0.79354   0.20646   0.83749   0.00000  Uiso   1.00
O803   O     0.87755   0.17493   0.65877   0.00000  Uiso   1.00
O804   O     0.83865   0.16135   0.83749   0.00000  Uiso   1.00
O805   O     0.84515   0.08101   0.77821   0.00000  Uiso   1.00
O806   O     0.81247   0.26136   0.76767   0.00000  Uiso   1.00
O807   O     0.74119   0.13251   0.73607   0.00000  Uiso   1.00
O808   O     0.93452   0.19179   0.71806   0.00000  Uiso   1.00
O809   O     0.73656   0.18960   0.77820   0.00000  Uiso   1.00
O810   O     0.92106   0.15277   0.76768   0.00000  Uiso   1.00
O811   O     0.80467   0.06903   0.73607   0.00000  Uiso   1.00
O812   O     0.87104   0.25527   0.71806   0.00000  Uiso   1.00
Zn813  Zn    0.85910   0.14090   0.78278   0.00000  Uiso   1.00
Zn814  Zn    0.80125   0.12378   0.72258   0.00000  Uiso   1.00
Zn815  Zn    0.87833   0.19664   0.71188   0.00000  Uiso   1.00
Zn816  Zn    0.79465   0.20535   0.78277   0.00000  Uiso   1.00
C817   C     0.05246   0.49323   0.75877   0.00000  Uiso   1.00
C818   C     0.18075   0.44773   0.96229   0.00000  Uiso   1.00
C819   C     0.20072   0.42820   0.98330   0.00000  Uiso   1.00
C820   C     0.28099   0.50689   0.74126   0.00000  Uiso   1.00
C821   C     0.19912   0.44235   0.52248   0.00000  Uiso   1.00
C822   C     0.17613   0.47656   0.54211   0.00000  Uiso   1.00
C823   C     0.21904   0.42116   0.54255   0.00000  Uiso   1.00
C824   C     0.21585   0.43282   0.58250   0.00000  Uiso   1.00
C825   C     0.17911   0.49226   0.58088   0.00000  Uiso   1.00
C826   C     0.32696   0.50959   0.73780   0.00000  Uiso   1.00
C827   C     0.00709   0.49084   0.76216   0.00000  Uiso   1.00
C828   C     0.09797   0.54861   0.92101   0.00000  Uiso   1.00
C829   C     0.17989   0.65534   0.73901   0.00000  Uiso   1.00
C830   C     0.15047   0.34602   0.76275   0.00000  Uiso   1.00
C831   C     0.15631   0.38958   0.75851   0.00000  Uiso   1.00
C832   C     0.17659   0.61094   0.74154   0.00000  Uiso   1.00
C833   C     0.18806   0.47846   0.64404   0.00000  Uiso   1.00
C834   C     0.14538   0.52110   0.85623   0.00000  Uiso   1.00
C835   C     0.13294   0.52677   0.89964   0.00000  Uiso   1.00
C836   C     0.19605   0.46857   0.60142   0.00000  Uiso   1.00
C837   C     0.08437   0.55129   0.96230   0.00000  Uiso   1.00
C838   C     0.17817   0.42598   0.92446   0.00000  Uiso   1.00
C839   C     0.15440   0.50758   0.91971   0.00000  Uiso   1.00
C840   C     0.13911   0.50610   0.96062   0.00000  Uiso   1.00
C841   C     0.10537   0.53044   0.98227   0.00000  Uiso   1.00
C842   C     0.15797   0.48271   0.98083   0.00000  Uiso   1.00
C843   C     0.15109   0.49300   0.52224   0.00000  Uiso   1.00
C844   C     0.11612   0.51564   0.54300   0.00000  Uiso   1.00
C845   C     0.09331   0.53347   0.52345   0.00000  Uiso   1.00
H846   H     0.06681   0.55057   0.54099   0.00000  Uiso   1.00
H847   H     0.08567   0.33690   0.78569   0.00000  Uiso   1.00
H848   H     0.11422   0.34600   0.81936   0.00000  Uiso   1.00
H849   H     0.17379   0.55370   0.57701   0.00000  Uiso   1.00
H850   H     0.14013   0.53315   0.61863   0.00000  Uiso   1.00
H851   H     0.20761   0.39400   0.62372   0.00000  Uiso   1.00
H852   H     0.25030   0.38587   0.58482   0.00000  Uiso   1.00
H853   H     0.04010   0.59126   0.96518   0.00000  Uiso   1.00
H854   H     0.02256   0.55342   0.99491   0.00000  Uiso   1.00
H855   H     0.23558   0.39438   0.52748   0.00000  Uiso   1.00
H856   H     0.01662   0.52688   0.71532   0.00000  Uiso   1.00
H857   H     0.31811   0.47342   0.78486   0.00000  Uiso   1.00
H858   H     0.20724   0.33570   0.71714   0.00000  Uiso   1.00
H859   H     0.21702   0.40096   0.96911   0.00000  Uiso   1.00
H860   H     0.08109   0.56348   0.90559   0.00000  Uiso   1.00
H861   H     0.18394   0.49484   0.90303   0.00000  Uiso   1.00
H862   H     0.10424   0.51791   0.57464   0.00000  Uiso   1.00
N863   N     0.11325   0.66338   0.79189   0.00000  Uiso   1.00
N864   N     0.17066   0.53387   0.59834   0.00000  Uiso   1.00
N865   N     0.23353   0.40919   0.60386   0.00000  Uiso   1.00
N866   N     0.04914   0.57476   0.98395   0.00000  Uiso   1.00
N867   N     0.17610   0.40839   0.89427   0.00000  Uiso   1.00
O868   O     0.16667   0.50000   0.75000   0.00000  Uiso   1.00
O869   O     0.15693   0.45726   0.66625   0.00000  Uiso   1.00
O870   O     0.12687   0.53979   0.83749   0.00000  Uiso   1.00
O871   O     0.21088   0.50826   0.65877   0.00000  Uiso   1.00
O872   O     0.17198   0.49468   0.83749   0.00000  Uiso   1.00
O873   O     0.17849   0.41434   0.77821   0.00000  Uiso   1.00
O874   O     0.14581   0.59469   0.76767   0.00000  Uiso   1.00
O875   O     0.07452   0.46584   0.73607   0.00000  Uiso   1.00
O876   O     0.26785   0.52512   0.71806   0.00000  Uiso   1.00
O877   O     0.06990   0.52293   0.77820   0.00000  Uiso   1.00
O878   O     0.25440   0.48610   0.76768   0.00000  Uiso   1.00
O879   O     0.13800   0.40236   0.73607   0.00000  Uiso   1.00
O880   O     0.20437   0.58860   0.71806   0.00000  Uiso   1.00
Zn881  Zn    0.19244   0.47423   0.78278   0.00000  Uiso   1.00
Zn882  Zn    0.13459   0.45711   0.72258   0.00000  Uiso   1.00
Zn883  Zn    0.21166   0.52997   0.71188   0.00000  Uiso   1.00
Zn884  Zn    0.12798   0.53868   0.78277   0.00000  Uiso   1.00
C885   C     0.38580   0.49323   0.75877   0.00000  Uiso   1.00
C886   C     0.51409   0.44773   0.96229   0.00000  Uiso   1.00
C887   C     0.53405   0.42820   0.98330   0.00000  Uiso   1.00
C888   C     0.61433   0.50689   0.74126   0.00000  Uiso   1.00
C889   C     0.53246   0.44235   0.52248   0.00000  Uiso   1.00
C890   C     0.50947   0.47656   0.54211   0.00000  Uiso   1.00
C891   C     0.55238   0.42116   0.54255   0.00000  Uiso   1.00
C892   C     0.54918   0.43282   0.58250   0.00000  Uiso   1.00
C893   C     0.51244   0.49226   0.58088   0.00000  Uiso   1.00
C894   C     0.66029   0.50959   0.73780   0.00000  Uiso   1.00
C895   C     0.34042   0.49084   0.76216   0.00000  Uiso   1.00
C896   C     0.43130   0.54861   0.92101   0.00000  Uiso   1.00
C897   C     0.51322   0.65534   0.73901   0.00000  Uiso   1.00
C898   C     0.48381   0.34602   0.76275   0.00000  Uiso   1.00
C899   C     0.48964   0.38958   0.75851   0.00000  Uiso   1.00
C900   C     0.50992   0.61094   0.74154   0.00000  Uiso   1.00
C901   C     0.52139   0.47846   0.64404   0.00000  Uiso   1.00
C902   C     0.47871   0.52110   0.85623   0.00000  Uiso   1.00
C903   C     0.46627   0.52677   0.89964   0.00000  Uiso   1.00
C904   C     0.52938   0.46857   0.60142   0.00000  Uiso   1.00
C905   C     0.41771   0.55129   0.96230   0.00000  Uiso   1.00
C906   C     0.51151   0.42598   0.92446   0.00000  Uiso   1.00
C907   C     0.48773   0.50758   0.91971   0.00000  Uiso   1.00
C908   C     0.47244   0.50610   0.96062   0.00000  Uiso   1.00
C909   C     0.43870   0.53044   0.98227   0.00000  Uiso   1.00
C910   C     0.49131   0.48271   0.98083   0.00000  Uiso   1.00
C911   C     0.48442   0.49300   0.52224   0.00000  Uiso   1.00
C912   C     0.44945   0.51564   0.54300   0.00000  Uiso   1.00
C913   C     0.42665   0.53347   0.52345   0.00000  Uiso   1.00
H914   H     0.40014   0.55057   0.54099   0.00000  Uiso   1.00
H915   H     0.41900   0.33690   0.78569   0.00000  Uiso   1.00
H916   H     0.44756   0.34600   0.81936   0.00000  Uiso   1.00
H917   H     0.50713   0.55370   0.57701   0.00000  Uiso   1.00
H918   H     0.47346   0.53315   0.61863   0.00000  Uiso   1.00
H919   H     0.54094   0.39400   0.62372   0.00000  Uiso   1.00
H920   H     0.58363   0.38587   0.58482   0.00000  Uiso   1.00
H921   H     0.37343   0.59126   0.96518   0.00000  Uiso   1.00
H922   H     0.35590   0.55342   0.99491   0.00000  Uiso   1.00
H923   H     0.56892   0.39438   0.52748   0.00000  Uiso   1.00
H924   H     0.34995   0.52688   0.71532   0.00000  Uiso   1.00
H925   H     0.65144   0.47342   0.78486   0.00000  Uiso   1.00
H926   H     0.54058   0.33570   0.71714   0.00000  Uiso   1.00
H927   H     0.55036   0.40096   0.96911   0.00000  Uiso   1.00
H928   H     0.41442   0.56348   0.90559   0.00000  Uiso   1.00
H929   H     0.51728   0.49484   0.90303   0.00000  Uiso   1.00
H930   H     0.43757   0.51791   0.57464   0.00000  Uiso   1.00
N931   N     0.44658   0.66338   0.79189   0.00000  Uiso   1.00
N932   N     0.50400   0.53387   0.59834   0.00000  Uiso   1.00
N933   N     0.56686   0.40919   0.60386   0.00000  Uiso   1.00
N934   N     0.38247   0.57476   0.98395   0.00000  Uiso   1.00
N935   N     0.50943   0.40839   0.89427   0.00000  Uiso   1.00
O936   O     0.50000   0.50000   0.75000   0.00000  Uiso   1.00
O937   O     0.49027   0.45726   0.66625   0.00000  Uiso   1.00
O938   O     0.46020   0.53979   0.83749   0.00000  Uiso   1.00
O939   O     0.54421   0.50826   0.65877   0.00000  Uiso   1.00
O940   O     0.50532   0.49468   0.83749   0.00000  Uiso   1.00
O941   O     0.51182   0.41434   0.77821   0.00000  Uiso   1.00
O942   O     0.47914   0.59469   0.76767   0.00000  Uiso   1.00
O943   O     0.40785   0.46584   0.73607   0.00000  Uiso   1.00
O944   O     0.60119   0.52512   0.71806   0.00000  Uiso   1.00
O945   O     0.40323   0.52293   0.77820   0.00000  Uiso   1.00
O946   O     0.58773   0.48610   0.76768   0.00000  Uiso   1.00
O947   O     0.47133   0.40236   0.73607   0.00000  Uiso   1.00
O948   O     0.53771   0.58860   0.71806   0.00000  Uiso   1.00
Zn949  Zn    0.52577   0.47423   0.78278   0.00000  Uiso   1.00
Zn950  Zn    0.46792   0.45711   0.72258   0.00000  Uiso   1.00
Zn951  Zn    0.54500   0.52997   0.71188   0.00000  Uiso   1.00
Zn952  Zn    0.46131   0.53868   0.78277   0.00000  Uiso   1.00
C953   C     0.71913   0.49323   0.75877   0.00000  Uiso   1.00
C954   C     0.84742   0.44773   0.96229   0.00000  Uiso   1.00
C955   C     0.86738   0.42820   0.98330   0.00000  Uiso   1.00
C956   C     0.94766   0.50689   0.74126   0.00000  Uiso   1.00
C957   C     0.86579   0.44235   0.52248   0.00000  Uiso   1.00
C958   C     0.84280   0.47656   0.54211   0.00000  Uiso   1.00
C959   C     0.88571   0.42116   0.54255   0.00000  Uiso   1.00
C960   C     0.88252   0.43282   0.58250   0.00000  Uiso   1.00
C961   C     0.84577   0.49226   0.58088   0.00000  Uiso   1.00
C962   C     0.99362   0.50959   0.73780   0.00000  Uiso   1.00
C963   C     0.67375   0.49084   0.76216   0.00000  Uiso   1.00
C964   C     0.76464   0.54861   0.92101   0.00000  Uiso   1.00
C965   C     0.84655   0.65534   0.73901   0.00000  Uiso   1.00
C966   C     0.81714   0.34602   0.76275   0.00000  Uiso   1.00
C967   C     0.82297   0.38958   0.75851   0.00000  Uiso   1.00
C968   C     0.84326   0.61094   0.74154   0.00000  Uiso   1.00
C969   C     0.85472   0.47846   0.64404   0.00000  Uiso   1.00
C970   C     0.81204   0.52110   0.85623   0.00000  Uiso   1.00
C971   C     0.79960   0.52677   0.89964   0.00000  Uiso   1.00
C972   C     0.86271   0.46857   0.60142   0.00000  Uiso   1.00
C973   C     0.75104   0.55129   0.96230   0.00000  Uiso   1.00
C974   C     0.84484   0.42598   0.92446   0.00000  Uiso   1.00
C975   C     0.82107   0.50758   0.91971   0.00000  Uiso   1.00
C976   C     0.80577   0.50610   0.96062   0.00000  Uiso   1.00
C977   C     0.77203   0.53044   0.98227   0.00000  Uiso   1.00
C978   C     0.82464   0.48271   0.98083   0.00000  Uiso   1.00
C979   C     0.81775   0.49300   0.52224   0.00000  Uiso   1.00
C980   C     0.78279   0.51564   0.54300   0.00000  Uiso   1.00
C981   C     0.75998   0.53347   0.52345   0.00000  Uiso   1.00
H982   H     0.73347   0.55057   0.54099   0.00000  Uiso   1.00
H983   H     0.75234   0.33690   0.78569   0.00000  Uiso   1.00
H984   H     0.78089   0.34600   0.81936   0.00000  Uiso   1.00
H985   H     0.84046   0.55370   0.57701   0.00000  Uiso   1.00
H986   H     0.80679   0.53315   0.61863   0.00000  Uiso   1.00
H987   H     0.87428   0.39400   0.62372   0.00000  Uiso   1.00
H988   H     0.91696   0.38587   0.58482   0.00000  Uiso   1.00
H989   H     0.70676   0.59126   0.96518   0.00000  Uiso   1.00
H990   H     0.68923   0.55342   0.99491   0.00000  Uiso   1.00
H991   H     0.90225   0.39438   0.52748   0.00000  Uiso   1.00
H992   H     0.68329   0.52688   0.71532   0.00000  Uiso   1.00
H993   H     0.98478   0.47342   0.78486   0.00000  Uiso   1.00
H994   H     0.87391   0.33570   0.71714   0.00000  Uiso   1.00
H995   H     0.88369   0.40096   0.96911   0.00000  Uiso   1.00
H996   H     0.74775   0.56348   0.90559   0.00000  Uiso   1.00
H997   H     0.85061   0.49484   0.90303   0.00000  Uiso   1.00
H998   H     0.77091   0.51791   0.57464   0.00000  Uiso   1.00
N999   N     0.77991   0.66338   0.79189   0.00000  Uiso   1.00
N1000  N     0.83733   0.53387   0.59834   0.00000  Uiso   1.00
N1001  N     0.90020   0.40919   0.60386   0.00000  Uiso   1.00
N1002  N     0.71580   0.57476   0.98395   0.00000  Uiso   1.00
N1003  N     0.84277   0.40839   0.89427   0.00000  Uiso   1.00
O1004  O     0.83333   0.50000   0.75000   0.00000  Uiso   1.00
O1005  O     0.82360   0.45726   0.66625   0.00000  Uiso   1.00
O1006  O     0.79354   0.53979   0.83749   0.00000  Uiso   1.00
O1007  O     0.87755   0.50826   0.65877   0.00000  Uiso   1.00
O1008  O     0.83865   0.49468   0.83749   0.00000  Uiso   1.00
O1009  O     0.84515   0.41434   0.77821   0.00000  Uiso   1.00
O1010  O     0.81247   0.59469   0.76767   0.00000  Uiso   1.00
O1011  O     0.74119   0.46584   0.73607   0.00000  Uiso   1.00
O1012  O     0.93452   0.52512   0.71806   0.00000  Uiso   1.00
O1013  O     0.73656   0.52293   0.77820   0.00000  Uiso   1.00
O1014  O     0.92106   0.48610   0.76768   0.00000  Uiso   1.00
O1015  O     0.80467   0.40236   0.73607   0.00000  Uiso   1.00
O1016  O     0.87104   0.58860   0.71806   0.00000  Uiso   1.00
Zn1017 Zn    0.85910   0.47423   0.78278   0.00000  Uiso   1.00
Zn1018 Zn    0.80125   0.45711   0.72258   0.00000  Uiso   1.00
Zn1019 Zn    0.87833   0.52997   0.71188   0.00000  Uiso   1.00
Zn1020 Zn    0.79465   0.53868   0.78277   0.00000  Uiso   1.00
C1021  C     0.05246   0.82656   0.75877   0.00000  Uiso   1.00
C1022  C     0.18075   0.78106   0.96229   0.00000  Uiso   1.00
C1023  C     0.20072   0.76153   0.98330   0.00000  Uiso   1.00
C1024  C     0.28099   0.84023   0.74126   0.00000  Uiso   1.00
C1025  C     0.19912   0.77568   0.52248   0.00000  Uiso   1.00
C1026  C     0.17613   0.80989   0.54211   0.00000  Uiso   1.00
C1027  C     0.21904   0.75450   0.54255   0.00000  Uiso   1.00
C1028  C     0.21585   0.76616   0.58250   0.00000  Uiso   1.00
C1029  C     0.17911   0.82559   0.58088   0.00000  Uiso   1.00
C1030  C     0.32696   0.84293   0.73780   0.00000  Uiso   1.00
C1031  C     0.00709   0.82417   0.76216   0.00000  Uiso   1.00
C1032  C     0.09797   0.88194   0.92101   0.00000  Uiso   1.00
C1033  C     0.17989   0.98868   0.73901   0.00000  Uiso   1.00
C1034  C     0.15047   0.67935   0.76275   0.00000  Uiso   1.00
C1035  C     0.15631   0.72291   0.75851   0.00000  Uiso   1.00
C1036  C     0.17659   0.94427   0.74154   0.00000  Uiso   1.00
C1037  C     0.18806   0.81179   0.64404   0.00000  Uiso   1.00
C1038  C     0.14538   0.85444   0.85623   0.00000  Uiso   1.00
C1039  C     0.13294   0.86010   0.89964   0.00000  Uiso   1.00
C1040  C     0.19605   0.80190   0.60142   0.00000  Uiso   1.00
C1041  C     0.08437   0.88462   0.96230   0.00000  Uiso   1.00
C1042  C     0.17817   0.75932   0.92446   0.00000  Uiso   1.00
C1043  C     0.15440   0.84091   0.91971   0.00000  Uiso   1.00
C1044  C     0.13911   0.83943   0.96062   0.00000  Uiso   1.00
C1045  C     0.10537   0.86377   0.98227   0.00000  Uiso   1.00
C1046  C     0.15797   0.81604   0.98083   0.00000  Uiso   1.00
C1047  C     0.15109   0.82634   0.52224   0.00000  Uiso   1.00
C1048  C     0.11612   0.84897   0.54300   0.00000  Uiso   1.00
C1049  C     0.09331   0.86681   0.52345   0.00000  Uiso   1.00
H1050  H     0.06681   0.88390   0.54099   0.00000  Uiso   1.00
H1051  H     0.08567   0.67023   0.78569   0.00000  Uiso   1.00
H1052  H     0.11422   0.67933   0.81936   0.00000  Uiso   1.00
H1053  H     0.17379   0.88703   0.57701   0.00000  Uiso   1.00
H1054  H     0.14013   0.86648   0.61863   0.00000  Uiso   1.00
H1055  H     0.20761   0.72733   0.62372   0.00000  Uiso   1.00
H1056  H     0.25030   0.71920   0.58482   0.00000  Uiso   1.00
H1057  H     0.04010   0.92460   0.96518   0.00000  Uiso   1.00
H1058  H     0.02256   0.88675   0.99491   0.00000  Uiso   1.00
H1059  H     0.23558   0.72772   0.52748   0.00000  Uiso   1.00
H1060  H     0.01662   0.86021   0.71532   0.00000  Uiso   1.00
H1061  H     0.31811   0.80676   0.78486   0.00000  Uiso   1.00
H1062  H     0.20724   0.66904   0.71714   0.00000  Uiso   1.00
H1063  H     0.21702   0.73429   0.96911   0.00000  Uiso   1.00
H1064  H     0.08109   0.89681   0.90559   0.00000  Uiso   1.00
H1065  H     0.18394   0.82817   0.90303   0.00000  Uiso   1.00
H1066  H     0.10424   0.85124   0.57464   0.00000  Uiso   1.00
N1067  N     0.11325   0.99671   0.79189   0.00000  Uiso   1.00
N1068  N     0.17066   0.86721   0.59834   0.00000  Uiso   1.00
N1069  N     0.23353   0.74252   0.60386   0.00000  Uiso   1.00
N1070  N     0.04914   0.90810   0.98395   0.00000  Uiso   1.00
N1071  N     0.17610   0.74173   0.89427   0.00000  Uiso   1.00
O1072  O     0.16667   0.83333   0.75000   0.00000  Uiso   1.00
O1073  O     0.15693   0.79060   0.66625   0.00000  Uiso   1.00
O1074  O     0.12687   0.87313   0.83749   0.00000  Uiso   1.00
O1075  O     0.21088   0.84159   0.65877   0.00000  Uiso   1.00
O1076  O     0.17198   0.82802   0.83749   0.00000  Uiso   1.00
O1077  O     0.17849   0.74768   0.77821   0.00000  Uiso   1.00
O1078  O     0.14581   0.92803   0.76767   0.00000  Uiso   1.00
O1079  O     0.07452   0.79917   0.73607   0.00000  Uiso   1.00
O1080  O     0.26785   0.85845   0.71806   0.00000  Uiso   1.00
O1081  O     0.06990   0.85627   0.77820   0.00000  Uiso   1.00
O1082  O     0.25440   0.81944   0.76768   0.00000  Uiso   1.00
O1083  O     0.13800   0.73570   0.73607   0.00000  Uiso   1.00
O1084  O     0.20437   0.92193   0.71806   0.00000  Uiso   1.00
Zn1085 Zn    0.19244   0.80756   0.78278   0.00000  Uiso   1.00
Zn1086 Zn    0.13459   0.79044   0.72258   0.00000  Uiso   1.00
Zn1087 Zn    0.21166   0.86331   0.71188   0.00000  Uiso   1.00
Zn1088 Zn    0.12798   0.87202   0.78277   0.00000  Uiso   1.00
C1089  C     0.38580   0.82656   0.75877   0.00000  Uiso   1.00
C1090  C     0.51409   0.78106   0.96229   0.00000  Uiso   1.00
C1091  C     0.53405   0.76153   0.98330   0.00000  Uiso   1.00
C1092  C     0.61433   0.84023   0.74126   0.00000  Uiso   1.00
C1093  C     0.53246   0.77568   0.52248   0.00000  Uiso   1.00
C1094  C     0.50947   0.80989   0.54211   0.00000  Uiso   1.00
C1095  C     0.55238   0.75450   0.54255   0.00000  Uiso   1.00
C1096  C     0.54918   0.76616   0.58250   0.00000  Uiso   1.00
C1097  C     0.51244   0.82559   0.58088   0.00000  Uiso   1.00
C1098  C     0.66029   0.84293   0.73780   0.00000  Uiso   1.00
C1099  C     0.34042   0.82417   0.76216   0.00000  Uiso   1.00
C1100  C     0.43130   0.88194   0.92101   0.00000  Uiso   1.00
C1101  C     0.51322   0.98868   0.73901   0.00000  Uiso   1.00
C1102  C     0.48381   0.67935   0.76275   0.00000  Uiso   1.00
C1103  C     0.48964   0.72291   0.75851   0.00000  Uiso   1.00
C1104  C     0.50992   0.94427   0.74154   0.00000  Uiso   1.00
C1105  C     0.52139   0.81179   0.64404   0.00000  Uiso   1.00
C1106  C     0.47871   0.85444   0.85623   0.00000  Uiso   1.00
C1107  C     0.46627   0.86010   0.89964   0.00000  Uiso   1.00
C1108  C     0.52938   0.80190   0.60142   0.00000  Uiso   1.00
C1109  C     0.41771   0.88462   0.96230   0.00000  Uiso   1.00
C1110  C     0.51151   0.75932   0.92446   0.00000  Uiso   1.00
C1111  C     0.48773   0.84091   0.91971   0.00000  Uiso   1.00
C1112  C     0.47244   0.83943   0.96062   0.00000  Uiso   1.00
C1113  C     0.43870   0.86377   0.98227   0.00000  Uiso   1.00
C1114  C     0.49131   0.81604   0.98083   0.00000  Uiso   1.00
C1115  C     0.48442   0.82634   0.52224   0.00000  Uiso   1.00
C1116  C     0.44945   0.84897   0.54300   0.00000  Uiso   1.00
C1117  C     0.42665   0.86681   0.52345   0.00000  Uiso   1.00
H1118  H     0.40014   0.88390   0.54099   0.00000  Uiso   1.00
H1119  H     0.41900   0.67023   0.78569   0.00000  Uiso   1.00
H1120  H     0.44756   0.67933   0.81936   0.00000  Uiso   1.00
H1121  H     0.50713   0.88703   0.57701   0.00000  Uiso   1.00
H1122  H     0.47346   0.86648   0.61863   0.00000  Uiso   1.00
H1123  H     0.54094   0.72733   0.62372   0.00000  Uiso   1.00
H1124  H     0.58363   0.71920   0.58482   0.00000  Uiso   1.00
H1125  H     0.37343   0.92460   0.96518   0.00000  Uiso   1.00
H1126  H     0.35590   0.88675   0.99491   0.00000  Uiso   1.00
H1127  H     0.56892   0.72772   0.52748   0.00000  Uiso   1.00
H1128  H     0.34995   0.86021   0.71532   0.00000  Uiso   1.00
H1129  H     0.65144   0.80676   0.78486   0.00000  Uiso   1.00
H1130  H     0.54058   0.66904   0.71714   0.00000  Uiso   1.00
H1131  H     0.55036   0.73429   0.96911   0.00000  Uiso   1.00
H1132  H     0.41442   0.89681   0.90559   0.00000  Uiso   1.00
H1133  H     0.51728   0.82817   0.90303   0.00000  Uiso   1.00
H1134  H     0.43757   0.85124   0.57464   0.00000  Uiso   1.00
N1135  N     0.44658   0.99671   0.79189   0.00000  Uiso   1.00
N1136  N     0.50400   0.86721   0.59834   0.00000  Uiso   1.00
N1137  N     0.56686   0.74252   0.60386   0.00000  Uiso   1.00
N1138  N     0.38247   0.90810   0.98395   0.00000  Uiso   1.00
N1139  N     0.50943   0.74173   0.89427   0.00000  Uiso   1.00
O1140  O     0.50000   0.83333   0.75000   0.00000  Uiso   1.00
O1141  O     0.49027   0.79060   0.66625   0.00000  Uiso   1.00
O1142  O     0.46020   0.87313   0.83749   0.00000  Uiso   1.00
O1143  O     0.54421   0.84159   0.65877   0.00000  Uiso   1.00
O1144  O     0.50532   0.82802   0.83749   0.00000  Uiso   1.00
O1145  O     0.51182   0.74768   0.77821   0.00000  Uiso   1.00
O1146  O     0.47914   0.92803   0.76767   0.00000  Uiso   1.00
O1147  O     0.40785   0.79917   0.73607   0.00000  Uiso   1.00
O1148  O     0.60119   0.85845   0.71806   0.00000  Uiso   1.00
O1149  O     0.40323   0.85627   0.77820   0.00000  Uiso   1.00
O1150  O     0.58773   0.81944   0.76768   0.00000  Uiso   1.00
O1151  O     0.47133   0.73570   0.73607   0.00000  Uiso   1.00
O1152  O     0.53771   0.92193   0.71806   0.00000  Uiso   1.00
Zn1153 Zn    0.52577   0.80756   0.78278   0.00000  Uiso   1.00
Zn1154 Zn    0.46792   0.79044   0.72258   0.00000  Uiso   1.00
Zn1155 Zn    0.54500   0.86331   0.71188   0.00000  Uiso   1.00
Zn1156 Zn    0.46131   0.87202   0.78277   0.00000  Uiso   1.00
C1157  C     0.71913   0.82656   0.75877   0.00000  Uiso   1.00
C1158  C     0.84742   0.78106   0.96229   0.00000  Uiso   1.00
C1159  C     0.86738   0.76153   0.98330   0.00000  Uiso   1.00
C1160  C     0.94766   0.84023   0.74126   0.00000  Uiso   1.00
C1161  C     0.86579   0.77568   0.52248   0.00000  Uiso   1.00
C1162  C     0.84280   0.80989   0.54211   0.00000  Uiso   1.00
C1163  C     0.88571   0.75450   0.54255   0.00000  Uiso   1.00
C1164  C     0.88252   0.76616   0.58250   0.00000  Uiso   1.00
C1165  C     0.84577   0.82559   0.58088   0.00000  Uiso   1.00
C1166  C     0.99362   0.84293   0.73780   0.00000  Uiso   1.00
C1167  C     0.67375   0.82417   0.76216   0.00000  Uiso   1.00
C1168  C     0.76464   0.88194   0.92101   0.00000  Uiso   1.00
C1169  C     0.84655   0.98868   0.73901   0.00000  Uiso   1.00
C1170  C     0.81714   0.67935   0.76275   0.00000  Uiso   1.00
C1171  C     0.82297   0.72291   0.75851   0.00000  Uiso   1.00
C1172  C     0.84326   0.94427   0.74154   0.00000  Uiso   1.00
C1173  C     0.85472   0.81179   0.64404   0.00000  Uiso   1.00
C1174  C     0.81204   0.85444   0.85623   0.00000  Uiso   1.00
C1175  C     0.79960   0.86010   0.89964   0.00000  Uiso   1.00
C1176  C     0.86271   0.80190   0.60142   0.00000  Uiso   1.00
C1177  C     0.75104   0.88462   0.96230   0.00000  Uiso   1.00
C1178  C     0.84484   0.75932   0.92446   0.00000  Uiso   1.00
C1179  C     0.82107   0.84091   0.91971   0.00000  Uiso   1.00
C1180  C     0.80577   0.83943   0.96062   0.00000  Uiso   1.00
C1181  C     0.77203   0.86377   0.98227   0.00000  Uiso   1.00
C1182  C     0.82464   0.81604   0.98083   0.00000  Uiso   1.00
C1183  C     0.81775   0.82634   0.52224   0.00000  Uiso   1.00
C1184  C     0.78279   0.84897   0.54300   0.00000  Uiso   1.00
C1185  C     0.75998   0.86681   0.52345   0.00000  Uiso   1.00
H1186  H     0.73347   0.88390   0.54099   0.00000  Uiso   1.00
H1187  H     0.75234   0.67023   0.78569   0.00000  Uiso   1.00
H1188  H     0.78089   0.67933   0.81936   0.00000  Uiso   1.00
H1189  H     0.84046   0.88703   0.57701   0.00000  Uiso   1.00
H1190  H     0.80679   0.86648   0.61863   0.00000  Uiso   1.00
H1191  H     0.87428   0.72733   0.62372   0.00000  Uiso   1.00
H1192  H     0.91696   0.71920   0.58482   0.00000  Uiso   1.00
H1193  H     0.70676   0.92460   0.96518   0.00000  Uiso   1.00
H1194  H     0.68923   0.88675   0.99491   0.00000  Uiso   1.00
H1195  H     0.90225   0.72772   0.52748   0.00000  Uiso   1.00
H1196  H     0.68329   0.86021   0.71532   0.00000  Uiso   1.00
H1197  H     0.98478   0.80676   0.78486   0.00000  Uiso   1.00
H1198  H     0.87391   0.66904   0.71714   0.00000  Uiso   1.00
H1199  H     0.88369   0.73429   0.96911   0.00000  Uiso   1.00
H1200  H     0.74775   0.89681   0.90559   0.00000  Uiso   1.00
H1201  H     0.85061   0.82817   0.90303   0.00000  Uiso   1.00
H1202  H     0.77091   0.85124   0.57464   0.00000  Uiso   1.00
N1203  N     0.77991   0.99671   0.79189   0.00000  Uiso   1.00
N1204  N     0.83733   0.86721   0.59834   0.00000  Uiso   1.00
N1205  N     0.90020   0.74252   0.60386   0.00000  Uiso   1.00
N1206  N     0.71580   0.90810   0.98395   0.00000  Uiso   1.00
N1207  N     0.84277   0.74173   0.89427   0.00000  Uiso   1.00
O1208  O     0.83333   0.83333   0.75000   0.00000  Uiso   1.00
O1209  O     0.82360   0.79060   0.66625   0.00000  Uiso   1.00
O1210  O     0.79354   0.87313   0.83749   0.00000  Uiso   1.00
O1211  O     0.87755   0.84159   0.65877   0.00000  Uiso   1.00
O1212  O     0.83865   0.82802   0.83749   0.00000  Uiso   1.00
O1213  O     0.84515   0.74768   0.77821   0.00000  Uiso   1.00
O1214  O     0.81247   0.92803   0.76767   0.00000  Uiso   1.00
O1215  O     0.74119   0.79917   0.73607   0.00000  Uiso   1.00
O1216  O     0.93452   0.85845   0.71806   0.00000  Uiso   1.00
O1217  O     0.73656   0.85627   0.77820   0.00000  Uiso   1.00
O1218  O     0.92106   0.81944   0.76768   0.00000  Uiso   1.00
O1219  O     0.80467   0.73570   0.73607   0.00000  Uiso   1.00
O1220  O     0.87104   0.92193   0.71806   0.00000  Uiso   1.00
Zn1221 Zn    0.85910   0.80756   0.78278   0.00000  Uiso   1.00
Zn1222 Zn    0.80125   0.79044   0.72258   0.00000  Uiso   1.00
Zn1223 Zn    0.87833   0.86331   0.71188   0.00000  Uiso   1.00
Zn1224 Zn    0.79465   0.87202   0.78277   0.00000  Uiso   1.00
loop_
_geom_bond_atom_site_label_1
_geom_bond_atom_site_label_2
_geom_bond_distance
_geom_bond_site_symmetry_2
_ccdc_geom_bond_type
C1     O59     1.268   .     A
C1     C11     1.437   .     S
C1     O61     1.268   .     A
C2     C22     1.447   .     S
C2     C3      1.392   .     A
C2     C26     1.427   .     A
C3     H43     1.086   .     S
C3     C617    1.393   .     S
C4     O60     1.284   .     A
C4     C10     1.454   .     S
C4     O62     1.281   .     A
C5     C6      1.418   .     A
C5     C7      1.400   .     A
C5     C615    1.393   1_554 S
C6     C27     1.426   .     A
C6     C9      1.427   .     A
C7     C8      1.396   .     A
C7     H39     1.084   .     S
C8     C20     1.404   .     A
C8     N49     1.438   .     S
C9     C20     1.403   .     A
C9     N48     1.439   .     S
C10    C79     1.334   .     S
C10    H108    1.088   .     S
C11    C146    1.334   1_455 S
C11    H177    1.086   1_455 S
C12    C19     1.400   .     A
C12    H44     1.083   .     S
C12    C21     1.402   .     A
C13    C16     1.453   .     S
C13    C218    1.343   .     S
C13    H246    1.088   .     S
C14    C15     1.433   .     S
C14    C421    1.343   1_545 S
C14    N455    1.436   1_545 S
C15    O63     1.272   .     A
C15    O57     1.273   .     A
C16    O58     1.266   .     A
C16    O64     1.275   .     A
C17    O53     1.274   .     A
C17    O55     1.279   .     A
C17    C20     1.460   .     S
C18    O56     1.287   .     A
C18    O54     1.283   .     A
C18    C19     1.472   .     S
C19    C23     1.395   .     A
C21    C25     1.415   .     A
C21    N50     1.438   .     S
C22    N51     1.158   .     T
C23    C24     1.404   .     A
C23    H45     1.079   .     S
C24    C26     1.428   .     A
C24    C25     1.420   .     A
C25    C641    1.398   .     S
C26    C639    1.423   .     S
C27    C28     1.409   .     A
C27    C638    1.423   1_554 S
C28    H46     1.076   .     S
C28    C29     1.387   .     A
C29    H30     1.083   .     S
C29    C637    1.398   1_554 S
H31    N455    1.046   1_545 S
H32    N455    1.046   1_545 S
H33    N48     1.045   .     S
H34    N48     1.045   .     S
H35    N49     1.045   .     S
H36    N49     1.046   .     S
H37    N50     1.046   .     S
H38    N50     1.046   .     S
H40    C146    1.088   1_455 S
H41    C79     1.086   .     S
H42    C421    1.088   1_545 S
N47    C218    1.436   .     S
N47    H236    1.046   .     S
N47    H235    1.046   .     S
O52    Zn68    1.930   .     S
O52    Zn67    1.941   .     S
O52    Zn66    1.939   .     S
O52    Zn65    1.962   .     S
O53    Zn66    1.928   .     S
O54    Zn68    1.936   .     S
O55    Zn67    1.927   .     S
O56    Zn65    1.920   .     S
O57    Zn65    1.936   .     S
O58    Zn68    1.943   .     S
O59    Zn66    1.926   .     S
O60    Zn67    1.935   .     S
O61    Zn68    1.930   .     S
O62    Zn65    1.924   .     S
O63    Zn66    1.947   .     S
O64    Zn67    1.938   .     S
C69    O127    1.268   .     A
C69    C79     1.437   .     S
C69    O129    1.268   .     A
C70    C90     1.447   .     S
C70    C71     1.392   .     A
C70    C94     1.427   .     A
C71    H111    1.086   .     S
C71    C685    1.393   .     S
C72    O128    1.284   .     A
C72    C78     1.454   .     S
C72    O130    1.281   .     A
C73    C74     1.418   .     A
C73    C75     1.400   .     A
C73    C683    1.393   1_554 S
C74    C95     1.426   .     A
C74    C77     1.427   .     A
C75    C76     1.396   .     A
C75    H107    1.084   .     S
C76    C88     1.404   .     A
C76    N117    1.438   .     S
C77    C88     1.403   .     A
C77    N116    1.439   .     S
C78    C147    1.334   .     S
C78    H176    1.088   .     S
C80    C87     1.400   .     A
C80    H112    1.083   .     S
C80    C89     1.402   .     A
C81    C84     1.453   .     S
C81    C286    1.343   .     S
C81    H314    1.088   .     S
C82    C83     1.433   .     S
C82    C489    1.343   1_545 S
C82    N523    1.436   1_545 S
C83    O131    1.272   .     A
C83    O125    1.273   .     A
C84    O126    1.266   .     A
C84    O132    1.275   .     A
C85    O121    1.274   .     A
C85    O123    1.279   .     A
C85    C88     1.460   .     S
C86    O124    1.287   .     A
C86    O122    1.283   .     A
C86    C87     1.472   .     S
C87    C91     1.395   .     A
C89    C93     1.415   .     A
C89    N118    1.438   .     S
C90    N119    1.158   .     T
C91    C92     1.404   .     A
C91    H113    1.079   .     S
C92    C94     1.428   .     A
C92    C93     1.420   .     A
C93    C709    1.398   .     S
C94    C707    1.423   .     S
C95    C96     1.409   .     A
C95    C706    1.423   1_554 S
C96    H114    1.076   .     S
C96    C97     1.387   .     A
C97    H98     1.083   .     S
C97    C705    1.398   1_554 S
H99    N523    1.046   1_545 S
H100   N523    1.046   1_545 S
H101   N116    1.045   .     S
H102   N116    1.045   .     S
H103   N117    1.045   .     S
H104   N117    1.046   .     S
H105   N118    1.046   .     S
H106   N118    1.046   .     S
H109   C147    1.086   .     S
H110   C489    1.088   1_545 S
N115   C286    1.436   .     S
N115   H304    1.046   .     S
N115   H303    1.046   .     S
O120   Zn136   1.930   .     S
O120   Zn135   1.941   .     S
O120   Zn134   1.939   .     S
O120   Zn133   1.962   .     S
O121   Zn134   1.928   .     S
O122   Zn136   1.936   .     S
O123   Zn135   1.927   .     S
O124   Zn133   1.920   .     S
O125   Zn133   1.936   .     S
O126   Zn136   1.943   .     S
O127   Zn134   1.926   .     S
O128   Zn135   1.935   .     S
O129   Zn136   1.930   .     S
O130   Zn133   1.924   .     S
O131   Zn134   1.947   .     S
O132   Zn135   1.938   .     S
C137   O195    1.268   .     A
C137   C147    1.437   .     S
C137   O197    1.268   .     A
C138   C158    1.447   .     S
C138   C139    1.392   .     A
C138   C162    1.427   .     A
C139   H179    1.086   .     S
C139   C753    1.393   .     S
C140   O196    1.284   .     A
C140   C146    1.454   .     S
C140   O198    1.281   .     A
C141   C142    1.418   .     A
C141   C143    1.400   .     A
C141   C751    1.393   1_554 S
C142   C163    1.426   .     A
C142   C145    1.427   .     A
C143   C144    1.396   .     A
C143   H175    1.084   .     S
C144   C156    1.404   .     A
C144   N185    1.438   .     S
C145   C156    1.403   .     A
C145   N184    1.439   .     S
C146   C11     1.334   1_655 S
C146   H40     1.088   1_655 S
C148   C155    1.400   .     A
C148   H180    1.083   .     S
C148   C157    1.402   .     A
C149   C152    1.453   .     S
C149   C354    1.343   .     S
C149   H382    1.088   .     S
C150   C151    1.433   .     S
C150   C557    1.343   1_545 S
C150   N591    1.436   1_545 S
C151   O199    1.272   .     A
C151   O193    1.273   .     A
C152   O194    1.266   .     A
C152   O200    1.275   .     A
C153   O189    1.274   .     A
C153   O191    1.279   .     A
C153   C156    1.460   .     S
C154   O192    1.287   .     A
C154   O190    1.283   .     A
C154   C155    1.472   .     S
C155   C159    1.395   .     A
C157   C161    1.415   .     A
C157   N186    1.438   .     S
C158   N187    1.158   .     T
C159   C160    1.404   .     A
C159   H181    1.079   .     S
C160   C162    1.428   .     A
C160   C161    1.420   .     A
C161   C777    1.398   .     S
C162   C775    1.423   .     S
C163   C164    1.409   .     A
C163   C774    1.423   1_554 S
C164   H182    1.076   .     S
C164   C165    1.387   .     A
C165   H166    1.083   .     S
C165   C773    1.398   1_554 S
H167   N591    1.046   1_545 S
H168   N591    1.046   1_545 S
H169   N184    1.045   .     S
H170   N184    1.045   .     S
H171   N185    1.045   .     S
H172   N185    1.046   .     S
H173   N186    1.046   .     S
H174   N186    1.046   .     S
H177   C11     1.086   1_655 S
H178   C557    1.088   1_545 S
N183   C354    1.436   .     S
N183   H372    1.046   .     S
N183   H371    1.046   .     S
O188   Zn204   1.930   .     S
O188   Zn203   1.941   .     S
O188   Zn202   1.939   .     S
O188   Zn201   1.962   .     S
O189   Zn202   1.928   .     S
O190   Zn204   1.936   .     S
O191   Zn203   1.927   .     S
O192   Zn201   1.920   .     S
O193   Zn201   1.936   .     S
O194   Zn204   1.943   .     S
O195   Zn202   1.926   .     S
O196   Zn203   1.935   .     S
O197   Zn204   1.930   .     S
O198   Zn201   1.924   .     S
O199   Zn202   1.947   .     S
O200   Zn203   1.938   .     S
C205   O263    1.268   .     A
C205   C215    1.437   .     S
C205   O265    1.268   .     A
C206   C226    1.447   .     S
C206   C207    1.392   .     A
C206   C230    1.427   .     A
C207   H247    1.086   .     S
C207   C821    1.393   .     S
C208   O264    1.284   .     A
C208   C214    1.454   .     S
C208   O266    1.281   .     A
C209   C210    1.418   .     A
C209   C211    1.400   .     A
C209   C819    1.393   1_554 S
C210   C231    1.426   .     A
C210   C213    1.427   .     A
C211   C212    1.396   .     A
C211   H243    1.084   .     S
C212   C224    1.404   .     A
C212   N253    1.438   .     S
C213   C224    1.403   .     A
C213   N252    1.439   .     S
C214   C283    1.334   .     S
C214   H312    1.088   .     S
C215   C350    1.334   1_455 S
C215   H381    1.086   1_455 S
C216   C223    1.400   .     A
C216   H248    1.083   .     S
C216   C225    1.402   .     A
C217   C220    1.453   .     S
C217   C422    1.343   .     S
C217   H450    1.088   .     S
C218   C219    1.433   .     S
C219   O267    1.272   .     A
C219   O261    1.273   .     A
C220   O262    1.266   .     A
C220   O268    1.275   .     A
C221   O257    1.274   .     A
C221   O259    1.279   .     A
C221   C224    1.460   .     S
C222   O260    1.287   .     A
C222   O258    1.283   .     A
C222   C223    1.472   .     S
C223   C227    1.395   .     A
C225   C229    1.415   .     A
C225   N254    1.438   .     S
C226   N255    1.158   .     T
C227   C228    1.404   .     A
C227   H249    1.079   .     S
C228   C230    1.428   .     A
C228   C229    1.420   .     A
C229   C845    1.398   .     S
C230   C843    1.423   .     S
C231   C232    1.409   .     A
C231   C842    1.423   1_554 S
C232   H250    1.076   .     S
C232   C233    1.387   .     A
C233   H234    1.083   .     S
C233   C841    1.398   1_554 S
H237   N252    1.045   .     S
H238   N252    1.045   .     S
H239   N253    1.045   .     S
H240   N253    1.046   .     S
H241   N254    1.046   .     S
H242   N254    1.046   .     S
H244   C350    1.088   1_455 S
H245   C283    1.086   .     S
N251   C422    1.436   .     S
N251   H440    1.046   .     S
N251   H439    1.046   .     S
O256   Zn272   1.930   .     S
O256   Zn271   1.941   .     S
O256   Zn270   1.939   .     S
O256   Zn269   1.962   .     S
O257   Zn270   1.928   .     S
O258   Zn272   1.936   .     S
O259   Zn271   1.927   .     S
O260   Zn269   1.920   .     S
O261   Zn269   1.936   .     S
O262   Zn272   1.943   .     S
O263   Zn270   1.926   .     S
O264   Zn271   1.935   .     S
O265   Zn272   1.930   .     S
O266   Zn269   1.924   .     S
O267   Zn270   1.947   .     S
O268   Zn271   1.938   .     S
C273   O331    1.268   .     A
C273   C283    1.437   .     S
C273   O333    1.268   .     A
C274   C294    1.447   .     S
C274   C275    1.392   .     A
C274   C298    1.427   .     A
C275   H315    1.086   .     S
C275   C889    1.393   .     S
C276   O332    1.284   .     A
C276   C282    1.454   .     S
C276   O334    1.281   .     A
C277   C278    1.418   .     A
C277   C279    1.400   .     A
C277   C887    1.393   1_554 S
C278   C299    1.426   .     A
C278   C281    1.427   .     A
C279   C280    1.396   .     A
C279   H311    1.084   .     S
C280   C292    1.404   .     A
C280   N321    1.438   .     S
C281   C292    1.403   .     A
C281   N320    1.439   .     S
C282   C351    1.334   .     S
C282   H380    1.088   .     S
C284   C291    1.400   .     A
C284   H316    1.083   .     S
C284   C293    1.402   .     A
C285   C288    1.453   .     S
C285   C490    1.343   .     S
C285   H518    1.088   .     S
C286   C287    1.433   .     S
C287   O335    1.272   .     A
C287   O329    1.273   .     A
C288   O330    1.266   .     A
C288   O336    1.275   .     A
C289   O325    1.274   .     A
C289   O327    1.279   .     A
C289   C292    1.460   .     S
C290   O328    1.287   .     A
C290   O326    1.283   .     A
C290   C291    1.472   .     S
C291   C295    1.395   .     A
C293   C297    1.415   .     A
C293   N322    1.438   .     S
C294   N323    1.158   .     T
C295   C296    1.404   .     A
C295   H317    1.079   .     S
C296   C298    1.428   .     A
C296   C297    1.420   .     A
C297   C913    1.398   .     S
C298   C911    1.423   .     S
C299   C300    1.409   .     A
C299   C910    1.423   1_554 S
C300   H318    1.076   .     S
C300   C301    1.387   .     A
C301   H302    1.083   .     S
C301   C909    1.398   1_554 S
H305   N320    1.045   .     S
H306   N320    1.045   .     S
H307   N321    1.045   .     S
H308   N321    1.046   .     S
H309   N322    1.046   .     S
H310   N322    1.046   .     S
H313   C351    1.086   .     S
N319   C490    1.436   .     S
N319   H508    1.046   .     S
N319   H507    1.046   .     S
O324   Zn340   1.930   .     S
O324   Zn339   1.941   .     S
O324   Zn338   1.939   .     S
O324   Zn337   1.962   .     S
O325   Zn338   1.928   .     S
O326   Zn340   1.936   .     S
O327   Zn339   1.927   .     S
O328   Zn337   1.920   .     S
O329   Zn337   1.936   .     S
O330   Zn340   1.943   .     S
O331   Zn338   1.926   .     S
O332   Zn339   1.935   .     S
O333   Zn340   1.930   .     S
O334   Zn337   1.924   .     S
O335   Zn338   1.947   .     S
O336   Zn339   1.938   .     S
C341   O399    1.268   .     A
C341   C351    1.437   .     S
C341   O401    1.268   .     A
C342   C362    1.447   .     S
C342   C343    1.392   .     A
C342   C366    1.427   .     A
C343   H383    1.086   .     S
C343   C957    1.393   .     S
C344   O400    1.284   .     A
C344   C350    1.454   .     S
C344   O402    1.281   .     A
C345   C346    1.418   .     A
C345   C347    1.400   .     A
C345   C955    1.393   1_554 S
C346   C367    1.426   .     A
C346   C349    1.427   .     A
C347   C348    1.396   .     A
C347   H379    1.084   .     S
C348   C360    1.404   .     A
C348   N389    1.438   .     S
C349   C360    1.403   .     A
C349   N388    1.439   .     S
C350   C215    1.334   1_655 S
C350   H244    1.088   1_655 S
C352   C359    1.400   .     A
C352   H384    1.083   .     S
C352   C361    1.402   .     A
C353   C356    1.453   .     S
C353   C558    1.343   .     S
C353   H586    1.088   .     S
C354   C355    1.433   .     S
C355   O403    1.272   .     A
C355   O397    1.273   .     A
C356   O398    1.266   .     A
C356   O404    1.275   .     A
C357   O393    1.274   .     A
C357   O395    1.279   .     A
C357   C360    1.460   .     S
C358   O396    1.287   .     A
C358   O394    1.283   .     A
C358   C359    1.472   .     S
C359   C363    1.395   .     A
C361   C365    1.415   .     A
C361   N390    1.438   .     S
C362   N391    1.158   .     T
C363   C364    1.404   .     A
C363   H385    1.079   .     S
C364   C366    1.428   .     A
C364   C365    1.420   .     A
C365   C981    1.398   .     S
C366   C979    1.423   .     S
C367   C368    1.409   .     A
C367   C978    1.423   1_554 S
C368   H386    1.076   .     S
C368   C369    1.387   .     A
C369   H370    1.083   .     S
C369   C977    1.398   1_554 S
H373   N388    1.045   .     S
H374   N388    1.045   .     S
H375   N389    1.045   .     S
H376   N389    1.046   .     S
H377   N390    1.046   .     S
H378   N390    1.046   .     S
H381   C215    1.086   1_655 S
N387   C558    1.436   .     S
N387   H576    1.046   .     S
N387   H575    1.046   .     S
O392   Zn408   1.930   .     S
O392   Zn407   1.941   .     S
O392   Zn406   1.939   .     S
O392   Zn405   1.962   .     S
O393   Zn406   1.928   .     S
O394   Zn408   1.936   .     S
O395   Zn407   1.927   .     S
O396   Zn405   1.920   .     S
O397   Zn405   1.936   .     S
O398   Zn408   1.943   .     S
O399   Zn406   1.926   .     S
O400   Zn407   1.935   .     S
O401   Zn408   1.930   .     S
O402   Zn405   1.924   .     S
O403   Zn406   1.947   .     S
O404   Zn407   1.938   .     S
C409   O467    1.268   .     A
C409   C419    1.437   .     S
C409   O469    1.268   .     A
C410   C430    1.447   .     S
C410   C411    1.392   .     A
C410   C434    1.427   .     A
C411   H451    1.086   .     S
C411   C1025   1.393   .     S
C412   O468    1.284   .     A
C412   C418    1.454   .     S
C412   O470    1.281   .     A
C413   C414    1.418   .     A
C413   C415    1.400   .     A
C413   C1023   1.393   1_554 S
C414   C435    1.426   .     A
C414   C417    1.427   .     A
C415   C416    1.396   .     A
C415   H447    1.084   .     S
C416   C428    1.404   .     A
C416   N457    1.438   .     S
C417   C428    1.403   .     A
C417   N456    1.439   .     S
C418   C487    1.334   .     S
C418   H516    1.088   .     S
C419   C554    1.334   1_455 S
C419   H585    1.086   1_455 S
C420   C427    1.400   .     A
C420   H452    1.083   .     S
C420   C429    1.402   .     A
C421   C424    1.453   .     S
C421   C14     1.343   1_565 S
C421   H42     1.088   1_565 S
C422   C423    1.433   .     S
C423   O471    1.272   .     A
C423   O465    1.273   .     A
C424   O466    1.266   .     A
C424   O472    1.275   .     A
C425   O461    1.274   .     A
C425   O463    1.279   .     A
C425   C428    1.460   .     S
C426   O464    1.287   .     A
C426   O462    1.283   .     A
C426   C427    1.472   .     S
C427   C431    1.395   .     A
C429   C433    1.415   .     A
C429   N458    1.438   .     S
C430   N459    1.158   .     T
C431   C432    1.404   .     A
C431   H453    1.079   .     S
C432   C434    1.428   .     A
C432   C433    1.420   .     A
C433   C1049   1.398   .     S
C434   C1047   1.423   .     S
C435   C436    1.409   .     A
C435   C1046   1.423   1_554 S
C436   H454    1.076   .     S
C436   C437    1.387   .     A
C437   H438    1.083   .     S
C437   C1045   1.398   1_554 S
H441   N456    1.045   .     S
H442   N456    1.045   .     S
H443   N457    1.045   .     S
H444   N457    1.046   .     S
H445   N458    1.046   .     S
H446   N458    1.046   .     S
H448   C554    1.088   1_455 S
H449   C487    1.086   .     S
N455   C14     1.436   1_565 S
N455   H32     1.046   1_565 S
N455   H31     1.046   1_565 S
O460   Zn476   1.930   .     S
O460   Zn475   1.941   .     S
O460   Zn474   1.939   .     S
O460   Zn473   1.962   .     S
O461   Zn474   1.928   .     S
O462   Zn476   1.936   .     S
O463   Zn475   1.927   .     S
O464   Zn473   1.920   .     S
O465   Zn473   1.936   .     S
O466   Zn476   1.943   .     S
O467   Zn474   1.926   .     S
O468   Zn475   1.935   .     S
O469   Zn476   1.930   .     S
O470   Zn473   1.924   .     S
O471   Zn474   1.947   .     S
O472   Zn475   1.938   .     S
C477   O535    1.268   .     A
C477   C487    1.437   .     S
C477   O537    1.268   .     A
C478   C498    1.447   .     S
C478   C479    1.392   .     A
C478   C502    1.427   .     A
C479   H519    1.086   .     S
C479   C1093   1.393   .     S
C480   O536    1.284   .     A
C480   C486    1.454   .     S
C480   O538    1.281   .     A
C481   C482    1.418   .     A
C481   C483    1.400   .     A
C481   C1091   1.393   1_554 S
C482   C503    1.426   .     A
C482   C485    1.427   .     A
C483   C484    1.396   .     A
C483   H515    1.084   .     S
C484   C496    1.404   .     A
C484   N525    1.438   .     S
C485   C496    1.403   .     A
C485   N524    1.439   .     S
C486   C555    1.334   .     S
C486   H584    1.088   .     S
C488   C495    1.400   .     A
C488   H520    1.083   .     S
C488   C497    1.402   .     A
C489   C492    1.453   .     S
C489   C82     1.343   1_565 S
C489   H110    1.088   1_565 S
C490   C491    1.433   .     S
C491   O539    1.272   .     A
C491   O533    1.273   .     A
C492   O534    1.266   .     A
C492   O540    1.275   .     A
C493   O529    1.274   .     A
C493   O531    1.279   .     A
C493   C496    1.460   .     S
C494   O532    1.287   .     A
C494   O530    1.283   .     A
C494   C495    1.472   .     S
C495   C499    1.395   .     A
C497   C501    1.415   .     A
C497   N526    1.438   .     S
C498   N527    1.158   .     T
C499   C500    1.404   .     A
C499   H521    1.079   .     S
C500   C502    1.428   .     A
C500   C501    1.420   .     A
C501   C1117   1.398   .     S
C502   C1115   1.423   .     S
C503   C504    1.409   .     A
C503   C1114   1.423   1_554 S
C504   H522    1.076   .     S
C504   C505    1.387   .     A
C505   H506    1.083   .     S
C505   C1113   1.398   1_554 S
H509   N524    1.045   .     S
H510   N524    1.045   .     S
H511   N525    1.045   .     S
H512   N525    1.046   .     S
H513   N526    1.046   .     S
H514   N526    1.046   .     S
H517   C555    1.086   .     S
N523   C82     1.436   1_565 S
N523   H100    1.046   1_565 S
N523   H99     1.046   1_565 S
O528   Zn544   1.930   .     S
O528   Zn543   1.941   .     S
O528   Zn542   1.939   .     S
O528   Zn541   1.962   .     S
O529   Zn542   1.928   .     S
O530   Zn544   1.936   .     S
O531   Zn543   1.927   .     S
O532   Zn541   1.920   .     S
O533   Zn541   1.936   .     S
O534   Zn544   1.943   .     S
O535   Zn542   1.926   .     S
O536   Zn543   1.935   .     S
O537   Zn544   1.930   .     S
O538   Zn541   1.924   .     S
O539   Zn542   1.947   .     S
O540   Zn543   1.938   .     S
C545   O603    1.268   .     A
C545   C555    1.437   .     S
C545   O605    1.268   .     A
C546   C566    1.447   .     S
C546   C547    1.392   .     A
C546   C570    1.427   .     A
C547   H587    1.086   .     S
C547   C1161   1.393   .     S
C548   O604    1.284   .     A
C548   C554    1.454   .     S
C548   O606    1.281   .     A
C549   C550    1.418   .     A
C549   C551    1.400   .     A
C549   C1159   1.393   1_554 S
C550   C571    1.426   .     A
C550   C553    1.427   .     A
C551   C552    1.396   .     A
C551   H583    1.084   .     S
C552   C564    1.404   .     A
C552   N593    1.438   .     S
C553   C564    1.403   .     A
C553   N592    1.439   .     S
C554   C419    1.334   1_655 S
C554   H448    1.088   1_655 S
C556   C563    1.400   .     A
C556   H588    1.083   .     S
C556   C565    1.402   .     A
C557   C560    1.453   .     S
C557   C150    1.343   1_565 S
C557   H178    1.088   1_565 S
C558   C559    1.433   .     S
C559   O607    1.272   .     A
C559   O601    1.273   .     A
C560   O602    1.266   .     A
C560   O608    1.275   .     A
C561   O597    1.274   .     A
C561   O599    1.279   .     A
C561   C564    1.460   .     S
C562   O600    1.287   .     A
C562   O598    1.283   .     A
C562   C563    1.472   .     S
C563   C567    1.395   .     A
C565   C569    1.415   .     A
C565   N594    1.438   .     S
C566   N595    1.158   .     T
C567   C568    1.404   .     A
C567   H589    1.079   .     S
C568   C570    1.428   .     A
C568   C569    1.420   .     A
C569   C1185   1.398   .     S
C570   C1183   1.423   .     S
C571   C572    1.409   .     A
C571   C1182   1.423   1_554 S
C572   H590    1.076   .     S
C572   C573    1.387   .     A
C573   H574    1.083   .     S
C573   C1181   1.398   1_554 S
H577   N592    1.045   .     S
H578   N592    1.045   .     S
H579   N593    1.045   .     S
H580   N593    1.046   .     S
H581   N594    1.046   .     S
H582   N594    1.046   .     S
H585   C419    1.086   1_655 S
N591   C150    1.436   1_565 S
N591   H168    1.046   1_565 S
N591   H167    1.046   1_565 S
O596   Zn612   1.930   .     S
O596   Zn611   1.941   .     S
O596   Zn610   1.939   .     S
O596   Zn609   1.962   .     S
O597   Zn610   1.928   .     S
O598   Zn612   1.936   .     S
O599   Zn611   1.927   .     S
O600   Zn609   1.920   .     S
O601   Zn609   1.936   .     S
O602   Zn612   1.943   .     S
O603   Zn610   1.926   .     S
O604   Zn611   1.935   .     S
O605   Zn612   1.930   .     S
O606   Zn609   1.924   .     S
O607   Zn610   1.947   .     S
O608   Zn611   1.938   .     S
C613   O671    1.268   .     A
C613   C623    1.437   .     S
C613   O673    1.268   .     A
C614   C634    1.447   .     S
C614   C615    1.392   .     A
C614   C638    1.427   .     A
C615   H655    1.086   .     S
C615   C5      1.393   1_556 S
C616   O672    1.284   .     A
C616   C622    1.454   .     S
C616   O674    1.281   .     A
C617   C618    1.418   .     A
C617   C619    1.400   .     A
C618   C639    1.426   .     A
C618   C621    1.427   .     A
C619   C620    1.396   .     A
C619   H651    1.084   .     S
C620   C632    1.404   .     A
C620   N661    1.438   .     S
C621   C632    1.403   .     A
C621   N660    1.439   .     S
C622   C691    1.334   .     S
C622   H720    1.088   .     S
C623   C758    1.334   1_455 S
C623   H789    1.086   1_455 S
C624   C631    1.400   .     A
C624   H656    1.083   .     S
C624   C633    1.402   .     A
C625   C628    1.453   .     S
C625   C830    1.343   .     S
C625   H858    1.088   .     S
C626   C627    1.433   .     S
C626   C1033   1.343   1_545 S
C626   N1067   1.436   1_545 S
C627   O675    1.272   .     A
C627   O669    1.273   .     A
C628   O670    1.266   .     A
C628   O676    1.275   .     A
C629   O665    1.274   .     A
C629   O667    1.279   .     A
C629   C632    1.460   .     S
C630   O668    1.287   .     A
C630   O666    1.283   .     A
C630   C631    1.472   .     S
C631   C635    1.395   .     A
C633   C637    1.415   .     A
C633   N662    1.438   .     S
C634   N663    1.158   .     T
C635   C636    1.404   .     A
C635   H657    1.079   .     S
C636   C638    1.428   .     A
C636   C637    1.420   .     A
C637   C29     1.398   1_556 S
C638   C27     1.423   1_556 S
C639   C640    1.409   .     A
C640   H658    1.076   .     S
C640   C641    1.387   .     A
C641   H642    1.083   .     S
H643   N1067   1.046   1_545 S
H644   N1067   1.046   1_545 S
H645   N660    1.045   .     S
H646   N660    1.045   .     S
H647   N661    1.045   .     S
H648   N661    1.046   .     S
H649   N662    1.046   .     S
H650   N662    1.046   .     S
H652   C758    1.088   1_455 S
H653   C691    1.086   .     S
H654   C1033   1.088   1_545 S
N659   C830    1.436   .     S
N659   H848    1.046   .     S
N659   H847    1.046   .     S
O664   Zn680   1.930   .     S
O664   Zn679   1.941   .     S
O664   Zn678   1.939   .     S
O664   Zn677   1.962   .     S
O665   Zn678   1.928   .     S
O666   Zn680   1.936   .     S
O667   Zn679   1.927   .     S
O668   Zn677   1.920   .     S
O669   Zn677   1.936   .     S
O670   Zn680   1.943   .     S
O671   Zn678   1.926   .     S
O672   Zn679   1.935   .     S
O673   Zn680   1.930   .     S
O674   Zn677   1.924   .     S
O675   Zn678   1.947   .     S
O676   Zn679   1.938   .     S
C681   O739    1.268   .     A
C681   C691    1.437   .     S
C681   O741    1.268   .     A
C682   C702    1.447   .     S
C682   C683    1.392   .     A
C682   C706    1.427   .     A
C683   H723    1.086   .     S
C683   C73     1.393   1_556 S
C684   O740    1.284   .     A
C684   C690    1.454   .     S
C684   O742    1.281   .     A
C685   C686    1.418   .     A
C685   C687    1.400   .     A
C686   C707    1.426   .     A
C686   C689    1.427   .     A
C687   C688    1.396   .     A
C687   H719    1.084   .     S
C688   C700    1.404   .     A
C688   N729    1.438   .     S
C689   C700    1.403   .     A
C689   N728    1.439   .     S
C690   C759    1.334   .     S
C690   H788    1.088   .     S
C692   C699    1.400   .     A
C692   H724    1.083   .     S
C692   C701    1.402   .     A
C693   C696    1.453   .     S
C693   C898    1.343   .     S
C693   H926    1.088   .     S
C694   C695    1.433   .     S
C694   C1101   1.343   1_545 S
C694   N1135   1.436   1_545 S
C695   O743    1.272   .     A
C695   O737    1.273   .     A
C696   O738    1.266   .     A
C696   O744    1.275   .     A
C697   O733    1.274   .     A
C697   O735    1.279   .     A
C697   C700    1.460   .     S
C698   O736    1.287   .     A
C698   O734    1.283   .     A
C698   C699    1.472   .     S
C699   C703    1.395   .     A
C701   C705    1.415   .     A
C701   N730    1.438   .     S
C702   N731    1.158   .     T
C703   C704    1.404   .     A
C703   H725    1.079   .     S
C704   C706    1.428   .     A
C704   C705    1.420   .     A
C705   C97     1.398   1_556 S
C706   C95     1.423   1_556 S
C707   C708    1.409   .     A
C708   H726    1.076   .     S
C708   C709    1.387   .     A
C709   H710    1.083   .     S
H711   N1135   1.046   1_545 S
H712   N1135   1.046   1_545 S
H713   N728    1.045   .     S
H714   N728    1.045   .     S
H715   N729    1.045   .     S
H716   N729    1.046   .     S
H717   N730    1.046   .     S
H718   N730    1.046   .     S
H721   C759    1.086   .     S
H722   C1101   1.088   1_545 S
N727   C898    1.436   .     S
N727   H916    1.046   .     S
N727   H915    1.046   .     S
O732   Zn748   1.930   .     S
O732   Zn747   1.941   .     S
O732   Zn746   1.939   .     S
O732   Zn745   1.962   .     S
O733   Zn746   1.928   .     S
O734   Zn748   1.936   .     S
O735   Zn747   1.927   .     S
O736   Zn745   1.920   .     S
O737   Zn745   1.936   .     S
O738   Zn748   1.943   .     S
O739   Zn746   1.926   .     S
O740   Zn747   1.935   .     S
O741   Zn748   1.930   .     S
O742   Zn745   1.924   .     S
O743   Zn746   1.947   .     S
O744   Zn747   1.938   .     S
C749   O807    1.268   .     A
C749   C759    1.437   .     S
C749   O809    1.268   .     A
C750   C770    1.447   .     S
C750   C751    1.392   .     A
C750   C774    1.427   .     A
C751   H791    1.086   .     S
C751   C141    1.393   1_556 S
C752   O808    1.284   .     A
C752   C758    1.454   .     S
C752   O810    1.281   .     A
C753   C754    1.418   .     A
C753   C755    1.400   .     A
C754   C775    1.426   .     A
C754   C757    1.427   .     A
C755   C756    1.396   .     A
C755   H787    1.084   .     S
C756   C768    1.404   .     A
C756   N797    1.438   .     S
C757   C768    1.403   .     A
C757   N796    1.439   .     S
C758   C623    1.334   1_655 S
C758   H652    1.088   1_655 S
C760   C767    1.400   .     A
C760   H792    1.083   .     S
C760   C769    1.402   .     A
C761   C764    1.453   .     S
C761   C966    1.343   .     S
C761   H994    1.088   .     S
C762   C763    1.433   .     S
C762   C1169   1.343   1_545 S
C762   N1203   1.436   1_545 S
C763   O811    1.272   .     A
C763   O805    1.273   .     A
C764   O806    1.266   .     A
C764   O812    1.275   .     A
C765   O801    1.274   .     A
C765   O803    1.279   .     A
C765   C768    1.460   .     S
C766   O804    1.287   .     A
C766   O802    1.283   .     A
C766   C767    1.472   .     S
C767   C771    1.395   .     A
C769   C773    1.415   .     A
C769   N798    1.438   .     S
C770   N799    1.158   .     T
C771   C772    1.404   .     A
C771   H793    1.079   .     S
C772   C774    1.428   .     A
C772   C773    1.420   .     A
C773   C165    1.398   1_556 S
C774   C163    1.423   1_556 S
C775   C776    1.409   .     A
C776   H794    1.076   .     S
C776   C777    1.387   .     A
C777   H778    1.083   .     S
H779   N1203   1.046   1_545 S
H780   N1203   1.046   1_545 S
H781   N796    1.045   .     S
H782   N796    1.045   .     S
H783   N797    1.045   .     S
H784   N797    1.046   .     S
H785   N798    1.046   .     S
H786   N798    1.046   .     S
H789   C623    1.086   1_655 S
H790   C1169   1.088   1_545 S
N795   C966    1.436   .     S
N795   H984    1.046   .     S
N795   H983    1.046   .     S
O800   Zn816   1.930   .     S
O800   Zn815   1.941   .     S
O800   Zn814   1.939   .     S
O800   Zn813   1.962   .     S
O801   Zn814   1.928   .     S
O802   Zn816   1.936   .     S
O803   Zn815   1.927   .     S
O804   Zn813   1.920   .     S
O805   Zn813   1.936   .     S
O806   Zn816   1.943   .     S
O807   Zn814   1.926   .     S
O808   Zn815   1.935   .     S
O809   Zn816   1.930   .     S
O810   Zn813   1.924   .     S
O811   Zn814   1.947   .     S
O812   Zn815   1.938   .     S
C817   O875    1.268   .     A
C817   C827    1.437   .     S
C817   O877    1.268   .     A
C818   C838    1.447   .     S
C818   C819    1.392   .     A
C818   C842    1.427   .     A
C819   H859    1.086   .     S
C819   C209    1.393   1_556 S
C820   O876    1.284   .     A
C820   C826    1.454   .     S
C820   O878    1.281   .     A
C821   C822    1.418   .     A
C821   C823    1.400   .     A
C822   C843    1.426   .     A
C822   C825    1.427   .     A
C823   C824    1.396   .     A
C823   H855    1.084   .     S
C824   C836    1.404   .     A
C824   N865    1.438   .     S
C825   C836    1.403   .     A
C825   N864    1.439   .     S
C826   C895    1.334   .     S
C826   H924    1.088   .     S
C827   C962    1.334   1_455 S
C827   H993    1.086   1_455 S
C828   C835    1.400   .     A
C828   H860    1.083   .     S
C828   C837    1.402   .     A
C829   C832    1.453   .     S
C829   C1034   1.343   .     S
C829   H1062   1.088   .     S
C830   C831    1.433   .     S
C831   O879    1.272   .     A
C831   O873    1.273   .     A
C832   O874    1.266   .     A
C832   O880    1.275   .     A
C833   O869    1.274   .     A
C833   O871    1.279   .     A
C833   C836    1.460   .     S
C834   O872    1.287   .     A
C834   O870    1.283   .     A
C834   C835    1.472   .     S
C835   C839    1.395   .     A
C837   C841    1.415   .     A
C837   N866    1.438   .     S
C838   N867    1.158   .     T
C839   C840    1.404   .     A
C839   H861    1.079   .     S
C840   C842    1.428   .     A
C840   C841    1.420   .     A
C841   C233    1.398   1_556 S
C842   C231    1.423   1_556 S
C843   C844    1.409   .     A
C844   H862    1.076   .     S
C844   C845    1.387   .     A
C845   H846    1.083   .     S
H849   N864    1.045   .     S
H850   N864    1.045   .     S
H851   N865    1.045   .     S
H852   N865    1.046   .     S
H853   N866    1.046   .     S
H854   N866    1.046   .     S
H856   C962    1.088   1_455 S
H857   C895    1.086   .     S
N863   C1034   1.436   .     S
N863   H1052   1.046   .     S
N863   H1051   1.046   .     S
O868   Zn884   1.930   .     S
O868   Zn883   1.941   .     S
O868   Zn882   1.939   .     S
O868   Zn881   1.962   .     S
O869   Zn882   1.928   .     S
O870   Zn884   1.936   .     S
O871   Zn883   1.927   .     S
O872   Zn881   1.920   .     S
O873   Zn881   1.936   .     S
O874   Zn884   1.943   .     S
O875   Zn882   1.926   .     S
O876   Zn883   1.935   .     S
O877   Zn884   1.930   .     S
O878   Zn881   1.924   .     S
O879   Zn882   1.947   .     S
O880   Zn883   1.938   .     S
C885   O943    1.268   .     A
C885   C895    1.437   .     S
C885   O945    1.268   .     A
C886   C906    1.447   .     S
C886   C887    1.392   .     A
C886   C910    1.427   .     A
C887   H927    1.086   .     S
C887   C277    1.393   1_556 S
C888   O944    1.284   .     A
C888   C894    1.454   .     S
C888   O946    1.281   .     A
C889   C890    1.418   .     A
C889   C891    1.400   .     A
C890   C911    1.426   .     A
C890   C893    1.427   .     A
C891   C892    1.396   .     A
C891   H923    1.084   .     S
C892   C904    1.404   .     A
C892   N933    1.438   .     S
C893   C904    1.403   .     A
C893   N932    1.439   .     S
C894   C963    1.334   .     S
C894   H992    1.088   .     S
C896   C903    1.400   .     A
C896   H928    1.083   .     S
C896   C905    1.402   .     A
C897   C900    1.453   .     S
C897   C1102   1.343   .     S
C897   H1130   1.088   .     S
C898   C899    1.433   .     S
C899   O947    1.272   .     A
C899   O941    1.273   .     A
C900   O942    1.266   .     A
C900   O948    1.275   .     A
C901   O937    1.274   .     A
C901   O939    1.279   .     A
C901   C904    1.460   .     S
C902   O940    1.287   .     A
C902   O938    1.283   .     A
C902   C903    1.472   .     S
C903   C907    1.395   .     A
C905   C909    1.415   .     A
C905   N934    1.438   .     S
C906   N935    1.158   .     T
C907   C908    1.404   .     A
C907   H929    1.079   .     S
C908   C910    1.428   .     A
C908   C909    1.420   .     A
C909   C301    1.398   1_556 S
C910   C299    1.423   1_556 S
C911   C912    1.409   .     A
C912   H930    1.076   .     S
C912   C913    1.387   .     A
C913   H914    1.083   .     S
H917   N932    1.045   .     S
H918   N932    1.045   .     S
H919   N933    1.045   .     S
H920   N933    1.046   .     S
H921   N934    1.046   .     S
H922   N934    1.046   .     S
H925   C963    1.086   .     S
N931   C1102   1.436   .     S
N931   H1120   1.046   .     S
N931   H1119   1.046   .     S
O936   Zn952   1.930   .     S
O936   Zn951   1.941   .     S
O936   Zn950   1.939   .     S
O936   Zn949   1.962   .     S
O937   Zn950   1.928   .     S
O938   Zn952   1.936   .     S
O939   Zn951   1.927   .     S
O940   Zn949   1.920   .     S
O941   Zn949   1.936   .     S
O942   Zn952   1.943   .     S
O943   Zn950   1.926   .     S
O944   Zn951   1.935   .     S
O945   Zn952   1.930   .     S
O946   Zn949   1.924   .     S
O947   Zn950   1.947   .     S
O948   Zn951   1.938   .     S
C953   O1011   1.268   .     A
C953   C963    1.437   .     S
C953   O1013   1.268   .     A
C954   C974    1.447   .     S
C954   C955    1.392   .     A
C954   C978    1.427   .     A
C955   H995    1.086   .     S
C955   C345    1.393   1_556 S
C956   O1012   1.284   .     A
C956   C962    1.454   .     S
C956   O1014   1.281   .     A
C957   C958    1.418   .     A
C957   C959    1.400   .     A
C958   C979    1.426   .     A
C958   C961    1.427   .     A
C959   C960    1.396   .     A
C959   H991    1.084   .     S
C960   C972    1.404   .     A
C960   N1001   1.438   .     S
C961   C972    1.403   .     A
C961   N1000   1.439   .     S
C962   C827    1.334   1_655 S
C962   H856    1.088   1_655 S
C964   C971    1.400   .     A
C964   H996    1.083   .     S
C964   C973    1.402   .     A
C965   C968    1.453   .     S
C965   C1170   1.343   .     S
C965   H1198   1.088   .     S
C966   C967    1.433   .     S
C967   O1015   1.272   .     A
C967   O1009   1.273   .     A
C968   O1010   1.266   .     A
C968   O1016   1.275   .     A
C969   O1005   1.274   .     A
C969   O1007   1.279   .     A
C969   C972    1.460   .     S
C970   O1008   1.287   .     A
C970   O1006   1.283   .     A
C970   C971    1.472   .     S
C971   C975    1.395   .     A
C973   C977    1.415   .     A
C973   N1002   1.438   .     S
C974   N1003   1.158   .     T
C975   C976    1.404   .     A
C975   H997    1.079   .     S
C976   C978    1.428   .     A
C976   C977    1.420   .     A
C977   C369    1.398   1_556 S
C978   C367    1.423   1_556 S
C979   C980    1.409   .     A
C980   H998    1.076   .     S
C980   C981    1.387   .     A
C981   H982    1.083   .     S
H985   N1000   1.045   .     S
H986   N1000   1.045   .     S
H987   N1001   1.045   .     S
H988   N1001   1.046   .     S
H989   N1002   1.046   .     S
H990   N1002   1.046   .     S
H993   C827    1.086   1_655 S
N999   C1170   1.436   .     S
N999   H1188   1.046   .     S
N999   H1187   1.046   .     S
O1004  Zn1020  1.930   .     S
O1004  Zn1019  1.941   .     S
O1004  Zn1018  1.939   .     S
O1004  Zn1017  1.962   .     S
O1005  Zn1018  1.928   .     S
O1006  Zn1020  1.936   .     S
O1007  Zn1019  1.927   .     S
O1008  Zn1017  1.920   .     S
O1009  Zn1017  1.936   .     S
O1010  Zn1020  1.943   .     S
O1011  Zn1018  1.926   .     S
O1012  Zn1019  1.935   .     S
O1013  Zn1020  1.930   .     S
O1014  Zn1017  1.924   .     S
O1015  Zn1018  1.947   .     S
O1016  Zn1019  1.938   .     S
C1021  O1079   1.268   .     A
C1021  C1031   1.437   .     S
C1021  O1081   1.268   .     A
C1022  C1042   1.447   .     S
C1022  C1023   1.392   .     A
C1022  C1046   1.427   .     A
C1023  H1063   1.086   .     S
C1023  C413    1.393   1_556 S
C1024  O1080   1.284   .     A
C1024  C1030   1.454   .     S
C1024  O1082   1.281   .     A
C1025  C1026   1.418   .     A
C1025  C1027   1.400   .     A
C1026  C1047   1.426   .     A
C1026  C1029   1.427   .     A
C1027  C1028   1.396   .     A
C1027  H1059   1.084   .     S
C1028  C1040   1.404   .     A
C1028  N1069   1.438   .     S
C1029  C1040   1.403   .     A
C1029  N1068   1.439   .     S
C1030  C1099   1.334   .     S
C1030  H1128   1.088   .     S
C1031  C1166   1.334   1_455 S
C1031  H1197   1.086   1_455 S
C1032  C1039   1.400   .     A
C1032  H1064   1.083   .     S
C1032  C1041   1.402   .     A
C1033  C1036   1.453   .     S
C1033  C626    1.343   1_565 S
C1033  H654    1.088   1_565 S
C1034  C1035   1.433   .     S
C1035  O1083   1.272   .     A
C1035  O1077   1.273   .     A
C1036  O1078   1.266   .     A
C1036  O1084   1.275   .     A
C1037  O1073   1.274   .     A
C1037  O1075   1.279   .     A
C1037  C1040   1.460   .     S
C1038  O1076   1.287   .     A
C1038  O1074   1.283   .     A
C1038  C1039   1.472   .     S
C1039  C1043   1.395   .     A
C1041  C1045   1.415   .     A
C1041  N1070   1.438   .     S
C1042  N1071   1.158   .     T
C1043  C1044   1.404   .     A
C1043  H1065   1.079   .     S
C1044  C1046   1.428   .     A
C1044  C1045   1.420   .     A
C1045  C437    1.398   1_556 S
C1046  C435    1.423   1_556 S
C1047  C1048   1.409   .     A
C1048  H1066   1.076   .     S
C1048  C1049   1.387   .     A
C1049  H1050   1.083   .     S
H1053  N1068   1.045   .     S
H1054  N1068   1.045   .     S
H1055  N1069   1.045   .     S
H1056  N1069   1.046   .     S
H1057  N1070   1.046   .     S
H1058  N1070   1.046   .     S
H1060  C1166   1.088   1_455 S
H1061  C1099   1.086   .     S
N1067  C626    1.436   1_565 S
N1067  H644    1.046   1_565 S
N1067  H643    1.046   1_565 S
O1072  Zn1088  1.930   .     S
O1072  Zn1087  1.941   .     S
O1072  Zn1086  1.939   .     S
O1072  Zn1085  1.962   .     S
O1073  Zn1086  1.928   .     S
O1074  Zn1088  1.936   .     S
O1075  Zn1087  1.927   .     S
O1076  Zn1085  1.920   .     S
O1077  Zn1085  1.936   .     S
O1078  Zn1088  1.943   .     S
O1079  Zn1086  1.926   .     S
O1080  Zn1087  1.935   .     S
O1081  Zn1088  1.930   .     S
O1082  Zn1085  1.924   .     S
O1083  Zn1086  1.947   .     S
O1084  Zn1087  1.938   .     S
C1089  O1147   1.268   .     A
C1089  C1099   1.437   .     S
C1089  O1149   1.268   .     A
C1090  C1110   1.447   .     S
C1090  C1091   1.392   .     A
C1090  C1114   1.427   .     A
C1091  H1131   1.086   .     S
C1091  C481    1.393   1_556 S
C1092  O1148   1.284   .     A
C1092  C1098   1.454   .     S
C1092  O1150   1.281   .     A
C1093  C1094   1.418   .     A
C1093  C1095   1.400   .     A
C1094  C1115   1.426   .     A
C1094  C1097   1.427   .     A
C1095  C1096   1.396   .     A
C1095  H1127   1.084   .     S
C1096  C1108   1.404   .     A
C1096  N1137   1.438   .     S
C1097  C1108   1.403   .     A
C1097  N1136   1.439   .     S
C1098  C1167   1.334   .     S
C1098  H1196   1.088   .     S
C1100  C1107   1.400   .     A
C1100  H1132   1.083   .     S
C1100  C1109   1.402   .     A
C1101  C1104   1.453   .     S
C1101  C694    1.343   1_565 S
C1101  H722    1.088   1_565 S
C1102  C1103   1.433   .     S
C1103  O1151   1.272   .     A
C1103  O1145   1.273   .     A
C1104  O1146   1.266   .     A
C1104  O1152   1.275   .     A
C1105  O1141   1.274   .     A
C1105  O1143   1.279   .     A
C1105  C1108   1.460   .     S
C1106  O1144   1.287   .     A
C1106  O1142   1.283   .     A
C1106  C1107   1.472   .     S
C1107  C1111   1.395   .     A
C1109  C1113   1.415   .     A
C1109  N1138   1.438   .     S
C1110  N1139   1.158   .     T
C1111  C1112   1.404   .     A
C1111  H1133   1.079   .     S
C1112  C1114   1.428   .     A
C1112  C1113   1.420   .     A
C1113  C505    1.398   1_556 S
C1114  C503    1.423   1_556 S
C1115  C1116   1.409   .     A
C1116  H1134   1.076   .     S
C1116  C1117   1.387   .     A
C1117  H1118   1.083   .     S
H1121  N1136   1.045   .     S
H1122  N1136   1.045   .     S
H1123  N1137   1.045   .     S
H1124  N1137   1.046   .     S
H1125  N1138   1.046   .     S
H1126  N1138   1.046   .     S
H1129  C1167   1.086   .     S
N1135  C694    1.436   1_565 S
N1135  H712    1.046   1_565 S
N1135  H711    1.046   1_565 S
O1140  Zn1156  1.930   .     S
O1140  Zn1155  1.941   .     S
O1140  Zn1154  1.939   .     S
O1140  Zn1153  1.962   .     S
O1141  Zn1154  1.928   .     S
O1142  Zn1156  1.936   .     S
O1143  Zn1155  1.927   .     S
O1144  Zn1153  1.920   .     S
O1145  Zn1153  1.936   .     S
O1146  Zn1156  1.943   .     S
O1147  Zn1154  1.926   .     S
O1148  Zn1155  1.935   .     S
O1149  Zn1156  1.930   .     S
O1150  Zn1153  1.924   .     S
O1151  Zn1154  1.947   .     S
O1152  Zn1155  1.938   .     S
C1157  O1215   1.268   .     A
C1157  C1167   1.437   .     S
C1157  O1217   1.268   .     A
C1158  C1178   1.447   .     S
C1158  C1159   1.392   .     A
C1158  C1182   1.427   .     A
C1159  H1199   1.086   .     S
C1159  C549    1.393   1_556 S
C1160  O1216   1.284   .     A
C1160  C1166   1.454   .     S
C1160  O1218   1.281   .     A
C1161  C1162   1.418   .     A
C1161  C1163   1.400   .     A
C1162  C1183   1.426   .     A
C1162  C1165   1.427   .     A
C1163  C1164   1.396   .     A
C1163  H1195   1.084   .     S
C1164  C1176   1.404   .     A
C1164  N1205   1.438   .     S
C1165  C1176   1.403   .     A
C1165  N1204   1.439   .     S
C1166  C1031   1.334   1_655 S
C1166  H1060   1.088   1_655 S
C1168  C1175   1.400   .     A
C1168  H1200   1.083   .     S
C1168  C1177   1.402   .     A
C1169  C1172   1.453   .     S
C1169  C762    1.343   1_565 S
C1169  H790    1.088   1_565 S
C1170  C1171   1.433   .     S
C1171  O1219   1.272   .     A
C1171  O1213   1.273   .     A
C1172  O1214   1.266   .     A
C1172  O1220   1.275   .     A
C1173  O1209   1.274   .     A
C1173  O1211   1.279   .     A
C1173  C1176   1.460   .     S
C1174  O1212   1.287   .     A
C1174  O1210   1.283   .     A
C1174  C1175   1.472   .     S
C1175  C1179   1.395   .     A
C1177  C1181   1.415   .     A
C1177  N1206   1.438   .     S
C1178  N1207   1.158   .     T
C1179  C1180   1.404   .     A
C1179  H1201   1.079   .     S
C1180  C1182   1.428   .     A
C1180  C1181   1.420   .     A
C1181  C573    1.398   1_556 S
C1182  C571    1.423   1_556 S
C1183  C1184   1.409   .     A
C1184  H1202   1.076   .     S
C1184  C1185   1.387   .     A
C1185  H1186   1.083   .     S
H1189  N1204   1.045   .     S
H1190  N1204   1.045   .     S
H1191  N1205   1.045   .     S
H1192  N1205   1.046   .     S
H1193  N1206   1.046   .     S
H1194  N1206   1.046   .     S
H1197  C1031   1.086   1_655 S
N1203  C762    1.436   1_565 S
N1203  H780    1.046   1_565 S
N1203  H779    1.046   1_565 S
O1208  Zn1224  1.930   .     S
O1208  Zn1223  1.941   .     S
O1208  Zn1222  1.939   .     S
O1208  Zn1221  1.962   .     S
O1209  Zn1222  1.928   .     S
O1210  Zn1224  1.936   .     S
O1211  Zn1223  1.927   .     S
O1212  Zn1221  1.920   .     S
O1213  Zn1221  1.936   .     S
O1214  Zn1224  1.943   .     S
O1215  Zn1222  1.926   .     S
O1216  Zn1223  1.935   .     S
O1217  Zn1224  1.930   .     S
O1218  Zn1221  1.924   .     S
O1219  Zn1222  1.947   .     S
O1220  Zn1223  1.938   .     S
