data_str_m1_o10_o18_pcu_sym.47
_audit_creation_date              2020-01-03
_audit_creation_method            'Materials Studio'
_symmetry_space_group_name_H-M    'P1'
_symmetry_Int_Tables_number       1
_symmetry_cell_setting            triclinic
loop_
_symmetry_equiv_pos_as_xyz
  x,y,z
_cell_length_a                    32.5262
_cell_length_b                    32.5192
_cell_length_c                    35.6951
_cell_angle_alpha                 98.0808
_cell_angle_beta                  73.0863
_cell_angle_gamma                 98.6265
loop_
_atom_site_label
_atom_site_type_symbol
_atom_site_fract_x
_atom_site_fract_y
_atom_site_fract_z
_atom_site_U_iso_or_equiv
_atom_site_adp_type
_atom_site_occupancy
C1     C     0.05249   0.15990   0.25874   0.00000  Uiso   1.00
C2     C     0.19877   0.12864   0.45823   0.00000  Uiso   1.00
C3     C     0.22176   0.11024   0.47761   0.00000  Uiso   1.00
C4     C     0.28108   0.17356   0.24118   0.00000  Uiso   1.00
C5     C     0.21531   0.12025   0.01885   0.00000  Uiso   1.00
C6     C     0.17874   0.14137   0.04068   0.00000  Uiso   1.00
C7     C     0.24436   0.11052   0.03881   0.00000  Uiso   1.00
C8     C     0.23326   0.11603   0.08035   0.00000  Uiso   1.00
C9     C     0.17256   0.15258   0.08168   0.00000  Uiso   1.00
C10    C     0.32708   0.17617   0.23755   0.00000  Uiso   1.00
C11    C     0.00710   0.15749   0.26215   0.00000  Uiso   1.00
C12    C     0.09145   0.20442   0.42061   0.00000  Uiso   1.00
C13    C     0.18086   0.32215   0.23792   0.00000  Uiso   1.00
C14    C     0.15165   0.01206   0.26209   0.00000  Uiso   1.00
C15    C     0.15598   0.05609   0.25886   0.00000  Uiso   1.00
C16    C     0.17687   0.27767   0.24129   0.00000  Uiso   1.00
C17    C     0.18815   0.14537   0.14404   0.00000  Uiso   1.00
C18    C     0.14518   0.18741   0.35622   0.00000  Uiso   1.00
C19    C     0.13127   0.19064   0.39950   0.00000  Uiso   1.00
C20    C     0.19727   0.13659   0.10132   0.00000  Uiso   1.00
C21    C     0.07528   0.20162   0.46141   0.00000  Uiso   1.00
C22    C     0.28839   0.09957   0.01697   0.00000  Uiso   1.00
C23    C     0.15607   0.17539   0.41920   0.00000  Uiso   1.00
C24    C     0.16581   0.22647   0.09736   0.00000  Uiso   1.00
C25    C     0.24714   0.06381   0.11576   0.00000  Uiso   1.00
C26    C     0.24823   0.07718   0.45410   0.00000  Uiso   1.00
C27    C     0.00410   0.22321   0.46339   0.00000  Uiso   1.00
C28    C     0.14037   0.17010   0.45946   0.00000  Uiso   1.00
C29    C     0.09973   0.18379   0.48075   0.00000  Uiso   1.00
C30    C     0.16421   0.15149   0.47903   0.00000  Uiso   1.00
C31    C     0.15059   0.15240   0.02047   0.00000  Uiso   1.00
C32    C     0.10821   0.16199   0.04003   0.00000  Uiso   1.00
C33    C     0.08344   0.17757   0.02068   0.00000  Uiso   1.00
H34    H     0.05124   0.18443   0.03739   0.00000  Uiso   1.00
H35    H     0.01123   0.11500   0.47650   0.00000  Uiso   1.00
H36    H     0.12873   0.17974   0.13100   0.00000  Uiso   1.00
H37    H     0.14180   0.24868   0.11218   0.00000  Uiso   1.00
H38    H     0.17761   0.23137   0.06564   0.00000  Uiso   1.00
H39    H     0.19334   0.23311   0.11068   0.00000  Uiso   1.00
H40    H     0.29304   0.11071   0.08926   0.00000  Uiso   1.00
H41    H     0.25006   0.03898   0.09066   0.00000  Uiso   1.00
H42    H     0.21319   0.06160   0.13456   0.00000  Uiso   1.00
H43    H     0.26824   0.05865   0.13375   0.00000  Uiso   1.00
H44    H     0.26447   0.01897   0.45045   0.00000  Uiso   1.00
H45    H     0.01684   0.19334   0.21478   0.00000  Uiso   1.00
H46    H     0.03645   0.23759   0.00741   0.00000  Uiso   1.00
H47    H     0.30597   0.22801   0.48536   0.00000  Uiso   1.00
H48    H     0.33202   0.19553   0.44257   0.00000  Uiso   1.00
H49    H     0.01580   0.25161   0.44755   0.00000  Uiso   1.00
H50    H     0.31801   0.14031   0.28523   0.00000  Uiso   1.00
H51    H     0.20782   0.00276   0.21563   0.00000  Uiso   1.00
H52    H     0.12437   0.33222   0.28450   0.00000  Uiso   1.00
H53    H     0.07293   0.21667   0.40486   0.00000  Uiso   1.00
H54    H     0.18789   0.16792   0.40234   0.00000  Uiso   1.00
H55    H     0.09267   0.15579   0.07014   0.00000  Uiso   1.00
H56    H     0.20530   0.12072   0.42682   0.00000  Uiso   1.00
N57    N     0.14559   0.18408   0.10227   0.00000  Uiso   1.00
N58    N     0.26019   0.10461   0.10155   0.00000  Uiso   1.00
N59    N     0.03486   0.21623   0.48346   0.00000  Uiso   1.00
O60    O     0.16667   0.16667   0.25000   0.00000  Uiso   1.00
O61    O     0.15693   0.12393   0.16625   0.00000  Uiso   1.00
O62    O     0.12687   0.20646   0.33749   0.00000  Uiso   1.00
O63    O     0.21088   0.17493   0.15877   0.00000  Uiso   1.00
O64    O     0.17198   0.16135   0.33749   0.00000  Uiso   1.00
O65    O     0.30103   0.06821   0.02303   0.00000  Uiso   1.00
O66    O     0.31538   0.12546   0.48944   0.00000  Uiso   1.00
O67    O     0.27138   0.08260   0.42098   0.00000  Uiso   1.00
O68    O     0.24522   0.03913   0.46928   0.00000  Uiso   1.00
O69    O     0.17849   0.08101   0.27820   0.00000  Uiso   1.00
O70    O     0.14581   0.26136   0.26767   0.00000  Uiso   1.00
O71    O     0.07452   0.13251   0.23607   0.00000  Uiso   1.00
O72    O     0.26785   0.19179   0.21805   0.00000  Uiso   1.00
O73    O     0.06990   0.18960   0.27820   0.00000  Uiso   1.00
O74    O     0.25440   0.15277   0.26767   0.00000  Uiso   1.00
O75    O     0.13800   0.06903   0.23607   0.00000  Uiso   1.00
O76    O     0.20437   0.25527   0.21805   0.00000  Uiso   1.00
Zn77   Zn    0.19244   0.14090   0.28277   0.00000  Uiso   1.00
Zn78   Zn    0.13459   0.12378   0.22257   0.00000  Uiso   1.00
Zn79   Zn    0.21166   0.19664   0.21188   0.00000  Uiso   1.00
Zn80   Zn    0.12798   0.20535   0.28277   0.00000  Uiso   1.00
C81    C     0.38583   0.15990   0.25874   0.00000  Uiso   1.00
C82    C     0.53210   0.12864   0.45823   0.00000  Uiso   1.00
C83    C     0.55509   0.11024   0.47761   0.00000  Uiso   1.00
C84    C     0.61441   0.17356   0.24118   0.00000  Uiso   1.00
C85    C     0.54864   0.12025   0.01885   0.00000  Uiso   1.00
C86    C     0.51208   0.14137   0.04068   0.00000  Uiso   1.00
C87    C     0.57769   0.11052   0.03881   0.00000  Uiso   1.00
C88    C     0.56660   0.11603   0.08035   0.00000  Uiso   1.00
C89    C     0.50589   0.15258   0.08168   0.00000  Uiso   1.00
C90    C     0.66042   0.17617   0.23755   0.00000  Uiso   1.00
C91    C     0.34044   0.15749   0.26215   0.00000  Uiso   1.00
C92    C     0.42478   0.20442   0.42061   0.00000  Uiso   1.00
C93    C     0.51420   0.32215   0.23792   0.00000  Uiso   1.00
C94    C     0.48499   0.01206   0.26209   0.00000  Uiso   1.00
C95    C     0.48932   0.05609   0.25886   0.00000  Uiso   1.00
C96    C     0.51020   0.27767   0.24129   0.00000  Uiso   1.00
C97    C     0.52149   0.14537   0.14404   0.00000  Uiso   1.00
C98    C     0.47851   0.18741   0.35622   0.00000  Uiso   1.00
C99    C     0.46460   0.19064   0.39950   0.00000  Uiso   1.00
C100   C     0.53060   0.13659   0.10132   0.00000  Uiso   1.00
C101   C     0.40861   0.20162   0.46141   0.00000  Uiso   1.00
C102   C     0.62172   0.09957   0.01697   0.00000  Uiso   1.00
C103   C     0.48940   0.17539   0.41920   0.00000  Uiso   1.00
C104   C     0.49914   0.22647   0.09736   0.00000  Uiso   1.00
C105   C     0.58048   0.06381   0.11576   0.00000  Uiso   1.00
C106   C     0.58156   0.07718   0.45410   0.00000  Uiso   1.00
C107   C     0.33744   0.22321   0.46339   0.00000  Uiso   1.00
C108   C     0.47370   0.17010   0.45946   0.00000  Uiso   1.00
C109   C     0.43306   0.18379   0.48075   0.00000  Uiso   1.00
C110   C     0.49754   0.15149   0.47903   0.00000  Uiso   1.00
C111   C     0.48392   0.15240   0.02047   0.00000  Uiso   1.00
C112   C     0.44154   0.16199   0.04003   0.00000  Uiso   1.00
C113   C     0.41678   0.17757   0.02068   0.00000  Uiso   1.00
H114   H     0.38458   0.18443   0.03739   0.00000  Uiso   1.00
H115   H     0.34456   0.11500   0.47650   0.00000  Uiso   1.00
H116   H     0.46206   0.17974   0.13100   0.00000  Uiso   1.00
H117   H     0.47514   0.24868   0.11218   0.00000  Uiso   1.00
H118   H     0.51094   0.23137   0.06564   0.00000  Uiso   1.00
H119   H     0.52667   0.23311   0.11068   0.00000  Uiso   1.00
H120   H     0.62638   0.11071   0.08926   0.00000  Uiso   1.00
H121   H     0.58340   0.03898   0.09066   0.00000  Uiso   1.00
H122   H     0.54652   0.06160   0.13456   0.00000  Uiso   1.00
H123   H     0.60158   0.05865   0.13375   0.00000  Uiso   1.00
H124   H     0.59780   0.01897   0.45045   0.00000  Uiso   1.00
H125   H     0.35018   0.19334   0.21478   0.00000  Uiso   1.00
H126   H     0.36978   0.23759   0.00741   0.00000  Uiso   1.00
H127   H     0.63931   0.22801   0.48536   0.00000  Uiso   1.00
H128   H     0.66535   0.19553   0.44257   0.00000  Uiso   1.00
H129   H     0.34913   0.25161   0.44755   0.00000  Uiso   1.00
H130   H     0.65134   0.14031   0.28523   0.00000  Uiso   1.00
H131   H     0.54115   0.00276   0.21563   0.00000  Uiso   1.00
H132   H     0.45771   0.33222   0.28450   0.00000  Uiso   1.00
H133   H     0.40627   0.21667   0.40486   0.00000  Uiso   1.00
H134   H     0.52122   0.16792   0.40234   0.00000  Uiso   1.00
H135   H     0.42601   0.15579   0.07014   0.00000  Uiso   1.00
H136   H     0.53863   0.12072   0.42682   0.00000  Uiso   1.00
N137   N     0.47892   0.18408   0.10227   0.00000  Uiso   1.00
N138   N     0.59352   0.10461   0.10155   0.00000  Uiso   1.00
N139   N     0.36819   0.21623   0.48346   0.00000  Uiso   1.00
O140   O     0.50000   0.16667   0.25000   0.00000  Uiso   1.00
O141   O     0.49027   0.12393   0.16625   0.00000  Uiso   1.00
O142   O     0.46020   0.20646   0.33749   0.00000  Uiso   1.00
O143   O     0.54421   0.17493   0.15877   0.00000  Uiso   1.00
O144   O     0.50532   0.16135   0.33749   0.00000  Uiso   1.00
O145   O     0.63436   0.06821   0.02303   0.00000  Uiso   1.00
O146   O     0.64871   0.12546   0.48944   0.00000  Uiso   1.00
O147   O     0.60471   0.08260   0.42098   0.00000  Uiso   1.00
O148   O     0.57856   0.03913   0.46928   0.00000  Uiso   1.00
O149   O     0.51182   0.08101   0.27820   0.00000  Uiso   1.00
O150   O     0.47914   0.26136   0.26767   0.00000  Uiso   1.00
O151   O     0.40785   0.13251   0.23607   0.00000  Uiso   1.00
O152   O     0.60119   0.19179   0.21805   0.00000  Uiso   1.00
O153   O     0.40323   0.18960   0.27820   0.00000  Uiso   1.00
O154   O     0.58773   0.15277   0.26767   0.00000  Uiso   1.00
O155   O     0.47133   0.06903   0.23607   0.00000  Uiso   1.00
O156   O     0.53771   0.25527   0.21805   0.00000  Uiso   1.00
Zn157  Zn    0.52577   0.14090   0.28277   0.00000  Uiso   1.00
Zn158  Zn    0.46792   0.12378   0.22257   0.00000  Uiso   1.00
Zn159  Zn    0.54500   0.19664   0.21188   0.00000  Uiso   1.00
Zn160  Zn    0.46131   0.20535   0.28277   0.00000  Uiso   1.00
C161   C     0.71916   0.15990   0.25874   0.00000  Uiso   1.00
C162   C     0.86543   0.12864   0.45823   0.00000  Uiso   1.00
C163   C     0.88843   0.11024   0.47761   0.00000  Uiso   1.00
C164   C     0.94775   0.17356   0.24118   0.00000  Uiso   1.00
C165   C     0.88198   0.12025   0.01885   0.00000  Uiso   1.00
C166   C     0.84541   0.14137   0.04068   0.00000  Uiso   1.00
C167   C     0.91102   0.11052   0.03881   0.00000  Uiso   1.00
C168   C     0.89993   0.11603   0.08035   0.00000  Uiso   1.00
C169   C     0.83923   0.15258   0.08168   0.00000  Uiso   1.00
C170   C     0.99375   0.17617   0.23755   0.00000  Uiso   1.00
C171   C     0.67377   0.15749   0.26215   0.00000  Uiso   1.00
C172   C     0.75811   0.20442   0.42061   0.00000  Uiso   1.00
C173   C     0.84753   0.32215   0.23792   0.00000  Uiso   1.00
C174   C     0.81832   0.01206   0.26209   0.00000  Uiso   1.00
C175   C     0.82265   0.05609   0.25886   0.00000  Uiso   1.00
C176   C     0.84353   0.27767   0.24129   0.00000  Uiso   1.00
C177   C     0.85482   0.14537   0.14404   0.00000  Uiso   1.00
C178   C     0.81184   0.18741   0.35622   0.00000  Uiso   1.00
C179   C     0.79793   0.19064   0.39950   0.00000  Uiso   1.00
C180   C     0.86393   0.13659   0.10132   0.00000  Uiso   1.00
C181   C     0.74195   0.20162   0.46141   0.00000  Uiso   1.00
C182   C     0.95505   0.09957   0.01697   0.00000  Uiso   1.00
C183   C     0.82274   0.17539   0.41920   0.00000  Uiso   1.00
C184   C     0.83248   0.22647   0.09736   0.00000  Uiso   1.00
C185   C     0.91381   0.06381   0.11576   0.00000  Uiso   1.00
C186   C     0.91490   0.07718   0.45410   0.00000  Uiso   1.00
C187   C     0.67077   0.22321   0.46339   0.00000  Uiso   1.00
C188   C     0.80704   0.17010   0.45946   0.00000  Uiso   1.00
C189   C     0.76640   0.18379   0.48075   0.00000  Uiso   1.00
C190   C     0.83088   0.15149   0.47903   0.00000  Uiso   1.00
C191   C     0.81725   0.15240   0.02047   0.00000  Uiso   1.00
C192   C     0.77488   0.16199   0.04003   0.00000  Uiso   1.00
C193   C     0.75011   0.17757   0.02068   0.00000  Uiso   1.00
H194   H     0.71791   0.18443   0.03739   0.00000  Uiso   1.00
H195   H     0.67790   0.11500   0.47650   0.00000  Uiso   1.00
H196   H     0.79539   0.17974   0.13100   0.00000  Uiso   1.00
H197   H     0.80847   0.24868   0.11218   0.00000  Uiso   1.00
H198   H     0.84428   0.23137   0.06564   0.00000  Uiso   1.00
H199   H     0.86000   0.23311   0.11068   0.00000  Uiso   1.00
H200   H     0.95971   0.11071   0.08926   0.00000  Uiso   1.00
H201   H     0.91673   0.03898   0.09066   0.00000  Uiso   1.00
H202   H     0.87985   0.06160   0.13456   0.00000  Uiso   1.00
H203   H     0.93491   0.05865   0.13375   0.00000  Uiso   1.00
H204   H     0.93113   0.01897   0.45045   0.00000  Uiso   1.00
H205   H     0.68351   0.19334   0.21478   0.00000  Uiso   1.00
H206   H     0.70311   0.23759   0.00741   0.00000  Uiso   1.00
H207   H     0.97264   0.22801   0.48536   0.00000  Uiso   1.00
H208   H     0.99868   0.19553   0.44257   0.00000  Uiso   1.00
H209   H     0.68247   0.25161   0.44755   0.00000  Uiso   1.00
H210   H     0.98467   0.14031   0.28523   0.00000  Uiso   1.00
H211   H     0.87448   0.00276   0.21563   0.00000  Uiso   1.00
H212   H     0.79104   0.33222   0.28450   0.00000  Uiso   1.00
H213   H     0.73960   0.21667   0.40486   0.00000  Uiso   1.00
H214   H     0.85455   0.16792   0.40234   0.00000  Uiso   1.00
H215   H     0.75934   0.15579   0.07014   0.00000  Uiso   1.00
H216   H     0.87197   0.12072   0.42682   0.00000  Uiso   1.00
N217   N     0.81226   0.18408   0.10227   0.00000  Uiso   1.00
N218   N     0.92685   0.10461   0.10155   0.00000  Uiso   1.00
N219   N     0.70152   0.21623   0.48346   0.00000  Uiso   1.00
O220   O     0.83333   0.16667   0.25000   0.00000  Uiso   1.00
O221   O     0.82360   0.12393   0.16625   0.00000  Uiso   1.00
O222   O     0.79354   0.20646   0.33749   0.00000  Uiso   1.00
O223   O     0.87755   0.17493   0.15877   0.00000  Uiso   1.00
O224   O     0.83865   0.16135   0.33749   0.00000  Uiso   1.00
O225   O     0.96770   0.06821   0.02303   0.00000  Uiso   1.00
O226   O     0.98204   0.12546   0.48944   0.00000  Uiso   1.00
O227   O     0.93804   0.08260   0.42098   0.00000  Uiso   1.00
O228   O     0.91189   0.03913   0.46928   0.00000  Uiso   1.00
O229   O     0.84515   0.08101   0.27820   0.00000  Uiso   1.00
O230   O     0.81247   0.26136   0.26767   0.00000  Uiso   1.00
O231   O     0.74119   0.13251   0.23607   0.00000  Uiso   1.00
O232   O     0.93452   0.19179   0.21805   0.00000  Uiso   1.00
O233   O     0.73656   0.18960   0.27820   0.00000  Uiso   1.00
O234   O     0.92106   0.15277   0.26767   0.00000  Uiso   1.00
O235   O     0.80467   0.06903   0.23607   0.00000  Uiso   1.00
O236   O     0.87104   0.25527   0.21805   0.00000  Uiso   1.00
Zn237  Zn    0.85910   0.14090   0.28277   0.00000  Uiso   1.00
Zn238  Zn    0.80125   0.12378   0.22257   0.00000  Uiso   1.00
Zn239  Zn    0.87833   0.19664   0.21188   0.00000  Uiso   1.00
Zn240  Zn    0.79465   0.20535   0.28277   0.00000  Uiso   1.00
C241   C     0.05249   0.49323   0.25874   0.00000  Uiso   1.00
C242   C     0.19877   0.46197   0.45823   0.00000  Uiso   1.00
C243   C     0.22176   0.44357   0.47761   0.00000  Uiso   1.00
C244   C     0.28108   0.50689   0.24118   0.00000  Uiso   1.00
C245   C     0.21531   0.45358   0.01885   0.00000  Uiso   1.00
C246   C     0.17874   0.47470   0.04068   0.00000  Uiso   1.00
C247   C     0.24436   0.44385   0.03881   0.00000  Uiso   1.00
C248   C     0.23326   0.44936   0.08035   0.00000  Uiso   1.00
C249   C     0.17256   0.48591   0.08168   0.00000  Uiso   1.00
C250   C     0.32708   0.50950   0.23755   0.00000  Uiso   1.00
C251   C     0.00710   0.49082   0.26215   0.00000  Uiso   1.00
C252   C     0.09145   0.53776   0.42061   0.00000  Uiso   1.00
C253   C     0.18086   0.65548   0.23792   0.00000  Uiso   1.00
C254   C     0.15165   0.34539   0.26209   0.00000  Uiso   1.00
C255   C     0.15598   0.38942   0.25886   0.00000  Uiso   1.00
C256   C     0.17687   0.61101   0.24129   0.00000  Uiso   1.00
C257   C     0.18815   0.47870   0.14404   0.00000  Uiso   1.00
C258   C     0.14518   0.52074   0.35622   0.00000  Uiso   1.00
C259   C     0.13127   0.52398   0.39950   0.00000  Uiso   1.00
C260   C     0.19727   0.46992   0.10132   0.00000  Uiso   1.00
C261   C     0.07528   0.53495   0.46141   0.00000  Uiso   1.00
C262   C     0.28839   0.43291   0.01697   0.00000  Uiso   1.00
C263   C     0.15607   0.50872   0.41920   0.00000  Uiso   1.00
C264   C     0.16581   0.55980   0.09736   0.00000  Uiso   1.00
C265   C     0.24714   0.39714   0.11576   0.00000  Uiso   1.00
C266   C     0.24823   0.41052   0.45410   0.00000  Uiso   1.00
C267   C     0.00410   0.55655   0.46339   0.00000  Uiso   1.00
C268   C     0.14037   0.50343   0.45946   0.00000  Uiso   1.00
C269   C     0.09973   0.51713   0.48075   0.00000  Uiso   1.00
C270   C     0.16421   0.48482   0.47903   0.00000  Uiso   1.00
C271   C     0.15059   0.48574   0.02047   0.00000  Uiso   1.00
C272   C     0.10821   0.49533   0.04003   0.00000  Uiso   1.00
C273   C     0.08344   0.51091   0.02068   0.00000  Uiso   1.00
H274   H     0.05124   0.51777   0.03739   0.00000  Uiso   1.00
H275   H     0.01123   0.44833   0.47650   0.00000  Uiso   1.00
H276   H     0.12873   0.51308   0.13100   0.00000  Uiso   1.00
H277   H     0.14180   0.58201   0.11218   0.00000  Uiso   1.00
H278   H     0.17761   0.56470   0.06564   0.00000  Uiso   1.00
H279   H     0.19334   0.56644   0.11068   0.00000  Uiso   1.00
H280   H     0.29304   0.44404   0.08926   0.00000  Uiso   1.00
H281   H     0.25006   0.37231   0.09066   0.00000  Uiso   1.00
H282   H     0.21319   0.39493   0.13456   0.00000  Uiso   1.00
H283   H     0.26824   0.39199   0.13375   0.00000  Uiso   1.00
H284   H     0.26447   0.35230   0.45045   0.00000  Uiso   1.00
H285   H     0.01684   0.52667   0.21478   0.00000  Uiso   1.00
H286   H     0.03645   0.57092   0.00741   0.00000  Uiso   1.00
H287   H     0.30597   0.56135   0.48536   0.00000  Uiso   1.00
H288   H     0.33202   0.52886   0.44257   0.00000  Uiso   1.00
H289   H     0.01580   0.58494   0.44755   0.00000  Uiso   1.00
H290   H     0.31801   0.47365   0.28523   0.00000  Uiso   1.00
H291   H     0.20782   0.33609   0.21563   0.00000  Uiso   1.00
H292   H     0.12437   0.66555   0.28450   0.00000  Uiso   1.00
H293   H     0.07293   0.55000   0.40486   0.00000  Uiso   1.00
H294   H     0.18789   0.50125   0.40234   0.00000  Uiso   1.00
H295   H     0.09267   0.48913   0.07014   0.00000  Uiso   1.00
H296   H     0.20530   0.45405   0.42682   0.00000  Uiso   1.00
N297   N     0.14559   0.51741   0.10227   0.00000  Uiso   1.00
N298   N     0.26019   0.43794   0.10155   0.00000  Uiso   1.00
N299   N     0.03486   0.54956   0.48346   0.00000  Uiso   1.00
O300   O     0.16667   0.50000   0.25000   0.00000  Uiso   1.00
O301   O     0.15693   0.45726   0.16625   0.00000  Uiso   1.00
O302   O     0.12687   0.53979   0.33749   0.00000  Uiso   1.00
O303   O     0.21088   0.50826   0.15877   0.00000  Uiso   1.00
O304   O     0.17198   0.49468   0.33749   0.00000  Uiso   1.00
O305   O     0.30103   0.40155   0.02303   0.00000  Uiso   1.00
O306   O     0.31538   0.45879   0.48944   0.00000  Uiso   1.00
O307   O     0.27138   0.41593   0.42098   0.00000  Uiso   1.00
O308   O     0.24522   0.37246   0.46928   0.00000  Uiso   1.00
O309   O     0.17849   0.41434   0.27820   0.00000  Uiso   1.00
O310   O     0.14581   0.59469   0.26767   0.00000  Uiso   1.00
O311   O     0.07452   0.46584   0.23607   0.00000  Uiso   1.00
O312   O     0.26785   0.52512   0.21805   0.00000  Uiso   1.00
O313   O     0.06990   0.52293   0.27820   0.00000  Uiso   1.00
O314   O     0.25440   0.48610   0.26767   0.00000  Uiso   1.00
O315   O     0.13800   0.40236   0.23607   0.00000  Uiso   1.00
O316   O     0.20437   0.58860   0.21805   0.00000  Uiso   1.00
Zn317  Zn    0.19244   0.47423   0.28277   0.00000  Uiso   1.00
Zn318  Zn    0.13459   0.45711   0.22257   0.00000  Uiso   1.00
Zn319  Zn    0.21166   0.52997   0.21188   0.00000  Uiso   1.00
Zn320  Zn    0.12798   0.53868   0.28277   0.00000  Uiso   1.00
C321   C     0.38583   0.49323   0.25874   0.00000  Uiso   1.00
C322   C     0.53210   0.46197   0.45823   0.00000  Uiso   1.00
C323   C     0.55509   0.44357   0.47761   0.00000  Uiso   1.00
C324   C     0.61441   0.50689   0.24118   0.00000  Uiso   1.00
C325   C     0.54864   0.45358   0.01885   0.00000  Uiso   1.00
C326   C     0.51208   0.47470   0.04068   0.00000  Uiso   1.00
C327   C     0.57769   0.44385   0.03881   0.00000  Uiso   1.00
C328   C     0.56660   0.44936   0.08035   0.00000  Uiso   1.00
C329   C     0.50589   0.48591   0.08168   0.00000  Uiso   1.00
C330   C     0.66042   0.50950   0.23755   0.00000  Uiso   1.00
C331   C     0.34044   0.49082   0.26215   0.00000  Uiso   1.00
C332   C     0.42478   0.53776   0.42061   0.00000  Uiso   1.00
C333   C     0.51420   0.65548   0.23792   0.00000  Uiso   1.00
C334   C     0.48499   0.34539   0.26209   0.00000  Uiso   1.00
C335   C     0.48932   0.38942   0.25886   0.00000  Uiso   1.00
C336   C     0.51020   0.61101   0.24129   0.00000  Uiso   1.00
C337   C     0.52149   0.47870   0.14404   0.00000  Uiso   1.00
C338   C     0.47851   0.52074   0.35622   0.00000  Uiso   1.00
C339   C     0.46460   0.52398   0.39950   0.00000  Uiso   1.00
C340   C     0.53060   0.46992   0.10132   0.00000  Uiso   1.00
C341   C     0.40861   0.53495   0.46141   0.00000  Uiso   1.00
C342   C     0.62172   0.43291   0.01697   0.00000  Uiso   1.00
C343   C     0.48940   0.50872   0.41920   0.00000  Uiso   1.00
C344   C     0.49914   0.55980   0.09736   0.00000  Uiso   1.00
C345   C     0.58048   0.39714   0.11576   0.00000  Uiso   1.00
C346   C     0.58156   0.41052   0.45410   0.00000  Uiso   1.00
C347   C     0.33744   0.55655   0.46339   0.00000  Uiso   1.00
C348   C     0.47370   0.50343   0.45946   0.00000  Uiso   1.00
C349   C     0.43306   0.51713   0.48075   0.00000  Uiso   1.00
C350   C     0.49754   0.48482   0.47903   0.00000  Uiso   1.00
C351   C     0.48392   0.48574   0.02047   0.00000  Uiso   1.00
C352   C     0.44154   0.49533   0.04003   0.00000  Uiso   1.00
C353   C     0.41678   0.51091   0.02068   0.00000  Uiso   1.00
H354   H     0.38458   0.51777   0.03739   0.00000  Uiso   1.00
H355   H     0.34456   0.44833   0.47650   0.00000  Uiso   1.00
H356   H     0.46206   0.51308   0.13100   0.00000  Uiso   1.00
H357   H     0.47514   0.58201   0.11218   0.00000  Uiso   1.00
H358   H     0.51094   0.56470   0.06564   0.00000  Uiso   1.00
H359   H     0.52667   0.56644   0.11068   0.00000  Uiso   1.00
H360   H     0.62638   0.44404   0.08926   0.00000  Uiso   1.00
H361   H     0.58340   0.37231   0.09066   0.00000  Uiso   1.00
H362   H     0.54652   0.39493   0.13456   0.00000  Uiso   1.00
H363   H     0.60158   0.39199   0.13375   0.00000  Uiso   1.00
H364   H     0.59780   0.35230   0.45045   0.00000  Uiso   1.00
H365   H     0.35018   0.52667   0.21478   0.00000  Uiso   1.00
H366   H     0.36978   0.57092   0.00741   0.00000  Uiso   1.00
H367   H     0.63931   0.56135   0.48536   0.00000  Uiso   1.00
H368   H     0.66535   0.52886   0.44257   0.00000  Uiso   1.00
H369   H     0.34913   0.58494   0.44755   0.00000  Uiso   1.00
H370   H     0.65134   0.47365   0.28523   0.00000  Uiso   1.00
H371   H     0.54115   0.33609   0.21563   0.00000  Uiso   1.00
H372   H     0.45771   0.66555   0.28450   0.00000  Uiso   1.00
H373   H     0.40627   0.55000   0.40486   0.00000  Uiso   1.00
H374   H     0.52122   0.50125   0.40234   0.00000  Uiso   1.00
H375   H     0.42601   0.48913   0.07014   0.00000  Uiso   1.00
H376   H     0.53863   0.45405   0.42682   0.00000  Uiso   1.00
N377   N     0.47892   0.51741   0.10227   0.00000  Uiso   1.00
N378   N     0.59352   0.43794   0.10155   0.00000  Uiso   1.00
N379   N     0.36819   0.54956   0.48346   0.00000  Uiso   1.00
O380   O     0.50000   0.50000   0.25000   0.00000  Uiso   1.00
O381   O     0.49027   0.45726   0.16625   0.00000  Uiso   1.00
O382   O     0.46020   0.53979   0.33749   0.00000  Uiso   1.00
O383   O     0.54421   0.50826   0.15877   0.00000  Uiso   1.00
O384   O     0.50532   0.49468   0.33749   0.00000  Uiso   1.00
O385   O     0.63436   0.40155   0.02303   0.00000  Uiso   1.00
O386   O     0.64871   0.45879   0.48944   0.00000  Uiso   1.00
O387   O     0.60471   0.41593   0.42098   0.00000  Uiso   1.00
O388   O     0.57856   0.37246   0.46928   0.00000  Uiso   1.00
O389   O     0.51182   0.41434   0.27820   0.00000  Uiso   1.00
O390   O     0.47914   0.59469   0.26767   0.00000  Uiso   1.00
O391   O     0.40785   0.46584   0.23607   0.00000  Uiso   1.00
O392   O     0.60119   0.52512   0.21805   0.00000  Uiso   1.00
O393   O     0.40323   0.52293   0.27820   0.00000  Uiso   1.00
O394   O     0.58773   0.48610   0.26767   0.00000  Uiso   1.00
O395   O     0.47133   0.40236   0.23607   0.00000  Uiso   1.00
O396   O     0.53771   0.58860   0.21805   0.00000  Uiso   1.00
Zn397  Zn    0.52577   0.47423   0.28277   0.00000  Uiso   1.00
Zn398  Zn    0.46792   0.45711   0.22257   0.00000  Uiso   1.00
Zn399  Zn    0.54500   0.52997   0.21188   0.00000  Uiso   1.00
Zn400  Zn    0.46131   0.53868   0.28277   0.00000  Uiso   1.00
C401   C     0.71916   0.49323   0.25874   0.00000  Uiso   1.00
C402   C     0.86543   0.46197   0.45823   0.00000  Uiso   1.00
C403   C     0.88843   0.44357   0.47761   0.00000  Uiso   1.00
C404   C     0.94775   0.50689   0.24118   0.00000  Uiso   1.00
C405   C     0.88198   0.45358   0.01885   0.00000  Uiso   1.00
C406   C     0.84541   0.47470   0.04068   0.00000  Uiso   1.00
C407   C     0.91102   0.44385   0.03881   0.00000  Uiso   1.00
C408   C     0.89993   0.44936   0.08035   0.00000  Uiso   1.00
C409   C     0.83923   0.48591   0.08168   0.00000  Uiso   1.00
C410   C     0.99375   0.50950   0.23755   0.00000  Uiso   1.00
C411   C     0.67377   0.49082   0.26215   0.00000  Uiso   1.00
C412   C     0.75811   0.53776   0.42061   0.00000  Uiso   1.00
C413   C     0.84753   0.65548   0.23792   0.00000  Uiso   1.00
C414   C     0.81832   0.34539   0.26209   0.00000  Uiso   1.00
C415   C     0.82265   0.38942   0.25886   0.00000  Uiso   1.00
C416   C     0.84353   0.61101   0.24129   0.00000  Uiso   1.00
C417   C     0.85482   0.47870   0.14404   0.00000  Uiso   1.00
C418   C     0.81184   0.52074   0.35622   0.00000  Uiso   1.00
C419   C     0.79793   0.52398   0.39950   0.00000  Uiso   1.00
C420   C     0.86393   0.46992   0.10132   0.00000  Uiso   1.00
C421   C     0.74195   0.53495   0.46141   0.00000  Uiso   1.00
C422   C     0.95505   0.43291   0.01697   0.00000  Uiso   1.00
C423   C     0.82274   0.50872   0.41920   0.00000  Uiso   1.00
C424   C     0.83248   0.55980   0.09736   0.00000  Uiso   1.00
C425   C     0.91381   0.39714   0.11576   0.00000  Uiso   1.00
C426   C     0.91490   0.41052   0.45410   0.00000  Uiso   1.00
C427   C     0.67077   0.55655   0.46339   0.00000  Uiso   1.00
C428   C     0.80704   0.50343   0.45946   0.00000  Uiso   1.00
C429   C     0.76640   0.51713   0.48075   0.00000  Uiso   1.00
C430   C     0.83088   0.48482   0.47903   0.00000  Uiso   1.00
C431   C     0.81725   0.48574   0.02047   0.00000  Uiso   1.00
C432   C     0.77488   0.49533   0.04003   0.00000  Uiso   1.00
C433   C     0.75011   0.51091   0.02068   0.00000  Uiso   1.00
H434   H     0.71791   0.51777   0.03739   0.00000  Uiso   1.00
H435   H     0.67790   0.44833   0.47650   0.00000  Uiso   1.00
H436   H     0.79539   0.51308   0.13100   0.00000  Uiso   1.00
H437   H     0.80847   0.58201   0.11218   0.00000  Uiso   1.00
H438   H     0.84428   0.56470   0.06564   0.00000  Uiso   1.00
H439   H     0.86000   0.56644   0.11068   0.00000  Uiso   1.00
H440   H     0.95971   0.44404   0.08926   0.00000  Uiso   1.00
H441   H     0.91673   0.37231   0.09066   0.00000  Uiso   1.00
H442   H     0.87985   0.39493   0.13456   0.00000  Uiso   1.00
H443   H     0.93491   0.39199   0.13375   0.00000  Uiso   1.00
H444   H     0.93113   0.35230   0.45045   0.00000  Uiso   1.00
H445   H     0.68351   0.52667   0.21478   0.00000  Uiso   1.00
H446   H     0.70311   0.57092   0.00741   0.00000  Uiso   1.00
H447   H     0.97264   0.56135   0.48536   0.00000  Uiso   1.00
H448   H     0.99868   0.52886   0.44257   0.00000  Uiso   1.00
H449   H     0.68247   0.58494   0.44755   0.00000  Uiso   1.00
H450   H     0.98467   0.47365   0.28523   0.00000  Uiso   1.00
H451   H     0.87448   0.33609   0.21563   0.00000  Uiso   1.00
H452   H     0.79104   0.66555   0.28450   0.00000  Uiso   1.00
H453   H     0.73960   0.55000   0.40486   0.00000  Uiso   1.00
H454   H     0.85455   0.50125   0.40234   0.00000  Uiso   1.00
H455   H     0.75934   0.48913   0.07014   0.00000  Uiso   1.00
H456   H     0.87197   0.45405   0.42682   0.00000  Uiso   1.00
N457   N     0.81226   0.51741   0.10227   0.00000  Uiso   1.00
N458   N     0.92685   0.43794   0.10155   0.00000  Uiso   1.00
N459   N     0.70152   0.54956   0.48346   0.00000  Uiso   1.00
O460   O     0.83333   0.50000   0.25000   0.00000  Uiso   1.00
O461   O     0.82360   0.45726   0.16625   0.00000  Uiso   1.00
O462   O     0.79354   0.53979   0.33749   0.00000  Uiso   1.00
O463   O     0.87755   0.50826   0.15877   0.00000  Uiso   1.00
O464   O     0.83865   0.49468   0.33749   0.00000  Uiso   1.00
O465   O     0.96770   0.40155   0.02303   0.00000  Uiso   1.00
O466   O     0.98204   0.45879   0.48944   0.00000  Uiso   1.00
O467   O     0.93804   0.41593   0.42098   0.00000  Uiso   1.00
O468   O     0.91189   0.37246   0.46928   0.00000  Uiso   1.00
O469   O     0.84515   0.41434   0.27820   0.00000  Uiso   1.00
O470   O     0.81247   0.59469   0.26767   0.00000  Uiso   1.00
O471   O     0.74119   0.46584   0.23607   0.00000  Uiso   1.00
O472   O     0.93452   0.52512   0.21805   0.00000  Uiso   1.00
O473   O     0.73656   0.52293   0.27820   0.00000  Uiso   1.00
O474   O     0.92106   0.48610   0.26767   0.00000  Uiso   1.00
O475   O     0.80467   0.40236   0.23607   0.00000  Uiso   1.00
O476   O     0.87104   0.58860   0.21805   0.00000  Uiso   1.00
Zn477  Zn    0.85910   0.47423   0.28277   0.00000  Uiso   1.00
Zn478  Zn    0.80125   0.45711   0.22257   0.00000  Uiso   1.00
Zn479  Zn    0.87833   0.52997   0.21188   0.00000  Uiso   1.00
Zn480  Zn    0.79465   0.53868   0.28277   0.00000  Uiso   1.00
C481   C     0.05249   0.82656   0.25874   0.00000  Uiso   1.00
C482   C     0.19877   0.79531   0.45823   0.00000  Uiso   1.00
C483   C     0.22176   0.77691   0.47761   0.00000  Uiso   1.00
C484   C     0.28108   0.84022   0.24118   0.00000  Uiso   1.00
C485   C     0.21531   0.78692   0.01885   0.00000  Uiso   1.00
C486   C     0.17874   0.80804   0.04068   0.00000  Uiso   1.00
C487   C     0.24436   0.77719   0.03881   0.00000  Uiso   1.00
C488   C     0.23326   0.78270   0.08035   0.00000  Uiso   1.00
C489   C     0.17256   0.81925   0.08168   0.00000  Uiso   1.00
C490   C     0.32708   0.84284   0.23755   0.00000  Uiso   1.00
C491   C     0.00710   0.82415   0.26215   0.00000  Uiso   1.00
C492   C     0.09145   0.87109   0.42061   0.00000  Uiso   1.00
C493   C     0.18086   0.98882   0.23792   0.00000  Uiso   1.00
C494   C     0.15165   0.67872   0.26209   0.00000  Uiso   1.00
C495   C     0.15598   0.72276   0.25886   0.00000  Uiso   1.00
C496   C     0.17687   0.94434   0.24129   0.00000  Uiso   1.00
C497   C     0.18815   0.81203   0.14404   0.00000  Uiso   1.00
C498   C     0.14518   0.85407   0.35622   0.00000  Uiso   1.00
C499   C     0.13127   0.85731   0.39950   0.00000  Uiso   1.00
C500   C     0.19727   0.80325   0.10132   0.00000  Uiso   1.00
C501   C     0.07528   0.86828   0.46141   0.00000  Uiso   1.00
C502   C     0.28839   0.76624   0.01697   0.00000  Uiso   1.00
C503   C     0.15607   0.84205   0.41920   0.00000  Uiso   1.00
C504   C     0.16581   0.89313   0.09736   0.00000  Uiso   1.00
C505   C     0.24714   0.73048   0.11576   0.00000  Uiso   1.00
C506   C     0.24823   0.74385   0.45410   0.00000  Uiso   1.00
C507   C     0.00410   0.88988   0.46339   0.00000  Uiso   1.00
C508   C     0.14037   0.83677   0.45946   0.00000  Uiso   1.00
C509   C     0.09973   0.85046   0.48075   0.00000  Uiso   1.00
C510   C     0.16421   0.81816   0.47903   0.00000  Uiso   1.00
C511   C     0.15059   0.81907   0.02047   0.00000  Uiso   1.00
C512   C     0.10821   0.82866   0.04003   0.00000  Uiso   1.00
C513   C     0.08344   0.84424   0.02068   0.00000  Uiso   1.00
H514   H     0.05124   0.85110   0.03739   0.00000  Uiso   1.00
H515   H     0.01123   0.78167   0.47650   0.00000  Uiso   1.00
H516   H     0.12873   0.84641   0.13100   0.00000  Uiso   1.00
H517   H     0.14180   0.91535   0.11218   0.00000  Uiso   1.00
H518   H     0.17761   0.89804   0.06564   0.00000  Uiso   1.00
H519   H     0.19334   0.89978   0.11068   0.00000  Uiso   1.00
H520   H     0.29304   0.77737   0.08926   0.00000  Uiso   1.00
H521   H     0.25006   0.70565   0.09066   0.00000  Uiso   1.00
H522   H     0.21319   0.72827   0.13456   0.00000  Uiso   1.00
H523   H     0.26824   0.72532   0.13375   0.00000  Uiso   1.00
H524   H     0.26447   0.68564   0.45045   0.00000  Uiso   1.00
H525   H     0.01684   0.86001   0.21478   0.00000  Uiso   1.00
H526   H     0.03645   0.90425   0.00741   0.00000  Uiso   1.00
H527   H     0.30597   0.89468   0.48536   0.00000  Uiso   1.00
H528   H     0.33202   0.86220   0.44257   0.00000  Uiso   1.00
H529   H     0.01580   0.91828   0.44755   0.00000  Uiso   1.00
H530   H     0.31801   0.80698   0.28523   0.00000  Uiso   1.00
H531   H     0.20782   0.66943   0.21563   0.00000  Uiso   1.00
H532   H     0.12437   0.99888   0.28450   0.00000  Uiso   1.00
H533   H     0.07293   0.88333   0.40486   0.00000  Uiso   1.00
H534   H     0.18789   0.83458   0.40234   0.00000  Uiso   1.00
H535   H     0.09267   0.82246   0.07014   0.00000  Uiso   1.00
H536   H     0.20530   0.78738   0.42682   0.00000  Uiso   1.00
N537   N     0.14559   0.85075   0.10227   0.00000  Uiso   1.00
N538   N     0.26019   0.77128   0.10155   0.00000  Uiso   1.00
N539   N     0.03486   0.88289   0.48346   0.00000  Uiso   1.00
O540   O     0.16667   0.83333   0.25000   0.00000  Uiso   1.00
O541   O     0.15693   0.79060   0.16625   0.00000  Uiso   1.00
O542   O     0.12687   0.87313   0.33749   0.00000  Uiso   1.00
O543   O     0.21088   0.84159   0.15877   0.00000  Uiso   1.00
O544   O     0.17198   0.82802   0.33749   0.00000  Uiso   1.00
O545   O     0.30103   0.73488   0.02303   0.00000  Uiso   1.00
O546   O     0.31538   0.79213   0.48944   0.00000  Uiso   1.00
O547   O     0.27138   0.74926   0.42098   0.00000  Uiso   1.00
O548   O     0.24522   0.70580   0.46928   0.00000  Uiso   1.00
O549   O     0.17849   0.74768   0.27820   0.00000  Uiso   1.00
O550   O     0.14581   0.92803   0.26767   0.00000  Uiso   1.00
O551   O     0.07452   0.79917   0.23607   0.00000  Uiso   1.00
O552   O     0.26785   0.85845   0.21805   0.00000  Uiso   1.00
O553   O     0.06990   0.85627   0.27820   0.00000  Uiso   1.00
O554   O     0.25440   0.81944   0.26767   0.00000  Uiso   1.00
O555   O     0.13800   0.73570   0.23607   0.00000  Uiso   1.00
O556   O     0.20437   0.92193   0.21805   0.00000  Uiso   1.00
Zn557  Zn    0.19244   0.80756   0.28277   0.00000  Uiso   1.00
Zn558  Zn    0.13459   0.79044   0.22257   0.00000  Uiso   1.00
Zn559  Zn    0.21166   0.86331   0.21188   0.00000  Uiso   1.00
Zn560  Zn    0.12798   0.87202   0.28277   0.00000  Uiso   1.00
C561   C     0.38583   0.82656   0.25874   0.00000  Uiso   1.00
C562   C     0.53210   0.79531   0.45823   0.00000  Uiso   1.00
C563   C     0.55509   0.77691   0.47761   0.00000  Uiso   1.00
C564   C     0.61441   0.84022   0.24118   0.00000  Uiso   1.00
C565   C     0.54864   0.78692   0.01885   0.00000  Uiso   1.00
C566   C     0.51208   0.80804   0.04068   0.00000  Uiso   1.00
C567   C     0.57769   0.77719   0.03881   0.00000  Uiso   1.00
C568   C     0.56660   0.78270   0.08035   0.00000  Uiso   1.00
C569   C     0.50589   0.81925   0.08168   0.00000  Uiso   1.00
C570   C     0.66042   0.84284   0.23755   0.00000  Uiso   1.00
C571   C     0.34044   0.82415   0.26215   0.00000  Uiso   1.00
C572   C     0.42478   0.87109   0.42061   0.00000  Uiso   1.00
C573   C     0.51420   0.98882   0.23792   0.00000  Uiso   1.00
C574   C     0.48499   0.67872   0.26209   0.00000  Uiso   1.00
C575   C     0.48932   0.72276   0.25886   0.00000  Uiso   1.00
C576   C     0.51020   0.94434   0.24129   0.00000  Uiso   1.00
C577   C     0.52149   0.81203   0.14404   0.00000  Uiso   1.00
C578   C     0.47851   0.85407   0.35622   0.00000  Uiso   1.00
C579   C     0.46460   0.85731   0.39950   0.00000  Uiso   1.00
C580   C     0.53060   0.80325   0.10132   0.00000  Uiso   1.00
C581   C     0.40861   0.86828   0.46141   0.00000  Uiso   1.00
C582   C     0.62172   0.76624   0.01697   0.00000  Uiso   1.00
C583   C     0.48940   0.84205   0.41920   0.00000  Uiso   1.00
C584   C     0.49914   0.89313   0.09736   0.00000  Uiso   1.00
C585   C     0.58048   0.73048   0.11576   0.00000  Uiso   1.00
C586   C     0.58156   0.74385   0.45410   0.00000  Uiso   1.00
C587   C     0.33744   0.88988   0.46339   0.00000  Uiso   1.00
C588   C     0.47370   0.83677   0.45946   0.00000  Uiso   1.00
C589   C     0.43306   0.85046   0.48075   0.00000  Uiso   1.00
C590   C     0.49754   0.81816   0.47903   0.00000  Uiso   1.00
C591   C     0.48392   0.81907   0.02047   0.00000  Uiso   1.00
C592   C     0.44154   0.82866   0.04003   0.00000  Uiso   1.00
C593   C     0.41678   0.84424   0.02068   0.00000  Uiso   1.00
H594   H     0.38458   0.85110   0.03739   0.00000  Uiso   1.00
H595   H     0.34456   0.78167   0.47650   0.00000  Uiso   1.00
H596   H     0.46206   0.84641   0.13100   0.00000  Uiso   1.00
H597   H     0.47514   0.91535   0.11218   0.00000  Uiso   1.00
H598   H     0.51094   0.89804   0.06564   0.00000  Uiso   1.00
H599   H     0.52667   0.89978   0.11068   0.00000  Uiso   1.00
H600   H     0.62638   0.77737   0.08926   0.00000  Uiso   1.00
H601   H     0.58340   0.70565   0.09066   0.00000  Uiso   1.00
H602   H     0.54652   0.72827   0.13456   0.00000  Uiso   1.00
H603   H     0.60158   0.72532   0.13375   0.00000  Uiso   1.00
H604   H     0.59780   0.68564   0.45045   0.00000  Uiso   1.00
H605   H     0.35018   0.86001   0.21478   0.00000  Uiso   1.00
H606   H     0.36978   0.90425   0.00741   0.00000  Uiso   1.00
H607   H     0.63931   0.89468   0.48536   0.00000  Uiso   1.00
H608   H     0.66535   0.86220   0.44257   0.00000  Uiso   1.00
H609   H     0.34913   0.91828   0.44755   0.00000  Uiso   1.00
H610   H     0.65134   0.80698   0.28523   0.00000  Uiso   1.00
H611   H     0.54115   0.66943   0.21563   0.00000  Uiso   1.00
H612   H     0.45771   0.99888   0.28450   0.00000  Uiso   1.00
H613   H     0.40627   0.88333   0.40486   0.00000  Uiso   1.00
H614   H     0.52122   0.83458   0.40234   0.00000  Uiso   1.00
H615   H     0.42601   0.82246   0.07014   0.00000  Uiso   1.00
H616   H     0.53863   0.78738   0.42682   0.00000  Uiso   1.00
N617   N     0.47892   0.85075   0.10227   0.00000  Uiso   1.00
N618   N     0.59352   0.77128   0.10155   0.00000  Uiso   1.00
N619   N     0.36819   0.88289   0.48346   0.00000  Uiso   1.00
O620   O     0.50000   0.83333   0.25000   0.00000  Uiso   1.00
O621   O     0.49027   0.79060   0.16625   0.00000  Uiso   1.00
O622   O     0.46020   0.87313   0.33749   0.00000  Uiso   1.00
O623   O     0.54421   0.84159   0.15877   0.00000  Uiso   1.00
O624   O     0.50532   0.82802   0.33749   0.00000  Uiso   1.00
O625   O     0.63436   0.73488   0.02303   0.00000  Uiso   1.00
O626   O     0.64871   0.79213   0.48944   0.00000  Uiso   1.00
O627   O     0.60471   0.74926   0.42098   0.00000  Uiso   1.00
O628   O     0.57856   0.70580   0.46928   0.00000  Uiso   1.00
O629   O     0.51182   0.74768   0.27820   0.00000  Uiso   1.00
O630   O     0.47914   0.92803   0.26767   0.00000  Uiso   1.00
O631   O     0.40785   0.79917   0.23607   0.00000  Uiso   1.00
O632   O     0.60119   0.85845   0.21805   0.00000  Uiso   1.00
O633   O     0.40323   0.85627   0.27820   0.00000  Uiso   1.00
O634   O     0.58773   0.81944   0.26767   0.00000  Uiso   1.00
O635   O     0.47133   0.73570   0.23607   0.00000  Uiso   1.00
O636   O     0.53771   0.92193   0.21805   0.00000  Uiso   1.00
Zn637  Zn    0.52577   0.80756   0.28277   0.00000  Uiso   1.00
Zn638  Zn    0.46792   0.79044   0.22257   0.00000  Uiso   1.00
Zn639  Zn    0.54500   0.86331   0.21188   0.00000  Uiso   1.00
Zn640  Zn    0.46131   0.87202   0.28277   0.00000  Uiso   1.00
C641   C     0.71916   0.82656   0.25874   0.00000  Uiso   1.00
C642   C     0.86543   0.79531   0.45823   0.00000  Uiso   1.00
C643   C     0.88843   0.77691   0.47761   0.00000  Uiso   1.00
C644   C     0.94775   0.84022   0.24118   0.00000  Uiso   1.00
C645   C     0.88198   0.78692   0.01885   0.00000  Uiso   1.00
C646   C     0.84541   0.80804   0.04068   0.00000  Uiso   1.00
C647   C     0.91102   0.77719   0.03881   0.00000  Uiso   1.00
C648   C     0.89993   0.78270   0.08035   0.00000  Uiso   1.00
C649   C     0.83923   0.81925   0.08168   0.00000  Uiso   1.00
C650   C     0.99375   0.84284   0.23755   0.00000  Uiso   1.00
C651   C     0.67377   0.82415   0.26215   0.00000  Uiso   1.00
C652   C     0.75811   0.87109   0.42061   0.00000  Uiso   1.00
C653   C     0.84753   0.98882   0.23792   0.00000  Uiso   1.00
C654   C     0.81832   0.67872   0.26209   0.00000  Uiso   1.00
C655   C     0.82265   0.72276   0.25886   0.00000  Uiso   1.00
C656   C     0.84353   0.94434   0.24129   0.00000  Uiso   1.00
C657   C     0.85482   0.81203   0.14404   0.00000  Uiso   1.00
C658   C     0.81184   0.85407   0.35622   0.00000  Uiso   1.00
C659   C     0.79793   0.85731   0.39950   0.00000  Uiso   1.00
C660   C     0.86393   0.80325   0.10132   0.00000  Uiso   1.00
C661   C     0.74195   0.86828   0.46141   0.00000  Uiso   1.00
C662   C     0.95505   0.76624   0.01697   0.00000  Uiso   1.00
C663   C     0.82274   0.84205   0.41920   0.00000  Uiso   1.00
C664   C     0.83248   0.89313   0.09736   0.00000  Uiso   1.00
C665   C     0.91381   0.73048   0.11576   0.00000  Uiso   1.00
C666   C     0.91490   0.74385   0.45410   0.00000  Uiso   1.00
C667   C     0.67077   0.88988   0.46339   0.00000  Uiso   1.00
C668   C     0.80704   0.83677   0.45946   0.00000  Uiso   1.00
C669   C     0.76640   0.85046   0.48075   0.00000  Uiso   1.00
C670   C     0.83088   0.81816   0.47903   0.00000  Uiso   1.00
C671   C     0.81725   0.81907   0.02047   0.00000  Uiso   1.00
C672   C     0.77488   0.82866   0.04003   0.00000  Uiso   1.00
C673   C     0.75011   0.84424   0.02068   0.00000  Uiso   1.00
H674   H     0.71791   0.85110   0.03739   0.00000  Uiso   1.00
H675   H     0.67790   0.78167   0.47650   0.00000  Uiso   1.00
H676   H     0.79539   0.84641   0.13100   0.00000  Uiso   1.00
H677   H     0.80847   0.91535   0.11218   0.00000  Uiso   1.00
H678   H     0.84428   0.89804   0.06564   0.00000  Uiso   1.00
H679   H     0.86000   0.89978   0.11068   0.00000  Uiso   1.00
H680   H     0.95971   0.77737   0.08926   0.00000  Uiso   1.00
H681   H     0.91673   0.70565   0.09066   0.00000  Uiso   1.00
H682   H     0.87985   0.72827   0.13456   0.00000  Uiso   1.00
H683   H     0.93491   0.72532   0.13375   0.00000  Uiso   1.00
H684   H     0.93113   0.68564   0.45045   0.00000  Uiso   1.00
H685   H     0.68351   0.86001   0.21478   0.00000  Uiso   1.00
H686   H     0.70311   0.90425   0.00741   0.00000  Uiso   1.00
H687   H     0.97264   0.89468   0.48536   0.00000  Uiso   1.00
H688   H     0.99868   0.86220   0.44257   0.00000  Uiso   1.00
H689   H     0.68247   0.91828   0.44755   0.00000  Uiso   1.00
H690   H     0.98467   0.80698   0.28523   0.00000  Uiso   1.00
H691   H     0.87448   0.66943   0.21563   0.00000  Uiso   1.00
H692   H     0.79104   0.99888   0.28450   0.00000  Uiso   1.00
H693   H     0.73960   0.88333   0.40486   0.00000  Uiso   1.00
H694   H     0.85455   0.83458   0.40234   0.00000  Uiso   1.00
H695   H     0.75934   0.82246   0.07014   0.00000  Uiso   1.00
H696   H     0.87197   0.78738   0.42682   0.00000  Uiso   1.00
N697   N     0.81226   0.85075   0.10227   0.00000  Uiso   1.00
N698   N     0.92685   0.77128   0.10155   0.00000  Uiso   1.00
N699   N     0.70152   0.88289   0.48346   0.00000  Uiso   1.00
O700   O     0.83333   0.83333   0.25000   0.00000  Uiso   1.00
O701   O     0.82360   0.79060   0.16625   0.00000  Uiso   1.00
O702   O     0.79354   0.87313   0.33749   0.00000  Uiso   1.00
O703   O     0.87755   0.84159   0.15877   0.00000  Uiso   1.00
O704   O     0.83865   0.82802   0.33749   0.00000  Uiso   1.00
O705   O     0.96770   0.73488   0.02303   0.00000  Uiso   1.00
O706   O     0.98204   0.79213   0.48944   0.00000  Uiso   1.00
O707   O     0.93804   0.74926   0.42098   0.00000  Uiso   1.00
O708   O     0.91189   0.70580   0.46928   0.00000  Uiso   1.00
O709   O     0.84515   0.74768   0.27820   0.00000  Uiso   1.00
O710   O     0.81247   0.92803   0.26767   0.00000  Uiso   1.00
O711   O     0.74119   0.79917   0.23607   0.00000  Uiso   1.00
O712   O     0.93452   0.85845   0.21805   0.00000  Uiso   1.00
O713   O     0.73656   0.85627   0.27820   0.00000  Uiso   1.00
O714   O     0.92106   0.81944   0.26767   0.00000  Uiso   1.00
O715   O     0.80467   0.73570   0.23607   0.00000  Uiso   1.00
O716   O     0.87104   0.92193   0.21805   0.00000  Uiso   1.00
Zn717  Zn    0.85910   0.80756   0.28277   0.00000  Uiso   1.00
Zn718  Zn    0.80125   0.79044   0.22257   0.00000  Uiso   1.00
Zn719  Zn    0.87833   0.86331   0.21188   0.00000  Uiso   1.00
Zn720  Zn    0.79465   0.87202   0.28277   0.00000  Uiso   1.00
C721   C     0.05249   0.15990   0.75874   0.00000  Uiso   1.00
C722   C     0.19877   0.12864   0.95823   0.00000  Uiso   1.00
C723   C     0.22176   0.11024   0.97761   0.00000  Uiso   1.00
C724   C     0.28108   0.17356   0.74118   0.00000  Uiso   1.00
C725   C     0.21531   0.12025   0.51885   0.00000  Uiso   1.00
C726   C     0.17874   0.14137   0.54068   0.00000  Uiso   1.00
C727   C     0.24436   0.11052   0.53881   0.00000  Uiso   1.00
C728   C     0.23326   0.11603   0.58035   0.00000  Uiso   1.00
C729   C     0.17256   0.15258   0.58168   0.00000  Uiso   1.00
C730   C     0.32708   0.17617   0.73755   0.00000  Uiso   1.00
C731   C     0.00710   0.15749   0.76215   0.00000  Uiso   1.00
C732   C     0.09145   0.20442   0.92061   0.00000  Uiso   1.00
C733   C     0.18086   0.32215   0.73792   0.00000  Uiso   1.00
C734   C     0.15165   0.01206   0.76209   0.00000  Uiso   1.00
C735   C     0.15598   0.05609   0.75886   0.00000  Uiso   1.00
C736   C     0.17687   0.27767   0.74129   0.00000  Uiso   1.00
C737   C     0.18815   0.14537   0.64404   0.00000  Uiso   1.00
C738   C     0.14518   0.18741   0.85622   0.00000  Uiso   1.00
C739   C     0.13127   0.19064   0.89950   0.00000  Uiso   1.00
C740   C     0.19727   0.13659   0.60132   0.00000  Uiso   1.00
C741   C     0.07528   0.20162   0.96141   0.00000  Uiso   1.00
C742   C     0.28839   0.09957   0.51697   0.00000  Uiso   1.00
C743   C     0.15607   0.17539   0.91920   0.00000  Uiso   1.00
C744   C     0.16581   0.22647   0.59736   0.00000  Uiso   1.00
C745   C     0.24714   0.06381   0.61576   0.00000  Uiso   1.00
C746   C     0.24823   0.07718   0.95410   0.00000  Uiso   1.00
C747   C     0.00410   0.22321   0.96339   0.00000  Uiso   1.00
C748   C     0.14037   0.17010   0.95946   0.00000  Uiso   1.00
C749   C     0.09973   0.18379   0.98075   0.00000  Uiso   1.00
C750   C     0.16421   0.15149   0.97903   0.00000  Uiso   1.00
C751   C     0.15059   0.15240   0.52047   0.00000  Uiso   1.00
C752   C     0.10821   0.16199   0.54003   0.00000  Uiso   1.00
C753   C     0.08344   0.17757   0.52068   0.00000  Uiso   1.00
H754   H     0.05124   0.18443   0.53739   0.00000  Uiso   1.00
H755   H     0.01123   0.11500   0.97650   0.00000  Uiso   1.00
H756   H     0.12873   0.17974   0.63100   0.00000  Uiso   1.00
H757   H     0.14180   0.24868   0.61218   0.00000  Uiso   1.00
H758   H     0.17761   0.23137   0.56564   0.00000  Uiso   1.00
H759   H     0.19334   0.23311   0.61068   0.00000  Uiso   1.00
H760   H     0.29304   0.11071   0.58926   0.00000  Uiso   1.00
H761   H     0.25006   0.03898   0.59066   0.00000  Uiso   1.00
H762   H     0.21319   0.06160   0.63456   0.00000  Uiso   1.00
H763   H     0.26824   0.05865   0.63375   0.00000  Uiso   1.00
H764   H     0.26447   0.01897   0.95045   0.00000  Uiso   1.00
H765   H     0.01684   0.19334   0.71478   0.00000  Uiso   1.00
H766   H     0.03645   0.23759   0.50741   0.00000  Uiso   1.00
H767   H     0.30597   0.22801   0.98536   0.00000  Uiso   1.00
H768   H     0.33202   0.19553   0.94257   0.00000  Uiso   1.00
H769   H     0.01580   0.25161   0.94755   0.00000  Uiso   1.00
H770   H     0.31801   0.14031   0.78523   0.00000  Uiso   1.00
H771   H     0.20782   0.00276   0.71563   0.00000  Uiso   1.00
H772   H     0.12437   0.33222   0.78450   0.00000  Uiso   1.00
H773   H     0.07293   0.21667   0.90486   0.00000  Uiso   1.00
H774   H     0.18789   0.16792   0.90234   0.00000  Uiso   1.00
H775   H     0.09267   0.15579   0.57014   0.00000  Uiso   1.00
H776   H     0.20530   0.12072   0.92682   0.00000  Uiso   1.00
N777   N     0.14559   0.18408   0.60227   0.00000  Uiso   1.00
N778   N     0.26019   0.10461   0.60155   0.00000  Uiso   1.00
N779   N     0.03486   0.21623   0.98346   0.00000  Uiso   1.00
O780   O     0.16667   0.16667   0.75000   0.00000  Uiso   1.00
O781   O     0.15693   0.12393   0.66625   0.00000  Uiso   1.00
O782   O     0.12687   0.20646   0.83749   0.00000  Uiso   1.00
O783   O     0.21088   0.17493   0.65877   0.00000  Uiso   1.00
O784   O     0.17198   0.16135   0.83749   0.00000  Uiso   1.00
O785   O     0.30103   0.06821   0.52303   0.00000  Uiso   1.00
O786   O     0.31538   0.12546   0.98944   0.00000  Uiso   1.00
O787   O     0.27138   0.08260   0.92098   0.00000  Uiso   1.00
O788   O     0.24522   0.03913   0.96928   0.00000  Uiso   1.00
O789   O     0.17849   0.08101   0.77820   0.00000  Uiso   1.00
O790   O     0.14581   0.26136   0.76767   0.00000  Uiso   1.00
O791   O     0.07452   0.13251   0.73607   0.00000  Uiso   1.00
O792   O     0.26785   0.19179   0.71805   0.00000  Uiso   1.00
O793   O     0.06990   0.18960   0.77820   0.00000  Uiso   1.00
O794   O     0.25440   0.15277   0.76767   0.00000  Uiso   1.00
O795   O     0.13800   0.06903   0.73607   0.00000  Uiso   1.00
O796   O     0.20437   0.25527   0.71805   0.00000  Uiso   1.00
Zn797  Zn    0.19244   0.14090   0.78277   0.00000  Uiso   1.00
Zn798  Zn    0.13459   0.12378   0.72257   0.00000  Uiso   1.00
Zn799  Zn    0.21166   0.19664   0.71188   0.00000  Uiso   1.00
Zn800  Zn    0.12798   0.20535   0.78277   0.00000  Uiso   1.00
C801   C     0.38583   0.15990   0.75874   0.00000  Uiso   1.00
C802   C     0.53210   0.12864   0.95823   0.00000  Uiso   1.00
C803   C     0.55509   0.11024   0.97761   0.00000  Uiso   1.00
C804   C     0.61441   0.17356   0.74118   0.00000  Uiso   1.00
C805   C     0.54864   0.12025   0.51885   0.00000  Uiso   1.00
C806   C     0.51208   0.14137   0.54068   0.00000  Uiso   1.00
C807   C     0.57769   0.11052   0.53881   0.00000  Uiso   1.00
C808   C     0.56660   0.11603   0.58035   0.00000  Uiso   1.00
C809   C     0.50589   0.15258   0.58168   0.00000  Uiso   1.00
C810   C     0.66042   0.17617   0.73755   0.00000  Uiso   1.00
C811   C     0.34044   0.15749   0.76215   0.00000  Uiso   1.00
C812   C     0.42478   0.20442   0.92061   0.00000  Uiso   1.00
C813   C     0.51420   0.32215   0.73792   0.00000  Uiso   1.00
C814   C     0.48499   0.01206   0.76209   0.00000  Uiso   1.00
C815   C     0.48932   0.05609   0.75886   0.00000  Uiso   1.00
C816   C     0.51020   0.27767   0.74129   0.00000  Uiso   1.00
C817   C     0.52149   0.14537   0.64404   0.00000  Uiso   1.00
C818   C     0.47851   0.18741   0.85622   0.00000  Uiso   1.00
C819   C     0.46460   0.19064   0.89950   0.00000  Uiso   1.00
C820   C     0.53060   0.13659   0.60132   0.00000  Uiso   1.00
C821   C     0.40861   0.20162   0.96141   0.00000  Uiso   1.00
C822   C     0.62172   0.09957   0.51697   0.00000  Uiso   1.00
C823   C     0.48940   0.17539   0.91920   0.00000  Uiso   1.00
C824   C     0.49914   0.22647   0.59736   0.00000  Uiso   1.00
C825   C     0.58048   0.06381   0.61576   0.00000  Uiso   1.00
C826   C     0.58156   0.07718   0.95410   0.00000  Uiso   1.00
C827   C     0.33744   0.22321   0.96339   0.00000  Uiso   1.00
C828   C     0.47370   0.17010   0.95946   0.00000  Uiso   1.00
C829   C     0.43306   0.18379   0.98075   0.00000  Uiso   1.00
C830   C     0.49754   0.15149   0.97903   0.00000  Uiso   1.00
C831   C     0.48392   0.15240   0.52047   0.00000  Uiso   1.00
C832   C     0.44154   0.16199   0.54003   0.00000  Uiso   1.00
C833   C     0.41678   0.17757   0.52068   0.00000  Uiso   1.00
H834   H     0.38458   0.18443   0.53739   0.00000  Uiso   1.00
H835   H     0.34456   0.11500   0.97650   0.00000  Uiso   1.00
H836   H     0.46206   0.17974   0.63100   0.00000  Uiso   1.00
H837   H     0.47514   0.24868   0.61218   0.00000  Uiso   1.00
H838   H     0.51094   0.23137   0.56564   0.00000  Uiso   1.00
H839   H     0.52667   0.23311   0.61068   0.00000  Uiso   1.00
H840   H     0.62638   0.11071   0.58926   0.00000  Uiso   1.00
H841   H     0.58340   0.03898   0.59066   0.00000  Uiso   1.00
H842   H     0.54652   0.06160   0.63456   0.00000  Uiso   1.00
H843   H     0.60158   0.05865   0.63375   0.00000  Uiso   1.00
H844   H     0.59780   0.01897   0.95045   0.00000  Uiso   1.00
H845   H     0.35018   0.19334   0.71478   0.00000  Uiso   1.00
H846   H     0.36978   0.23759   0.50741   0.00000  Uiso   1.00
H847   H     0.63931   0.22801   0.98536   0.00000  Uiso   1.00
H848   H     0.66535   0.19553   0.94257   0.00000  Uiso   1.00
H849   H     0.34913   0.25161   0.94755   0.00000  Uiso   1.00
H850   H     0.65134   0.14031   0.78523   0.00000  Uiso   1.00
H851   H     0.54115   0.00276   0.71563   0.00000  Uiso   1.00
H852   H     0.45771   0.33222   0.78450   0.00000  Uiso   1.00
H853   H     0.40627   0.21667   0.90486   0.00000  Uiso   1.00
H854   H     0.52122   0.16792   0.90234   0.00000  Uiso   1.00
H855   H     0.42601   0.15579   0.57014   0.00000  Uiso   1.00
H856   H     0.53863   0.12072   0.92682   0.00000  Uiso   1.00
N857   N     0.47892   0.18408   0.60227   0.00000  Uiso   1.00
N858   N     0.59352   0.10461   0.60155   0.00000  Uiso   1.00
N859   N     0.36819   0.21623   0.98346   0.00000  Uiso   1.00
O860   O     0.50000   0.16667   0.75000   0.00000  Uiso   1.00
O861   O     0.49027   0.12393   0.66625   0.00000  Uiso   1.00
O862   O     0.46020   0.20646   0.83749   0.00000  Uiso   1.00
O863   O     0.54421   0.17493   0.65877   0.00000  Uiso   1.00
O864   O     0.50532   0.16135   0.83749   0.00000  Uiso   1.00
O865   O     0.63436   0.06821   0.52303   0.00000  Uiso   1.00
O866   O     0.64871   0.12546   0.98944   0.00000  Uiso   1.00
O867   O     0.60471   0.08260   0.92098   0.00000  Uiso   1.00
O868   O     0.57856   0.03913   0.96928   0.00000  Uiso   1.00
O869   O     0.51182   0.08101   0.77820   0.00000  Uiso   1.00
O870   O     0.47914   0.26136   0.76767   0.00000  Uiso   1.00
O871   O     0.40785   0.13251   0.73607   0.00000  Uiso   1.00
O872   O     0.60119   0.19179   0.71805   0.00000  Uiso   1.00
O873   O     0.40323   0.18960   0.77820   0.00000  Uiso   1.00
O874   O     0.58773   0.15277   0.76767   0.00000  Uiso   1.00
O875   O     0.47133   0.06903   0.73607   0.00000  Uiso   1.00
O876   O     0.53771   0.25527   0.71805   0.00000  Uiso   1.00
Zn877  Zn    0.52577   0.14090   0.78277   0.00000  Uiso   1.00
Zn878  Zn    0.46792   0.12378   0.72257   0.00000  Uiso   1.00
Zn879  Zn    0.54500   0.19664   0.71188   0.00000  Uiso   1.00
Zn880  Zn    0.46131   0.20535   0.78277   0.00000  Uiso   1.00
C881   C     0.71916   0.15990   0.75874   0.00000  Uiso   1.00
C882   C     0.86543   0.12864   0.95823   0.00000  Uiso   1.00
C883   C     0.88843   0.11024   0.97761   0.00000  Uiso   1.00
C884   C     0.94775   0.17356   0.74118   0.00000  Uiso   1.00
C885   C     0.88198   0.12025   0.51885   0.00000  Uiso   1.00
C886   C     0.84541   0.14137   0.54068   0.00000  Uiso   1.00
C887   C     0.91102   0.11052   0.53881   0.00000  Uiso   1.00
C888   C     0.89993   0.11603   0.58035   0.00000  Uiso   1.00
C889   C     0.83923   0.15258   0.58168   0.00000  Uiso   1.00
C890   C     0.99375   0.17617   0.73755   0.00000  Uiso   1.00
C891   C     0.67377   0.15749   0.76215   0.00000  Uiso   1.00
C892   C     0.75811   0.20442   0.92061   0.00000  Uiso   1.00
C893   C     0.84753   0.32215   0.73792   0.00000  Uiso   1.00
C894   C     0.81832   0.01206   0.76209   0.00000  Uiso   1.00
C895   C     0.82265   0.05609   0.75886   0.00000  Uiso   1.00
C896   C     0.84353   0.27767   0.74129   0.00000  Uiso   1.00
C897   C     0.85482   0.14537   0.64404   0.00000  Uiso   1.00
C898   C     0.81184   0.18741   0.85622   0.00000  Uiso   1.00
C899   C     0.79793   0.19064   0.89950   0.00000  Uiso   1.00
C900   C     0.86393   0.13659   0.60132   0.00000  Uiso   1.00
C901   C     0.74195   0.20162   0.96141   0.00000  Uiso   1.00
C902   C     0.95505   0.09957   0.51697   0.00000  Uiso   1.00
C903   C     0.82274   0.17539   0.91920   0.00000  Uiso   1.00
C904   C     0.83248   0.22647   0.59736   0.00000  Uiso   1.00
C905   C     0.91381   0.06381   0.61576   0.00000  Uiso   1.00
C906   C     0.91490   0.07718   0.95410   0.00000  Uiso   1.00
C907   C     0.67077   0.22321   0.96339   0.00000  Uiso   1.00
C908   C     0.80704   0.17010   0.95946   0.00000  Uiso   1.00
C909   C     0.76640   0.18379   0.98075   0.00000  Uiso   1.00
C910   C     0.83088   0.15149   0.97903   0.00000  Uiso   1.00
C911   C     0.81725   0.15240   0.52047   0.00000  Uiso   1.00
C912   C     0.77488   0.16199   0.54003   0.00000  Uiso   1.00
C913   C     0.75011   0.17757   0.52068   0.00000  Uiso   1.00
H914   H     0.71791   0.18443   0.53739   0.00000  Uiso   1.00
H915   H     0.67790   0.11500   0.97650   0.00000  Uiso   1.00
H916   H     0.79539   0.17974   0.63100   0.00000  Uiso   1.00
H917   H     0.80847   0.24868   0.61218   0.00000  Uiso   1.00
H918   H     0.84428   0.23137   0.56564   0.00000  Uiso   1.00
H919   H     0.86000   0.23311   0.61068   0.00000  Uiso   1.00
H920   H     0.95971   0.11071   0.58926   0.00000  Uiso   1.00
H921   H     0.91673   0.03898   0.59066   0.00000  Uiso   1.00
H922   H     0.87985   0.06160   0.63456   0.00000  Uiso   1.00
H923   H     0.93491   0.05865   0.63375   0.00000  Uiso   1.00
H924   H     0.93113   0.01897   0.95045   0.00000  Uiso   1.00
H925   H     0.68351   0.19334   0.71478   0.00000  Uiso   1.00
H926   H     0.70311   0.23759   0.50741   0.00000  Uiso   1.00
H927   H     0.97264   0.22801   0.98536   0.00000  Uiso   1.00
H928   H     0.99868   0.19553   0.94257   0.00000  Uiso   1.00
H929   H     0.68247   0.25161   0.94755   0.00000  Uiso   1.00
H930   H     0.98467   0.14031   0.78523   0.00000  Uiso   1.00
H931   H     0.87448   0.00276   0.71563   0.00000  Uiso   1.00
H932   H     0.79104   0.33222   0.78450   0.00000  Uiso   1.00
H933   H     0.73960   0.21667   0.90486   0.00000  Uiso   1.00
H934   H     0.85455   0.16792   0.90234   0.00000  Uiso   1.00
H935   H     0.75934   0.15579   0.57014   0.00000  Uiso   1.00
H936   H     0.87197   0.12072   0.92682   0.00000  Uiso   1.00
N937   N     0.81226   0.18408   0.60227   0.00000  Uiso   1.00
N938   N     0.92685   0.10461   0.60155   0.00000  Uiso   1.00
N939   N     0.70152   0.21623   0.98346   0.00000  Uiso   1.00
O940   O     0.83333   0.16667   0.75000   0.00000  Uiso   1.00
O941   O     0.82360   0.12393   0.66625   0.00000  Uiso   1.00
O942   O     0.79354   0.20646   0.83749   0.00000  Uiso   1.00
O943   O     0.87755   0.17493   0.65877   0.00000  Uiso   1.00
O944   O     0.83865   0.16135   0.83749   0.00000  Uiso   1.00
O945   O     0.96770   0.06821   0.52303   0.00000  Uiso   1.00
O946   O     0.98204   0.12546   0.98944   0.00000  Uiso   1.00
O947   O     0.93804   0.08260   0.92098   0.00000  Uiso   1.00
O948   O     0.91189   0.03913   0.96928   0.00000  Uiso   1.00
O949   O     0.84515   0.08101   0.77820   0.00000  Uiso   1.00
O950   O     0.81247   0.26136   0.76767   0.00000  Uiso   1.00
O951   O     0.74119   0.13251   0.73607   0.00000  Uiso   1.00
O952   O     0.93452   0.19179   0.71805   0.00000  Uiso   1.00
O953   O     0.73656   0.18960   0.77820   0.00000  Uiso   1.00
O954   O     0.92106   0.15277   0.76767   0.00000  Uiso   1.00
O955   O     0.80467   0.06903   0.73607   0.00000  Uiso   1.00
O956   O     0.87104   0.25527   0.71805   0.00000  Uiso   1.00
Zn957  Zn    0.85910   0.14090   0.78277   0.00000  Uiso   1.00
Zn958  Zn    0.80125   0.12378   0.72257   0.00000  Uiso   1.00
Zn959  Zn    0.87833   0.19664   0.71188   0.00000  Uiso   1.00
Zn960  Zn    0.79465   0.20535   0.78277   0.00000  Uiso   1.00
C961   C     0.05249   0.49323   0.75874   0.00000  Uiso   1.00
C962   C     0.19877   0.46197   0.95823   0.00000  Uiso   1.00
C963   C     0.22176   0.44357   0.97761   0.00000  Uiso   1.00
C964   C     0.28108   0.50689   0.74118   0.00000  Uiso   1.00
C965   C     0.21531   0.45358   0.51885   0.00000  Uiso   1.00
C966   C     0.17874   0.47470   0.54068   0.00000  Uiso   1.00
C967   C     0.24436   0.44385   0.53881   0.00000  Uiso   1.00
C968   C     0.23326   0.44936   0.58035   0.00000  Uiso   1.00
C969   C     0.17256   0.48591   0.58168   0.00000  Uiso   1.00
C970   C     0.32708   0.50950   0.73755   0.00000  Uiso   1.00
C971   C     0.00710   0.49082   0.76215   0.00000  Uiso   1.00
C972   C     0.09145   0.53776   0.92061   0.00000  Uiso   1.00
C973   C     0.18086   0.65548   0.73792   0.00000  Uiso   1.00
C974   C     0.15165   0.34539   0.76209   0.00000  Uiso   1.00
C975   C     0.15598   0.38942   0.75886   0.00000  Uiso   1.00
C976   C     0.17687   0.61101   0.74129   0.00000  Uiso   1.00
C977   C     0.18815   0.47870   0.64404   0.00000  Uiso   1.00
C978   C     0.14518   0.52074   0.85622   0.00000  Uiso   1.00
C979   C     0.13127   0.52398   0.89950   0.00000  Uiso   1.00
C980   C     0.19727   0.46992   0.60132   0.00000  Uiso   1.00
C981   C     0.07528   0.53495   0.96141   0.00000  Uiso   1.00
C982   C     0.28839   0.43291   0.51697   0.00000  Uiso   1.00
C983   C     0.15607   0.50872   0.91920   0.00000  Uiso   1.00
C984   C     0.16581   0.55980   0.59736   0.00000  Uiso   1.00
C985   C     0.24714   0.39714   0.61576   0.00000  Uiso   1.00
C986   C     0.24823   0.41052   0.95410   0.00000  Uiso   1.00
C987   C     0.00410   0.55655   0.96339   0.00000  Uiso   1.00
C988   C     0.14037   0.50343   0.95946   0.00000  Uiso   1.00
C989   C     0.09973   0.51713   0.98075   0.00000  Uiso   1.00
C990   C     0.16421   0.48482   0.97903   0.00000  Uiso   1.00
C991   C     0.15059   0.48574   0.52047   0.00000  Uiso   1.00
C992   C     0.10821   0.49533   0.54003   0.00000  Uiso   1.00
C993   C     0.08344   0.51091   0.52068   0.00000  Uiso   1.00
H994   H     0.05124   0.51777   0.53739   0.00000  Uiso   1.00
H995   H     0.01123   0.44833   0.97650   0.00000  Uiso   1.00
H996   H     0.12873   0.51308   0.63100   0.00000  Uiso   1.00
H997   H     0.14180   0.58201   0.61218   0.00000  Uiso   1.00
H998   H     0.17761   0.56470   0.56564   0.00000  Uiso   1.00
H999   H     0.19334   0.56644   0.61068   0.00000  Uiso   1.00
H1000  H     0.29304   0.44404   0.58926   0.00000  Uiso   1.00
H1001  H     0.25006   0.37231   0.59066   0.00000  Uiso   1.00
H1002  H     0.21319   0.39493   0.63456   0.00000  Uiso   1.00
H1003  H     0.26824   0.39199   0.63375   0.00000  Uiso   1.00
H1004  H     0.26447   0.35230   0.95045   0.00000  Uiso   1.00
H1005  H     0.01684   0.52667   0.71478   0.00000  Uiso   1.00
H1006  H     0.03645   0.57092   0.50741   0.00000  Uiso   1.00
H1007  H     0.30597   0.56135   0.98536   0.00000  Uiso   1.00
H1008  H     0.33202   0.52886   0.94257   0.00000  Uiso   1.00
H1009  H     0.01580   0.58494   0.94755   0.00000  Uiso   1.00
H1010  H     0.31801   0.47365   0.78523   0.00000  Uiso   1.00
H1011  H     0.20782   0.33609   0.71563   0.00000  Uiso   1.00
H1012  H     0.12437   0.66555   0.78450   0.00000  Uiso   1.00
H1013  H     0.07293   0.55000   0.90486   0.00000  Uiso   1.00
H1014  H     0.18789   0.50125   0.90234   0.00000  Uiso   1.00
H1015  H     0.09267   0.48913   0.57014   0.00000  Uiso   1.00
H1016  H     0.20530   0.45405   0.92682   0.00000  Uiso   1.00
N1017  N     0.14559   0.51741   0.60227   0.00000  Uiso   1.00
N1018  N     0.26019   0.43794   0.60155   0.00000  Uiso   1.00
N1019  N     0.03486   0.54956   0.98346   0.00000  Uiso   1.00
O1020  O     0.16667   0.50000   0.75000   0.00000  Uiso   1.00
O1021  O     0.15693   0.45726   0.66625   0.00000  Uiso   1.00
O1022  O     0.12687   0.53979   0.83749   0.00000  Uiso   1.00
O1023  O     0.21088   0.50826   0.65877   0.00000  Uiso   1.00
O1024  O     0.17198   0.49468   0.83749   0.00000  Uiso   1.00
O1025  O     0.30103   0.40155   0.52303   0.00000  Uiso   1.00
O1026  O     0.31538   0.45879   0.98944   0.00000  Uiso   1.00
O1027  O     0.27138   0.41593   0.92098   0.00000  Uiso   1.00
O1028  O     0.24522   0.37246   0.96928   0.00000  Uiso   1.00
O1029  O     0.17849   0.41434   0.77820   0.00000  Uiso   1.00
O1030  O     0.14581   0.59469   0.76767   0.00000  Uiso   1.00
O1031  O     0.07452   0.46584   0.73607   0.00000  Uiso   1.00
O1032  O     0.26785   0.52512   0.71805   0.00000  Uiso   1.00
O1033  O     0.06990   0.52293   0.77820   0.00000  Uiso   1.00
O1034  O     0.25440   0.48610   0.76767   0.00000  Uiso   1.00
O1035  O     0.13800   0.40236   0.73607   0.00000  Uiso   1.00
O1036  O     0.20437   0.58860   0.71805   0.00000  Uiso   1.00
Zn1037 Zn    0.19244   0.47423   0.78277   0.00000  Uiso   1.00
Zn1038 Zn    0.13459   0.45711   0.72257   0.00000  Uiso   1.00
Zn1039 Zn    0.21166   0.52997   0.71188   0.00000  Uiso   1.00
Zn1040 Zn    0.12798   0.53868   0.78277   0.00000  Uiso   1.00
C1041  C     0.38583   0.49323   0.75874   0.00000  Uiso   1.00
C1042  C     0.53210   0.46197   0.95823   0.00000  Uiso   1.00
C1043  C     0.55509   0.44357   0.97761   0.00000  Uiso   1.00
C1044  C     0.61441   0.50689   0.74118   0.00000  Uiso   1.00
C1045  C     0.54864   0.45358   0.51885   0.00000  Uiso   1.00
C1046  C     0.51208   0.47470   0.54068   0.00000  Uiso   1.00
C1047  C     0.57769   0.44385   0.53881   0.00000  Uiso   1.00
C1048  C     0.56660   0.44936   0.58035   0.00000  Uiso   1.00
C1049  C     0.50589   0.48591   0.58168   0.00000  Uiso   1.00
C1050  C     0.66042   0.50950   0.73755   0.00000  Uiso   1.00
C1051  C     0.34044   0.49082   0.76215   0.00000  Uiso   1.00
C1052  C     0.42478   0.53776   0.92061   0.00000  Uiso   1.00
C1053  C     0.51420   0.65548   0.73792   0.00000  Uiso   1.00
C1054  C     0.48499   0.34539   0.76209   0.00000  Uiso   1.00
C1055  C     0.48932   0.38942   0.75886   0.00000  Uiso   1.00
C1056  C     0.51020   0.61101   0.74129   0.00000  Uiso   1.00
C1057  C     0.52149   0.47870   0.64404   0.00000  Uiso   1.00
C1058  C     0.47851   0.52074   0.85622   0.00000  Uiso   1.00
C1059  C     0.46460   0.52398   0.89950   0.00000  Uiso   1.00
C1060  C     0.53060   0.46992   0.60132   0.00000  Uiso   1.00
C1061  C     0.40861   0.53495   0.96141   0.00000  Uiso   1.00
C1062  C     0.62172   0.43291   0.51697   0.00000  Uiso   1.00
C1063  C     0.48940   0.50872   0.91920   0.00000  Uiso   1.00
C1064  C     0.49914   0.55980   0.59736   0.00000  Uiso   1.00
C1065  C     0.58048   0.39714   0.61576   0.00000  Uiso   1.00
C1066  C     0.58156   0.41052   0.95410   0.00000  Uiso   1.00
C1067  C     0.33744   0.55655   0.96339   0.00000  Uiso   1.00
C1068  C     0.47370   0.50343   0.95946   0.00000  Uiso   1.00
C1069  C     0.43306   0.51713   0.98075   0.00000  Uiso   1.00
C1070  C     0.49754   0.48482   0.97903   0.00000  Uiso   1.00
C1071  C     0.48392   0.48574   0.52047   0.00000  Uiso   1.00
C1072  C     0.44154   0.49533   0.54003   0.00000  Uiso   1.00
C1073  C     0.41678   0.51091   0.52068   0.00000  Uiso   1.00
H1074  H     0.38458   0.51777   0.53739   0.00000  Uiso   1.00
H1075  H     0.34456   0.44833   0.97650   0.00000  Uiso   1.00
H1076  H     0.46206   0.51308   0.63100   0.00000  Uiso   1.00
H1077  H     0.47514   0.58201   0.61218   0.00000  Uiso   1.00
H1078  H     0.51094   0.56470   0.56564   0.00000  Uiso   1.00
H1079  H     0.52667   0.56644   0.61068   0.00000  Uiso   1.00
H1080  H     0.62638   0.44404   0.58926   0.00000  Uiso   1.00
H1081  H     0.58340   0.37231   0.59066   0.00000  Uiso   1.00
H1082  H     0.54652   0.39493   0.63456   0.00000  Uiso   1.00
H1083  H     0.60158   0.39199   0.63375   0.00000  Uiso   1.00
H1084  H     0.59780   0.35230   0.95045   0.00000  Uiso   1.00
H1085  H     0.35018   0.52667   0.71478   0.00000  Uiso   1.00
H1086  H     0.36978   0.57092   0.50741   0.00000  Uiso   1.00
H1087  H     0.63931   0.56135   0.98536   0.00000  Uiso   1.00
H1088  H     0.66535   0.52886   0.94257   0.00000  Uiso   1.00
H1089  H     0.34913   0.58494   0.94755   0.00000  Uiso   1.00
H1090  H     0.65134   0.47365   0.78523   0.00000  Uiso   1.00
H1091  H     0.54115   0.33609   0.71563   0.00000  Uiso   1.00
H1092  H     0.45771   0.66555   0.78450   0.00000  Uiso   1.00
H1093  H     0.40627   0.55000   0.90486   0.00000  Uiso   1.00
H1094  H     0.52122   0.50125   0.90234   0.00000  Uiso   1.00
H1095  H     0.42601   0.48913   0.57014   0.00000  Uiso   1.00
H1096  H     0.53863   0.45405   0.92682   0.00000  Uiso   1.00
N1097  N     0.47892   0.51741   0.60227   0.00000  Uiso   1.00
N1098  N     0.59352   0.43794   0.60155   0.00000  Uiso   1.00
N1099  N     0.36819   0.54956   0.98346   0.00000  Uiso   1.00
O1100  O     0.50000   0.50000   0.75000   0.00000  Uiso   1.00
O1101  O     0.49027   0.45726   0.66625   0.00000  Uiso   1.00
O1102  O     0.46020   0.53979   0.83749   0.00000  Uiso   1.00
O1103  O     0.54421   0.50826   0.65877   0.00000  Uiso   1.00
O1104  O     0.50532   0.49468   0.83749   0.00000  Uiso   1.00
O1105  O     0.63436   0.40155   0.52303   0.00000  Uiso   1.00
O1106  O     0.64871   0.45879   0.98944   0.00000  Uiso   1.00
O1107  O     0.60471   0.41593   0.92098   0.00000  Uiso   1.00
O1108  O     0.57856   0.37246   0.96928   0.00000  Uiso   1.00
O1109  O     0.51182   0.41434   0.77820   0.00000  Uiso   1.00
O1110  O     0.47914   0.59469   0.76767   0.00000  Uiso   1.00
O1111  O     0.40785   0.46584   0.73607   0.00000  Uiso   1.00
O1112  O     0.60119   0.52512   0.71805   0.00000  Uiso   1.00
O1113  O     0.40323   0.52293   0.77820   0.00000  Uiso   1.00
O1114  O     0.58773   0.48610   0.76767   0.00000  Uiso   1.00
O1115  O     0.47133   0.40236   0.73607   0.00000  Uiso   1.00
O1116  O     0.53771   0.58860   0.71805   0.00000  Uiso   1.00
Zn1117 Zn    0.52577   0.47423   0.78277   0.00000  Uiso   1.00
Zn1118 Zn    0.46792   0.45711   0.72257   0.00000  Uiso   1.00
Zn1119 Zn    0.54500   0.52997   0.71188   0.00000  Uiso   1.00
Zn1120 Zn    0.46131   0.53868   0.78277   0.00000  Uiso   1.00
C1121  C     0.71916   0.49323   0.75874   0.00000  Uiso   1.00
C1122  C     0.86543   0.46197   0.95823   0.00000  Uiso   1.00
C1123  C     0.88843   0.44357   0.97761   0.00000  Uiso   1.00
C1124  C     0.94775   0.50689   0.74118   0.00000  Uiso   1.00
C1125  C     0.88198   0.45358   0.51885   0.00000  Uiso   1.00
C1126  C     0.84541   0.47470   0.54068   0.00000  Uiso   1.00
C1127  C     0.91102   0.44385   0.53881   0.00000  Uiso   1.00
C1128  C     0.89993   0.44936   0.58035   0.00000  Uiso   1.00
C1129  C     0.83923   0.48591   0.58168   0.00000  Uiso   1.00
C1130  C     0.99375   0.50950   0.73755   0.00000  Uiso   1.00
C1131  C     0.67377   0.49082   0.76215   0.00000  Uiso   1.00
C1132  C     0.75811   0.53776   0.92061   0.00000  Uiso   1.00
C1133  C     0.84753   0.65548   0.73792   0.00000  Uiso   1.00
C1134  C     0.81832   0.34539   0.76209   0.00000  Uiso   1.00
C1135  C     0.82265   0.38942   0.75886   0.00000  Uiso   1.00
C1136  C     0.84353   0.61101   0.74129   0.00000  Uiso   1.00
C1137  C     0.85482   0.47870   0.64404   0.00000  Uiso   1.00
C1138  C     0.81184   0.52074   0.85622   0.00000  Uiso   1.00
C1139  C     0.79793   0.52398   0.89950   0.00000  Uiso   1.00
C1140  C     0.86393   0.46992   0.60132   0.00000  Uiso   1.00
C1141  C     0.74195   0.53495   0.96141   0.00000  Uiso   1.00
C1142  C     0.95505   0.43291   0.51697   0.00000  Uiso   1.00
C1143  C     0.82274   0.50872   0.91920   0.00000  Uiso   1.00
C1144  C     0.83248   0.55980   0.59736   0.00000  Uiso   1.00
C1145  C     0.91381   0.39714   0.61576   0.00000  Uiso   1.00
C1146  C     0.91490   0.41052   0.95410   0.00000  Uiso   1.00
C1147  C     0.67077   0.55655   0.96339   0.00000  Uiso   1.00
C1148  C     0.80704   0.50343   0.95946   0.00000  Uiso   1.00
C1149  C     0.76640   0.51713   0.98075   0.00000  Uiso   1.00
C1150  C     0.83088   0.48482   0.97903   0.00000  Uiso   1.00
C1151  C     0.81725   0.48574   0.52047   0.00000  Uiso   1.00
C1152  C     0.77488   0.49533   0.54003   0.00000  Uiso   1.00
C1153  C     0.75011   0.51091   0.52068   0.00000  Uiso   1.00
H1154  H     0.71791   0.51777   0.53739   0.00000  Uiso   1.00
H1155  H     0.67790   0.44833   0.97650   0.00000  Uiso   1.00
H1156  H     0.79539   0.51308   0.63100   0.00000  Uiso   1.00
H1157  H     0.80847   0.58201   0.61218   0.00000  Uiso   1.00
H1158  H     0.84428   0.56470   0.56564   0.00000  Uiso   1.00
H1159  H     0.86000   0.56644   0.61068   0.00000  Uiso   1.00
H1160  H     0.95971   0.44404   0.58926   0.00000  Uiso   1.00
H1161  H     0.91673   0.37231   0.59066   0.00000  Uiso   1.00
H1162  H     0.87985   0.39493   0.63456   0.00000  Uiso   1.00
H1163  H     0.93491   0.39199   0.63375   0.00000  Uiso   1.00
H1164  H     0.93113   0.35230   0.95045   0.00000  Uiso   1.00
H1165  H     0.68351   0.52667   0.71478   0.00000  Uiso   1.00
H1166  H     0.70311   0.57092   0.50741   0.00000  Uiso   1.00
H1167  H     0.97264   0.56135   0.98536   0.00000  Uiso   1.00
H1168  H     0.99868   0.52886   0.94257   0.00000  Uiso   1.00
H1169  H     0.68247   0.58494   0.94755   0.00000  Uiso   1.00
H1170  H     0.98467   0.47365   0.78523   0.00000  Uiso   1.00
H1171  H     0.87448   0.33609   0.71563   0.00000  Uiso   1.00
H1172  H     0.79104   0.66555   0.78450   0.00000  Uiso   1.00
H1173  H     0.73960   0.55000   0.90486   0.00000  Uiso   1.00
H1174  H     0.85455   0.50125   0.90234   0.00000  Uiso   1.00
H1175  H     0.75934   0.48913   0.57014   0.00000  Uiso   1.00
H1176  H     0.87197   0.45405   0.92682   0.00000  Uiso   1.00
N1177  N     0.81226   0.51741   0.60227   0.00000  Uiso   1.00
N1178  N     0.92685   0.43794   0.60155   0.00000  Uiso   1.00
N1179  N     0.70152   0.54956   0.98346   0.00000  Uiso   1.00
O1180  O     0.83333   0.50000   0.75000   0.00000  Uiso   1.00
O1181  O     0.82360   0.45726   0.66625   0.00000  Uiso   1.00
O1182  O     0.79354   0.53979   0.83749   0.00000  Uiso   1.00
O1183  O     0.87755   0.50826   0.65877   0.00000  Uiso   1.00
O1184  O     0.83865   0.49468   0.83749   0.00000  Uiso   1.00
O1185  O     0.96770   0.40155   0.52303   0.00000  Uiso   1.00
O1186  O     0.98204   0.45879   0.98944   0.00000  Uiso   1.00
O1187  O     0.93804   0.41593   0.92098   0.00000  Uiso   1.00
O1188  O     0.91189   0.37246   0.96928   0.00000  Uiso   1.00
O1189  O     0.84515   0.41434   0.77820   0.00000  Uiso   1.00
O1190  O     0.81247   0.59469   0.76767   0.00000  Uiso   1.00
O1191  O     0.74119   0.46584   0.73607   0.00000  Uiso   1.00
O1192  O     0.93452   0.52512   0.71805   0.00000  Uiso   1.00
O1193  O     0.73656   0.52293   0.77820   0.00000  Uiso   1.00
O1194  O     0.92106   0.48610   0.76767   0.00000  Uiso   1.00
O1195  O     0.80467   0.40236   0.73607   0.00000  Uiso   1.00
O1196  O     0.87104   0.58860   0.71805   0.00000  Uiso   1.00
Zn1197 Zn    0.85910   0.47423   0.78277   0.00000  Uiso   1.00
Zn1198 Zn    0.80125   0.45711   0.72257   0.00000  Uiso   1.00
Zn1199 Zn    0.87833   0.52997   0.71188   0.00000  Uiso   1.00
Zn1200 Zn    0.79465   0.53868   0.78277   0.00000  Uiso   1.00
C1201  C     0.05249   0.82656   0.75874   0.00000  Uiso   1.00
C1202  C     0.19877   0.79531   0.95823   0.00000  Uiso   1.00
C1203  C     0.22176   0.77691   0.97761   0.00000  Uiso   1.00
C1204  C     0.28108   0.84022   0.74118   0.00000  Uiso   1.00
C1205  C     0.21531   0.78692   0.51885   0.00000  Uiso   1.00
C1206  C     0.17874   0.80804   0.54068   0.00000  Uiso   1.00
C1207  C     0.24436   0.77719   0.53881   0.00000  Uiso   1.00
C1208  C     0.23326   0.78270   0.58035   0.00000  Uiso   1.00
C1209  C     0.17256   0.81925   0.58168   0.00000  Uiso   1.00
C1210  C     0.32708   0.84284   0.73755   0.00000  Uiso   1.00
C1211  C     0.00710   0.82415   0.76215   0.00000  Uiso   1.00
C1212  C     0.09145   0.87109   0.92061   0.00000  Uiso   1.00
C1213  C     0.18086   0.98882   0.73792   0.00000  Uiso   1.00
C1214  C     0.15165   0.67872   0.76209   0.00000  Uiso   1.00
C1215  C     0.15598   0.72276   0.75886   0.00000  Uiso   1.00
C1216  C     0.17687   0.94434   0.74129   0.00000  Uiso   1.00
C1217  C     0.18815   0.81203   0.64404   0.00000  Uiso   1.00
C1218  C     0.14518   0.85407   0.85622   0.00000  Uiso   1.00
C1219  C     0.13127   0.85731   0.89950   0.00000  Uiso   1.00
C1220  C     0.19727   0.80325   0.60132   0.00000  Uiso   1.00
C1221  C     0.07528   0.86828   0.96141   0.00000  Uiso   1.00
C1222  C     0.28839   0.76624   0.51697   0.00000  Uiso   1.00
C1223  C     0.15607   0.84205   0.91920   0.00000  Uiso   1.00
C1224  C     0.16581   0.89313   0.59736   0.00000  Uiso   1.00
C1225  C     0.24714   0.73048   0.61576   0.00000  Uiso   1.00
C1226  C     0.24823   0.74385   0.95410   0.00000  Uiso   1.00
C1227  C     0.00410   0.88988   0.96339   0.00000  Uiso   1.00
C1228  C     0.14037   0.83677   0.95946   0.00000  Uiso   1.00
C1229  C     0.09973   0.85046   0.98075   0.00000  Uiso   1.00
C1230  C     0.16421   0.81816   0.97903   0.00000  Uiso   1.00
C1231  C     0.15059   0.81907   0.52047   0.00000  Uiso   1.00
C1232  C     0.10821   0.82866   0.54003   0.00000  Uiso   1.00
C1233  C     0.08344   0.84424   0.52068   0.00000  Uiso   1.00
H1234  H     0.05124   0.85110   0.53739   0.00000  Uiso   1.00
H1235  H     0.01123   0.78167   0.97650   0.00000  Uiso   1.00
H1236  H     0.12873   0.84641   0.63100   0.00000  Uiso   1.00
H1237  H     0.14180   0.91535   0.61218   0.00000  Uiso   1.00
H1238  H     0.17761   0.89804   0.56564   0.00000  Uiso   1.00
H1239  H     0.19334   0.89978   0.61068   0.00000  Uiso   1.00
H1240  H     0.29304   0.77737   0.58926   0.00000  Uiso   1.00
H1241  H     0.25006   0.70565   0.59066   0.00000  Uiso   1.00
H1242  H     0.21319   0.72827   0.63456   0.00000  Uiso   1.00
H1243  H     0.26824   0.72532   0.63375   0.00000  Uiso   1.00
H1244  H     0.26447   0.68564   0.95045   0.00000  Uiso   1.00
H1245  H     0.01684   0.86001   0.71478   0.00000  Uiso   1.00
H1246  H     0.03645   0.90425   0.50741   0.00000  Uiso   1.00
H1247  H     0.30597   0.89468   0.98536   0.00000  Uiso   1.00
H1248  H     0.33202   0.86220   0.94257   0.00000  Uiso   1.00
H1249  H     0.01580   0.91828   0.94755   0.00000  Uiso   1.00
H1250  H     0.31801   0.80698   0.78523   0.00000  Uiso   1.00
H1251  H     0.20782   0.66943   0.71563   0.00000  Uiso   1.00
H1252  H     0.12437   0.99888   0.78450   0.00000  Uiso   1.00
H1253  H     0.07293   0.88333   0.90486   0.00000  Uiso   1.00
H1254  H     0.18789   0.83458   0.90234   0.00000  Uiso   1.00
H1255  H     0.09267   0.82246   0.57014   0.00000  Uiso   1.00
H1256  H     0.20530   0.78738   0.92682   0.00000  Uiso   1.00
N1257  N     0.14559   0.85075   0.60227   0.00000  Uiso   1.00
N1258  N     0.26019   0.77128   0.60155   0.00000  Uiso   1.00
N1259  N     0.03486   0.88289   0.98346   0.00000  Uiso   1.00
O1260  O     0.16667   0.83333   0.75000   0.00000  Uiso   1.00
O1261  O     0.15693   0.79060   0.66625   0.00000  Uiso   1.00
O1262  O     0.12687   0.87313   0.83749   0.00000  Uiso   1.00
O1263  O     0.21088   0.84159   0.65877   0.00000  Uiso   1.00
O1264  O     0.17198   0.82802   0.83749   0.00000  Uiso   1.00
O1265  O     0.30103   0.73488   0.52303   0.00000  Uiso   1.00
O1266  O     0.31538   0.79213   0.98944   0.00000  Uiso   1.00
O1267  O     0.27138   0.74926   0.92098   0.00000  Uiso   1.00
O1268  O     0.24522   0.70580   0.96928   0.00000  Uiso   1.00
O1269  O     0.17849   0.74768   0.77820   0.00000  Uiso   1.00
O1270  O     0.14581   0.92803   0.76767   0.00000  Uiso   1.00
O1271  O     0.07452   0.79917   0.73607   0.00000  Uiso   1.00
O1272  O     0.26785   0.85845   0.71805   0.00000  Uiso   1.00
O1273  O     0.06990   0.85627   0.77820   0.00000  Uiso   1.00
O1274  O     0.25440   0.81944   0.76767   0.00000  Uiso   1.00
O1275  O     0.13800   0.73570   0.73607   0.00000  Uiso   1.00
O1276  O     0.20437   0.92193   0.71805   0.00000  Uiso   1.00
Zn1277 Zn    0.19244   0.80756   0.78277   0.00000  Uiso   1.00
Zn1278 Zn    0.13459   0.79044   0.72257   0.00000  Uiso   1.00
Zn1279 Zn    0.21166   0.86331   0.71188   0.00000  Uiso   1.00
Zn1280 Zn    0.12798   0.87202   0.78277   0.00000  Uiso   1.00
C1281  C     0.38583   0.82656   0.75874   0.00000  Uiso   1.00
C1282  C     0.53210   0.79531   0.95823   0.00000  Uiso   1.00
C1283  C     0.55509   0.77691   0.97761   0.00000  Uiso   1.00
C1284  C     0.61441   0.84022   0.74118   0.00000  Uiso   1.00
C1285  C     0.54864   0.78692   0.51885   0.00000  Uiso   1.00
C1286  C     0.51208   0.80804   0.54068   0.00000  Uiso   1.00
C1287  C     0.57769   0.77719   0.53881   0.00000  Uiso   1.00
C1288  C     0.56660   0.78270   0.58035   0.00000  Uiso   1.00
C1289  C     0.50589   0.81925   0.58168   0.00000  Uiso   1.00
C1290  C     0.66042   0.84284   0.73755   0.00000  Uiso   1.00
C1291  C     0.34044   0.82415   0.76215   0.00000  Uiso   1.00
C1292  C     0.42478   0.87109   0.92061   0.00000  Uiso   1.00
C1293  C     0.51420   0.98882   0.73792   0.00000  Uiso   1.00
C1294  C     0.48499   0.67872   0.76209   0.00000  Uiso   1.00
C1295  C     0.48932   0.72276   0.75886   0.00000  Uiso   1.00
C1296  C     0.51020   0.94434   0.74129   0.00000  Uiso   1.00
C1297  C     0.52149   0.81203   0.64404   0.00000  Uiso   1.00
C1298  C     0.47851   0.85407   0.85622   0.00000  Uiso   1.00
C1299  C     0.46460   0.85731   0.89950   0.00000  Uiso   1.00
C1300  C     0.53060   0.80325   0.60132   0.00000  Uiso   1.00
C1301  C     0.40861   0.86828   0.96141   0.00000  Uiso   1.00
C1302  C     0.62172   0.76624   0.51697   0.00000  Uiso   1.00
C1303  C     0.48940   0.84205   0.91920   0.00000  Uiso   1.00
C1304  C     0.49914   0.89313   0.59736   0.00000  Uiso   1.00
C1305  C     0.58048   0.73048   0.61576   0.00000  Uiso   1.00
C1306  C     0.58156   0.74385   0.95410   0.00000  Uiso   1.00
C1307  C     0.33744   0.88988   0.96339   0.00000  Uiso   1.00
C1308  C     0.47370   0.83677   0.95946   0.00000  Uiso   1.00
C1309  C     0.43306   0.85046   0.98075   0.00000  Uiso   1.00
C1310  C     0.49754   0.81816   0.97903   0.00000  Uiso   1.00
C1311  C     0.48392   0.81907   0.52047   0.00000  Uiso   1.00
C1312  C     0.44154   0.82866   0.54003   0.00000  Uiso   1.00
C1313  C     0.41678   0.84424   0.52068   0.00000  Uiso   1.00
H1314  H     0.38458   0.85110   0.53739   0.00000  Uiso   1.00
H1315  H     0.34456   0.78167   0.97650   0.00000  Uiso   1.00
H1316  H     0.46206   0.84641   0.63100   0.00000  Uiso   1.00
H1317  H     0.47514   0.91535   0.61218   0.00000  Uiso   1.00
H1318  H     0.51094   0.89804   0.56564   0.00000  Uiso   1.00
H1319  H     0.52667   0.89978   0.61068   0.00000  Uiso   1.00
H1320  H     0.62638   0.77737   0.58926   0.00000  Uiso   1.00
H1321  H     0.58340   0.70565   0.59066   0.00000  Uiso   1.00
H1322  H     0.54652   0.72827   0.63456   0.00000  Uiso   1.00
H1323  H     0.60158   0.72532   0.63375   0.00000  Uiso   1.00
H1324  H     0.59780   0.68564   0.95045   0.00000  Uiso   1.00
H1325  H     0.35018   0.86001   0.71478   0.00000  Uiso   1.00
H1326  H     0.36978   0.90425   0.50741   0.00000  Uiso   1.00
H1327  H     0.63931   0.89468   0.98536   0.00000  Uiso   1.00
H1328  H     0.66535   0.86220   0.94257   0.00000  Uiso   1.00
H1329  H     0.34913   0.91828   0.94755   0.00000  Uiso   1.00
H1330  H     0.65134   0.80698   0.78523   0.00000  Uiso   1.00
H1331  H     0.54115   0.66943   0.71563   0.00000  Uiso   1.00
H1332  H     0.45771   0.99888   0.78450   0.00000  Uiso   1.00
H1333  H     0.40627   0.88333   0.90486   0.00000  Uiso   1.00
H1334  H     0.52122   0.83458   0.90234   0.00000  Uiso   1.00
H1335  H     0.42601   0.82246   0.57014   0.00000  Uiso   1.00
H1336  H     0.53863   0.78738   0.92682   0.00000  Uiso   1.00
N1337  N     0.47892   0.85075   0.60227   0.00000  Uiso   1.00
N1338  N     0.59352   0.77128   0.60155   0.00000  Uiso   1.00
N1339  N     0.36819   0.88289   0.98346   0.00000  Uiso   1.00
O1340  O     0.50000   0.83333   0.75000   0.00000  Uiso   1.00
O1341  O     0.49027   0.79060   0.66625   0.00000  Uiso   1.00
O1342  O     0.46020   0.87313   0.83749   0.00000  Uiso   1.00
O1343  O     0.54421   0.84159   0.65877   0.00000  Uiso   1.00
O1344  O     0.50532   0.82802   0.83749   0.00000  Uiso   1.00
O1345  O     0.63436   0.73488   0.52303   0.00000  Uiso   1.00
O1346  O     0.64871   0.79213   0.98944   0.00000  Uiso   1.00
O1347  O     0.60471   0.74926   0.92098   0.00000  Uiso   1.00
O1348  O     0.57856   0.70580   0.96928   0.00000  Uiso   1.00
O1349  O     0.51182   0.74768   0.77820   0.00000  Uiso   1.00
O1350  O     0.47914   0.92803   0.76767   0.00000  Uiso   1.00
O1351  O     0.40785   0.79917   0.73607   0.00000  Uiso   1.00
O1352  O     0.60119   0.85845   0.71805   0.00000  Uiso   1.00
O1353  O     0.40323   0.85627   0.77820   0.00000  Uiso   1.00
O1354  O     0.58773   0.81944   0.76767   0.00000  Uiso   1.00
O1355  O     0.47133   0.73570   0.73607   0.00000  Uiso   1.00
O1356  O     0.53771   0.92193   0.71805   0.00000  Uiso   1.00
Zn1357 Zn    0.52577   0.80756   0.78277   0.00000  Uiso   1.00
Zn1358 Zn    0.46792   0.79044   0.72257   0.00000  Uiso   1.00
Zn1359 Zn    0.54500   0.86331   0.71188   0.00000  Uiso   1.00
Zn1360 Zn    0.46131   0.87202   0.78277   0.00000  Uiso   1.00
C1361  C     0.71916   0.82656   0.75874   0.00000  Uiso   1.00
C1362  C     0.86543   0.79531   0.95823   0.00000  Uiso   1.00
C1363  C     0.88843   0.77691   0.97761   0.00000  Uiso   1.00
C1364  C     0.94775   0.84022   0.74118   0.00000  Uiso   1.00
C1365  C     0.88198   0.78692   0.51885   0.00000  Uiso   1.00
C1366  C     0.84541   0.80804   0.54068   0.00000  Uiso   1.00
C1367  C     0.91102   0.77719   0.53881   0.00000  Uiso   1.00
C1368  C     0.89993   0.78270   0.58035   0.00000  Uiso   1.00
C1369  C     0.83923   0.81925   0.58168   0.00000  Uiso   1.00
C1370  C     0.99375   0.84284   0.73755   0.00000  Uiso   1.00
C1371  C     0.67377   0.82415   0.76215   0.00000  Uiso   1.00
C1372  C     0.75811   0.87109   0.92061   0.00000  Uiso   1.00
C1373  C     0.84753   0.98882   0.73792   0.00000  Uiso   1.00
C1374  C     0.81832   0.67872   0.76209   0.00000  Uiso   1.00
C1375  C     0.82265   0.72276   0.75886   0.00000  Uiso   1.00
C1376  C     0.84353   0.94434   0.74129   0.00000  Uiso   1.00
C1377  C     0.85482   0.81203   0.64404   0.00000  Uiso   1.00
C1378  C     0.81184   0.85407   0.85622   0.00000  Uiso   1.00
C1379  C     0.79793   0.85731   0.89950   0.00000  Uiso   1.00
C1380  C     0.86393   0.80325   0.60132   0.00000  Uiso   1.00
C1381  C     0.74195   0.86828   0.96141   0.00000  Uiso   1.00
C1382  C     0.95505   0.76624   0.51697   0.00000  Uiso   1.00
C1383  C     0.82274   0.84205   0.91920   0.00000  Uiso   1.00
C1384  C     0.83248   0.89313   0.59736   0.00000  Uiso   1.00
C1385  C     0.91381   0.73048   0.61576   0.00000  Uiso   1.00
C1386  C     0.91490   0.74385   0.95410   0.00000  Uiso   1.00
C1387  C     0.67077   0.88988   0.96339   0.00000  Uiso   1.00
C1388  C     0.80704   0.83677   0.95946   0.00000  Uiso   1.00
C1389  C     0.76640   0.85046   0.98075   0.00000  Uiso   1.00
C1390  C     0.83088   0.81816   0.97903   0.00000  Uiso   1.00
C1391  C     0.81725   0.81907   0.52047   0.00000  Uiso   1.00
C1392  C     0.77488   0.82866   0.54003   0.00000  Uiso   1.00
C1393  C     0.75011   0.84424   0.52068   0.00000  Uiso   1.00
H1394  H     0.71791   0.85110   0.53739   0.00000  Uiso   1.00
H1395  H     0.67790   0.78167   0.97650   0.00000  Uiso   1.00
H1396  H     0.79539   0.84641   0.63100   0.00000  Uiso   1.00
H1397  H     0.80847   0.91535   0.61218   0.00000  Uiso   1.00
H1398  H     0.84428   0.89804   0.56564   0.00000  Uiso   1.00
H1399  H     0.86000   0.89978   0.61068   0.00000  Uiso   1.00
H1400  H     0.95971   0.77737   0.58926   0.00000  Uiso   1.00
H1401  H     0.91673   0.70565   0.59066   0.00000  Uiso   1.00
H1402  H     0.87985   0.72827   0.63456   0.00000  Uiso   1.00
H1403  H     0.93491   0.72532   0.63375   0.00000  Uiso   1.00
H1404  H     0.93113   0.68564   0.95045   0.00000  Uiso   1.00
H1405  H     0.68351   0.86001   0.71478   0.00000  Uiso   1.00
H1406  H     0.70311   0.90425   0.50741   0.00000  Uiso   1.00
H1407  H     0.97264   0.89468   0.98536   0.00000  Uiso   1.00
H1408  H     0.99868   0.86220   0.94257   0.00000  Uiso   1.00
H1409  H     0.68247   0.91828   0.94755   0.00000  Uiso   1.00
H1410  H     0.98467   0.80698   0.78523   0.00000  Uiso   1.00
H1411  H     0.87448   0.66943   0.71563   0.00000  Uiso   1.00
H1412  H     0.79104   0.99888   0.78450   0.00000  Uiso   1.00
H1413  H     0.73960   0.88333   0.90486   0.00000  Uiso   1.00
H1414  H     0.85455   0.83458   0.90234   0.00000  Uiso   1.00
H1415  H     0.75934   0.82246   0.57014   0.00000  Uiso   1.00
H1416  H     0.87197   0.78738   0.92682   0.00000  Uiso   1.00
N1417  N     0.81226   0.85075   0.60227   0.00000  Uiso   1.00
N1418  N     0.92685   0.77128   0.60155   0.00000  Uiso   1.00
N1419  N     0.70152   0.88289   0.98346   0.00000  Uiso   1.00
O1420  O     0.83333   0.83333   0.75000   0.00000  Uiso   1.00
O1421  O     0.82360   0.79060   0.66625   0.00000  Uiso   1.00
O1422  O     0.79354   0.87313   0.83749   0.00000  Uiso   1.00
O1423  O     0.87755   0.84159   0.65877   0.00000  Uiso   1.00
O1424  O     0.83865   0.82802   0.83749   0.00000  Uiso   1.00
O1425  O     0.96770   0.73488   0.52303   0.00000  Uiso   1.00
O1426  O     0.98204   0.79213   0.98944   0.00000  Uiso   1.00
O1427  O     0.93804   0.74926   0.92098   0.00000  Uiso   1.00
O1428  O     0.91189   0.70580   0.96928   0.00000  Uiso   1.00
O1429  O     0.84515   0.74768   0.77820   0.00000  Uiso   1.00
O1430  O     0.81247   0.92803   0.76767   0.00000  Uiso   1.00
O1431  O     0.74119   0.79917   0.73607   0.00000  Uiso   1.00
O1432  O     0.93452   0.85845   0.71805   0.00000  Uiso   1.00
O1433  O     0.73656   0.85627   0.77820   0.00000  Uiso   1.00
O1434  O     0.92106   0.81944   0.76767   0.00000  Uiso   1.00
O1435  O     0.80467   0.73570   0.73607   0.00000  Uiso   1.00
O1436  O     0.87104   0.92193   0.71805   0.00000  Uiso   1.00
Zn1437 Zn    0.85910   0.80756   0.78277   0.00000  Uiso   1.00
Zn1438 Zn    0.80125   0.79044   0.72257   0.00000  Uiso   1.00
Zn1439 Zn    0.87833   0.86331   0.71188   0.00000  Uiso   1.00
Zn1440 Zn    0.79465   0.87202   0.78277   0.00000  Uiso   1.00
loop_
_geom_bond_atom_site_label_1
_geom_bond_atom_site_label_2
_geom_bond_distance
_geom_bond_site_symmetry_2
_ccdc_geom_bond_type
C1     C11     1.437   .     S
C1     O71     1.270   .     A
C1     O73     1.270   .     A
C2     C30     1.406   .     A
C2     C3      1.395   .     A
C2     H56     1.080   .     S
C3     C26     1.485   .     S
C3     C725    1.422   .     S
C4     O74     1.277   .     A
C4     C10     1.454   .     S
C4     O72     1.280   .     A
C5     C7      1.430   .     A
C5     C6      1.431   .     A
C5     C723    1.422   1_554 S
C6     C9      1.420   .     A
C6     C31     1.429   .     A
C7     C8      1.412   .     A
C7     C22     1.487   .     S
C8     N58     1.428   .     S
C8     C20     1.401   .     A
C9     C20     1.401   .     A
C9     N57     1.429   .     S
C10    C91     1.334   .     S
C10    H125    1.088   .     S
C11    C170    1.334   1_455 S
C11    H210    1.086   1_455 S
C12    H53     1.081   .     S
C12    C21     1.408   .     A
C12    C19     1.399   .     A
C13    C16     1.451   .     S
C13    C254    1.332   .     S
C13    H291    1.088   .     S
C14    C15     1.435   .     S
C14    C493    1.332   1_545 S
C14    H532    1.086   1_545 S
C15    O75     1.276   .     A
C15    O69     1.276   .     A
C16    O70     1.271   .     A
C16    O76     1.270   .     A
C17    C20     1.461   .     S
C17    O61     1.273   .     A
C17    O63     1.272   .     A
C18    C19     1.471   .     S
C18    O62     1.282   .     A
C18    O64     1.284   .     A
C19    C23     1.393   .     A
C21    N59     1.433   .     S
C21    C29     1.420   .     A
C22    O65     1.223   .     D
C22    O786    1.398   1_554 S
C23    C28     1.404   .     A
C23    H54     1.079   .     S
C24    N57     1.446   .     S
C24    H38     1.111   .     S
C24    H37     1.110   .     S
C24    H39     1.111   .     S
C25    H43     1.110   .     S
C25    H41     1.111   .     S
C25    N58     1.447   .     S
C25    H42     1.111   .     S
C26    O67     1.223   .     D
C26    O68     1.398   .     S
C27    N59     1.448   .     S
C27    H49     1.111   .     S
C27    H207    1.110   1_455 S
C27    H208    1.111   1_455 S
C28    C29     1.421   .     A
C28    C30     1.425   .     A
C29    C753    1.401   .     S
C30    C751    1.413   .     S
C31    C32     1.412   .     A
C31    C750    1.413   1_554 S
C32    H55     1.079   .     S
C32    C33     1.388   .     A
C33    H34     1.082   .     S
C33    C749    1.401   1_554 S
H35    O226    1.014   1_455 S
H36    N57     1.031   .     S
H40    N58     1.031   .     S
H44    O68     1.014   .     S
H45    C170    1.088   1_455 S
H46    N779    1.031   1_554 S
H47    C107    1.110   .     S
H48    C107    1.111   .     S
H50    C91     1.086   .     S
H51    C493    1.088   1_545 S
H52    C254    1.086   .     S
N59    H766    1.031   .     S
O60    Zn79    1.931   .     S
O60    Zn78    1.941   .     S
O60    Zn77    1.957   .     S
O60    Zn80    1.934   .     S
O61    Zn78    1.929   .     S
O62    Zn80    1.938   .     S
O63    Zn79    1.934   .     S
O64    Zn77    1.926   .     S
O66    C742    1.398   .     S
O66    H115    1.014   .     S
O69    Zn77    1.927   .     S
O70    Zn80    1.929   .     S
O71    Zn78    1.926   .     S
O72    Zn79    1.935   .     S
O73    Zn80    1.930   .     S
O74    Zn77    1.922   .     S
O75    Zn78    1.935   .     S
O76    Zn79    1.930   .     S
C81    C91     1.437   .     S
C81    O151    1.270   .     A
C81    O153    1.270   .     A
C82    C110    1.406   .     A
C82    C83     1.395   .     A
C82    H136    1.080   .     S
C83    C106    1.485   .     S
C83    C805    1.422   .     S
C84    O154    1.277   .     A
C84    C90     1.454   .     S
C84    O152    1.280   .     A
C85    C87     1.430   .     A
C85    C86     1.431   .     A
C85    C803    1.422   1_554 S
C86    C89     1.420   .     A
C86    C111    1.429   .     A
C87    C88     1.412   .     A
C87    C102    1.487   .     S
C88    N138    1.428   .     S
C88    C100    1.401   .     A
C89    C100    1.401   .     A
C89    N137    1.429   .     S
C90    C171    1.334   .     S
C90    H205    1.088   .     S
C92    H133    1.081   .     S
C92    C101    1.408   .     A
C92    C99     1.399   .     A
C93    C96     1.451   .     S
C93    C334    1.332   .     S
C93    H371    1.088   .     S
C94    C95     1.435   .     S
C94    C573    1.332   1_545 S
C94    H612    1.086   1_545 S
C95    O155    1.276   .     A
C95    O149    1.276   .     A
C96    O150    1.271   .     A
C96    O156    1.270   .     A
C97    C100    1.461   .     S
C97    O141    1.273   .     A
C97    O143    1.272   .     A
C98    C99     1.471   .     S
C98    O142    1.282   .     A
C98    O144    1.284   .     A
C99    C103    1.393   .     A
C101   N139    1.433   .     S
C101   C109    1.420   .     A
C102   O145    1.223   .     D
C102   O866    1.398   1_554 S
C103   C108    1.404   .     A
C103   H134    1.079   .     S
C104   N137    1.446   .     S
C104   H118    1.111   .     S
C104   H117    1.110   .     S
C104   H119    1.111   .     S
C105   H123    1.110   .     S
C105   H121    1.111   .     S
C105   N138    1.447   .     S
C105   H122    1.111   .     S
C106   O147    1.223   .     D
C106   O148    1.398   .     S
C107   N139    1.448   .     S
C107   H129    1.111   .     S
C108   C109    1.421   .     A
C108   C110    1.425   .     A
C109   C833    1.401   .     S
C110   C831    1.413   .     S
C111   C112    1.412   .     A
C111   C830    1.413   1_554 S
C112   H135    1.079   .     S
C112   C113    1.388   .     A
C113   H114    1.082   .     S
C113   C829    1.401   1_554 S
H116   N137    1.031   .     S
H120   N138    1.031   .     S
H124   O148    1.014   .     S
H126   N859    1.031   1_554 S
H127   C187    1.110   .     S
H128   C187    1.111   .     S
H130   C171    1.086   .     S
H131   C573    1.088   1_545 S
H132   C334    1.086   .     S
N139   H846    1.031   .     S
O140   Zn159   1.931   .     S
O140   Zn158   1.941   .     S
O140   Zn157   1.957   .     S
O140   Zn160   1.934   .     S
O141   Zn158   1.929   .     S
O142   Zn160   1.938   .     S
O143   Zn159   1.934   .     S
O144   Zn157   1.926   .     S
O146   C822    1.398   .     S
O146   H195    1.014   .     S
O149   Zn157   1.927   .     S
O150   Zn160   1.929   .     S
O151   Zn158   1.926   .     S
O152   Zn159   1.935   .     S
O153   Zn160   1.930   .     S
O154   Zn157   1.922   .     S
O155   Zn158   1.935   .     S
O156   Zn159   1.930   .     S
C161   C171    1.437   .     S
C161   O231    1.270   .     A
C161   O233    1.270   .     A
C162   C190    1.406   .     A
C162   C163    1.395   .     A
C162   H216    1.080   .     S
C163   C186    1.485   .     S
C163   C885    1.422   .     S
C164   O234    1.277   .     A
C164   C170    1.454   .     S
C164   O232    1.280   .     A
C165   C167    1.430   .     A
C165   C166    1.431   .     A
C165   C883    1.422   1_554 S
C166   C169    1.420   .     A
C166   C191    1.429   .     A
C167   C168    1.412   .     A
C167   C182    1.487   .     S
C168   N218    1.428   .     S
C168   C180    1.401   .     A
C169   C180    1.401   .     A
C169   N217    1.429   .     S
C170   C11     1.334   1_655 S
C170   H45     1.088   1_655 S
C172   H213    1.081   .     S
C172   C181    1.408   .     A
C172   C179    1.399   .     A
C173   C176    1.451   .     S
C173   C414    1.332   .     S
C173   H451    1.088   .     S
C174   C175    1.435   .     S
C174   C653    1.332   1_545 S
C174   H692    1.086   1_545 S
C175   O235    1.276   .     A
C175   O229    1.276   .     A
C176   O230    1.271   .     A
C176   O236    1.270   .     A
C177   C180    1.461   .     S
C177   O221    1.273   .     A
C177   O223    1.272   .     A
C178   C179    1.471   .     S
C178   O222    1.282   .     A
C178   O224    1.284   .     A
C179   C183    1.393   .     A
C181   N219    1.433   .     S
C181   C189    1.420   .     A
C182   O225    1.223   .     D
C182   O946    1.398   1_554 S
C183   C188    1.404   .     A
C183   H214    1.079   .     S
C184   N217    1.446   .     S
C184   H198    1.111   .     S
C184   H197    1.110   .     S
C184   H199    1.111   .     S
C185   H203    1.110   .     S
C185   H201    1.111   .     S
C185   N218    1.447   .     S
C185   H202    1.111   .     S
C186   O227    1.223   .     D
C186   O228    1.398   .     S
C187   N219    1.448   .     S
C187   H209    1.111   .     S
C188   C189    1.421   .     A
C188   C190    1.425   .     A
C189   C913    1.401   .     S
C190   C911    1.413   .     S
C191   C192    1.412   .     A
C191   C910    1.413   1_554 S
C192   H215    1.079   .     S
C192   C193    1.388   .     A
C193   H194    1.082   .     S
C193   C909    1.401   1_554 S
H196   N217    1.031   .     S
H200   N218    1.031   .     S
H204   O228    1.014   .     S
H206   N939    1.031   1_554 S
H207   C27     1.110   1_655 S
H208   C27     1.111   1_655 S
H210   C11     1.086   1_655 S
H211   C653    1.088   1_545 S
H212   C414    1.086   .     S
N219   H926    1.031   .     S
O220   Zn239   1.931   .     S
O220   Zn238   1.941   .     S
O220   Zn237   1.957   .     S
O220   Zn240   1.934   .     S
O221   Zn238   1.929   .     S
O222   Zn240   1.938   .     S
O223   Zn239   1.934   .     S
O224   Zn237   1.926   .     S
O226   C902    1.398   .     S
O226   H35     1.014   1_655 S
O229   Zn237   1.927   .     S
O230   Zn240   1.929   .     S
O231   Zn238   1.926   .     S
O232   Zn239   1.935   .     S
O233   Zn240   1.930   .     S
O234   Zn237   1.922   .     S
O235   Zn238   1.935   .     S
O236   Zn239   1.930   .     S
C241   C251    1.437   .     S
C241   O311    1.270   .     A
C241   O313    1.270   .     A
C242   C270    1.406   .     A
C242   C243    1.395   .     A
C242   H296    1.080   .     S
C243   C266    1.485   .     S
C243   C965    1.422   .     S
C244   O314    1.277   .     A
C244   C250    1.454   .     S
C244   O312    1.280   .     A
C245   C247    1.430   .     A
C245   C246    1.431   .     A
C245   C963    1.422   1_554 S
C246   C249    1.420   .     A
C246   C271    1.429   .     A
C247   C248    1.412   .     A
C247   C262    1.487   .     S
C248   N298    1.428   .     S
C248   C260    1.401   .     A
C249   C260    1.401   .     A
C249   N297    1.429   .     S
C250   C331    1.334   .     S
C250   H365    1.088   .     S
C251   C410    1.334   1_455 S
C251   H450    1.086   1_455 S
C252   H293    1.081   .     S
C252   C261    1.408   .     A
C252   C259    1.399   .     A
C253   C256    1.451   .     S
C253   C494    1.332   .     S
C253   H531    1.088   .     S
C254   C255    1.435   .     S
C255   O315    1.276   .     A
C255   O309    1.276   .     A
C256   O310    1.271   .     A
C256   O316    1.270   .     A
C257   C260    1.461   .     S
C257   O301    1.273   .     A
C257   O303    1.272   .     A
C258   C259    1.471   .     S
C258   O302    1.282   .     A
C258   O304    1.284   .     A
C259   C263    1.393   .     A
C261   N299    1.433   .     S
C261   C269    1.420   .     A
C262   O305    1.223   .     D
C262   O1026   1.398   1_554 S
C263   C268    1.404   .     A
C263   H294    1.079   .     S
C264   N297    1.446   .     S
C264   H278    1.111   .     S
C264   H277    1.110   .     S
C264   H279    1.111   .     S
C265   H283    1.110   .     S
C265   H281    1.111   .     S
C265   N298    1.447   .     S
C265   H282    1.111   .     S
C266   O307    1.223   .     D
C266   O308    1.398   .     S
C267   N299    1.448   .     S
C267   H289    1.111   .     S
C267   H447    1.110   1_455 S
C267   H448    1.111   1_455 S
C268   C269    1.421   .     A
C268   C270    1.425   .     A
C269   C993    1.401   .     S
C270   C991    1.413   .     S
C271   C272    1.412   .     A
C271   C990    1.413   1_554 S
C272   H295    1.079   .     S
C272   C273    1.388   .     A
C273   H274    1.082   .     S
C273   C989    1.401   1_554 S
H275   O466    1.014   1_455 S
H276   N297    1.031   .     S
H280   N298    1.031   .     S
H284   O308    1.014   .     S
H285   C410    1.088   1_455 S
H286   N1019   1.031   1_554 S
H287   C347    1.110   .     S
H288   C347    1.111   .     S
H290   C331    1.086   .     S
H292   C494    1.086   .     S
N299   H1006   1.031   .     S
O300   Zn319   1.931   .     S
O300   Zn318   1.941   .     S
O300   Zn317   1.957   .     S
O300   Zn320   1.934   .     S
O301   Zn318   1.929   .     S
O302   Zn320   1.938   .     S
O303   Zn319   1.934   .     S
O304   Zn317   1.926   .     S
O306   C982    1.398   .     S
O306   H355    1.014   .     S
O309   Zn317   1.927   .     S
O310   Zn320   1.929   .     S
O311   Zn318   1.926   .     S
O312   Zn319   1.935   .     S
O313   Zn320   1.930   .     S
O314   Zn317   1.922   .     S
O315   Zn318   1.935   .     S
O316   Zn319   1.930   .     S
C321   C331    1.437   .     S
C321   O391    1.270   .     A
C321   O393    1.270   .     A
C322   C350    1.406   .     A
C322   C323    1.395   .     A
C322   H376    1.080   .     S
C323   C346    1.485   .     S
C323   C1045   1.422   .     S
C324   O394    1.277   .     A
C324   C330    1.454   .     S
C324   O392    1.280   .     A
C325   C327    1.430   .     A
C325   C326    1.431   .     A
C325   C1043   1.422   1_554 S
C326   C329    1.420   .     A
C326   C351    1.429   .     A
C327   C328    1.412   .     A
C327   C342    1.487   .     S
C328   N378    1.428   .     S
C328   C340    1.401   .     A
C329   C340    1.401   .     A
C329   N377    1.429   .     S
C330   C411    1.334   .     S
C330   H445    1.088   .     S
C332   H373    1.081   .     S
C332   C341    1.408   .     A
C332   C339    1.399   .     A
C333   C336    1.451   .     S
C333   C574    1.332   .     S
C333   H611    1.088   .     S
C334   C335    1.435   .     S
C335   O395    1.276   .     A
C335   O389    1.276   .     A
C336   O390    1.271   .     A
C336   O396    1.270   .     A
C337   C340    1.461   .     S
C337   O381    1.273   .     A
C337   O383    1.272   .     A
C338   C339    1.471   .     S
C338   O382    1.282   .     A
C338   O384    1.284   .     A
C339   C343    1.393   .     A
C341   N379    1.433   .     S
C341   C349    1.420   .     A
C342   O385    1.223   .     D
C342   O1106   1.398   1_554 S
C343   C348    1.404   .     A
C343   H374    1.079   .     S
C344   N377    1.446   .     S
C344   H358    1.111   .     S
C344   H357    1.110   .     S
C344   H359    1.111   .     S
C345   H363    1.110   .     S
C345   H361    1.111   .     S
C345   N378    1.447   .     S
C345   H362    1.111   .     S
C346   O387    1.223   .     D
C346   O388    1.398   .     S
C347   N379    1.448   .     S
C347   H369    1.111   .     S
C348   C349    1.421   .     A
C348   C350    1.425   .     A
C349   C1073   1.401   .     S
C350   C1071   1.413   .     S
C351   C352    1.412   .     A
C351   C1070   1.413   1_554 S
C352   H375    1.079   .     S
C352   C353    1.388   .     A
C353   H354    1.082   .     S
C353   C1069   1.401   1_554 S
H356   N377    1.031   .     S
H360   N378    1.031   .     S
H364   O388    1.014   .     S
H366   N1099   1.031   1_554 S
H367   C427    1.110   .     S
H368   C427    1.111   .     S
H370   C411    1.086   .     S
H372   C574    1.086   .     S
N379   H1086   1.031   .     S
O380   Zn399   1.931   .     S
O380   Zn398   1.941   .     S
O380   Zn397   1.957   .     S
O380   Zn400   1.934   .     S
O381   Zn398   1.929   .     S
O382   Zn400   1.938   .     S
O383   Zn399   1.934   .     S
O384   Zn397   1.926   .     S
O386   C1062   1.398   .     S
O386   H435    1.014   .     S
O389   Zn397   1.927   .     S
O390   Zn400   1.929   .     S
O391   Zn398   1.926   .     S
O392   Zn399   1.935   .     S
O393   Zn400   1.930   .     S
O394   Zn397   1.922   .     S
O395   Zn398   1.935   .     S
O396   Zn399   1.930   .     S
C401   C411    1.437   .     S
C401   O471    1.270   .     A
C401   O473    1.270   .     A
C402   C430    1.406   .     A
C402   C403    1.395   .     A
C402   H456    1.080   .     S
C403   C426    1.485   .     S
C403   C1125   1.422   .     S
C404   O474    1.277   .     A
C404   C410    1.454   .     S
C404   O472    1.280   .     A
C405   C407    1.430   .     A
C405   C406    1.431   .     A
C405   C1123   1.422   1_554 S
C406   C409    1.420   .     A
C406   C431    1.429   .     A
C407   C408    1.412   .     A
C407   C422    1.487   .     S
C408   N458    1.428   .     S
C408   C420    1.401   .     A
C409   C420    1.401   .     A
C409   N457    1.429   .     S
C410   C251    1.334   1_655 S
C410   H285    1.088   1_655 S
C412   H453    1.081   .     S
C412   C421    1.408   .     A
C412   C419    1.399   .     A
C413   C416    1.451   .     S
C413   C654    1.332   .     S
C413   H691    1.088   .     S
C414   C415    1.435   .     S
C415   O475    1.276   .     A
C415   O469    1.276   .     A
C416   O470    1.271   .     A
C416   O476    1.270   .     A
C417   C420    1.461   .     S
C417   O461    1.273   .     A
C417   O463    1.272   .     A
C418   C419    1.471   .     S
C418   O462    1.282   .     A
C418   O464    1.284   .     A
C419   C423    1.393   .     A
C421   N459    1.433   .     S
C421   C429    1.420   .     A
C422   O465    1.223   .     D
C422   O1186   1.398   1_554 S
C423   C428    1.404   .     A
C423   H454    1.079   .     S
C424   N457    1.446   .     S
C424   H438    1.111   .     S
C424   H437    1.110   .     S
C424   H439    1.111   .     S
C425   H443    1.110   .     S
C425   H441    1.111   .     S
C425   N458    1.447   .     S
C425   H442    1.111   .     S
C426   O467    1.223   .     D
C426   O468    1.398   .     S
C427   N459    1.448   .     S
C427   H449    1.111   .     S
C428   C429    1.421   .     A
C428   C430    1.425   .     A
C429   C1153   1.401   .     S
C430   C1151   1.413   .     S
C431   C432    1.412   .     A
C431   C1150   1.413   1_554 S
C432   H455    1.079   .     S
C432   C433    1.388   .     A
C433   H434    1.082   .     S
C433   C1149   1.401   1_554 S
H436   N457    1.031   .     S
H440   N458    1.031   .     S
H444   O468    1.014   .     S
H446   N1179   1.031   1_554 S
H447   C267    1.110   1_655 S
H448   C267    1.111   1_655 S
H450   C251    1.086   1_655 S
H452   C654    1.086   .     S
N459   H1166   1.031   .     S
O460   Zn479   1.931   .     S
O460   Zn478   1.941   .     S
O460   Zn477   1.957   .     S
O460   Zn480   1.934   .     S
O461   Zn478   1.929   .     S
O462   Zn480   1.938   .     S
O463   Zn479   1.934   .     S
O464   Zn477   1.926   .     S
O466   C1142   1.398   .     S
O466   H275    1.014   1_655 S
O469   Zn477   1.927   .     S
O470   Zn480   1.929   .     S
O471   Zn478   1.926   .     S
O472   Zn479   1.935   .     S
O473   Zn480   1.930   .     S
O474   Zn477   1.922   .     S
O475   Zn478   1.935   .     S
O476   Zn479   1.930   .     S
C481   C491    1.437   .     S
C481   O551    1.270   .     A
C481   O553    1.270   .     A
C482   C510    1.406   .     A
C482   C483    1.395   .     A
C482   H536    1.080   .     S
C483   C506    1.485   .     S
C483   C1205   1.422   .     S
C484   O554    1.277   .     A
C484   C490    1.454   .     S
C484   O552    1.280   .     A
C485   C487    1.430   .     A
C485   C486    1.431   .     A
C485   C1203   1.422   1_554 S
C486   C489    1.420   .     A
C486   C511    1.429   .     A
C487   C488    1.412   .     A
C487   C502    1.487   .     S
C488   N538    1.428   .     S
C488   C500    1.401   .     A
C489   C500    1.401   .     A
C489   N537    1.429   .     S
C490   C571    1.334   .     S
C490   H605    1.088   .     S
C491   C650    1.334   1_455 S
C491   H690    1.086   1_455 S
C492   H533    1.081   .     S
C492   C501    1.408   .     A
C492   C499    1.399   .     A
C493   C496    1.451   .     S
C493   C14     1.332   1_565 S
C493   H51     1.088   1_565 S
C494   C495    1.435   .     S
C495   O555    1.276   .     A
C495   O549    1.276   .     A
C496   O550    1.271   .     A
C496   O556    1.270   .     A
C497   C500    1.461   .     S
C497   O541    1.273   .     A
C497   O543    1.272   .     A
C498   C499    1.471   .     S
C498   O542    1.282   .     A
C498   O544    1.284   .     A
C499   C503    1.393   .     A
C501   N539    1.433   .     S
C501   C509    1.420   .     A
C502   O545    1.223   .     D
C502   O1266   1.398   1_554 S
C503   C508    1.404   .     A
C503   H534    1.079   .     S
C504   N537    1.446   .     S
C504   H518    1.111   .     S
C504   H517    1.110   .     S
C504   H519    1.111   .     S
C505   H523    1.110   .     S
C505   H521    1.111   .     S
C505   N538    1.447   .     S
C505   H522    1.111   .     S
C506   O547    1.223   .     D
C506   O548    1.398   .     S
C507   N539    1.448   .     S
C507   H529    1.111   .     S
C507   H687    1.110   1_455 S
C507   H688    1.111   1_455 S
C508   C509    1.421   .     A
C508   C510    1.425   .     A
C509   C1233   1.401   .     S
C510   C1231   1.413   .     S
C511   C512    1.412   .     A
C511   C1230   1.413   1_554 S
C512   H535    1.079   .     S
C512   C513    1.388   .     A
C513   H514    1.082   .     S
C513   C1229   1.401   1_554 S
H515   O706    1.014   1_455 S
H516   N537    1.031   .     S
H520   N538    1.031   .     S
H524   O548    1.014   .     S
H525   C650    1.088   1_455 S
H526   N1259   1.031   1_554 S
H527   C587    1.110   .     S
H528   C587    1.111   .     S
H530   C571    1.086   .     S
H532   C14     1.086   1_565 S
N539   H1246   1.031   .     S
O540   Zn559   1.931   .     S
O540   Zn558   1.941   .     S
O540   Zn557   1.957   .     S
O540   Zn560   1.934   .     S
O541   Zn558   1.929   .     S
O542   Zn560   1.938   .     S
O543   Zn559   1.934   .     S
O544   Zn557   1.926   .     S
O546   C1222   1.398   .     S
O546   H595    1.014   .     S
O549   Zn557   1.927   .     S
O550   Zn560   1.929   .     S
O551   Zn558   1.926   .     S
O552   Zn559   1.935   .     S
O553   Zn560   1.930   .     S
O554   Zn557   1.922   .     S
O555   Zn558   1.935   .     S
O556   Zn559   1.930   .     S
C561   C571    1.437   .     S
C561   O631    1.270   .     A
C561   O633    1.270   .     A
C562   C590    1.406   .     A
C562   C563    1.395   .     A
C562   H616    1.080   .     S
C563   C586    1.485   .     S
C563   C1285   1.422   .     S
C564   O634    1.277   .     A
C564   C570    1.454   .     S
C564   O632    1.280   .     A
C565   C567    1.430   .     A
C565   C566    1.431   .     A
C565   C1283   1.422   1_554 S
C566   C569    1.420   .     A
C566   C591    1.429   .     A
C567   C568    1.412   .     A
C567   C582    1.487   .     S
C568   N618    1.428   .     S
C568   C580    1.401   .     A
C569   C580    1.401   .     A
C569   N617    1.429   .     S
C570   C651    1.334   .     S
C570   H685    1.088   .     S
C572   H613    1.081   .     S
C572   C581    1.408   .     A
C572   C579    1.399   .     A
C573   C576    1.451   .     S
C573   C94     1.332   1_565 S
C573   H131    1.088   1_565 S
C574   C575    1.435   .     S
C575   O635    1.276   .     A
C575   O629    1.276   .     A
C576   O630    1.271   .     A
C576   O636    1.270   .     A
C577   C580    1.461   .     S
C577   O621    1.273   .     A
C577   O623    1.272   .     A
C578   C579    1.471   .     S
C578   O622    1.282   .     A
C578   O624    1.284   .     A
C579   C583    1.393   .     A
C581   N619    1.433   .     S
C581   C589    1.420   .     A
C582   O625    1.223   .     D
C582   O1346   1.398   1_554 S
C583   C588    1.404   .     A
C583   H614    1.079   .     S
C584   N617    1.446   .     S
C584   H598    1.111   .     S
C584   H597    1.110   .     S
C584   H599    1.111   .     S
C585   H603    1.110   .     S
C585   H601    1.111   .     S
C585   N618    1.447   .     S
C585   H602    1.111   .     S
C586   O627    1.223   .     D
C586   O628    1.398   .     S
C587   N619    1.448   .     S
C587   H609    1.111   .     S
C588   C589    1.421   .     A
C588   C590    1.425   .     A
C589   C1313   1.401   .     S
C590   C1311   1.413   .     S
C591   C592    1.412   .     A
C591   C1310   1.413   1_554 S
C592   H615    1.079   .     S
C592   C593    1.388   .     A
C593   H594    1.082   .     S
C593   C1309   1.401   1_554 S
H596   N617    1.031   .     S
H600   N618    1.031   .     S
H604   O628    1.014   .     S
H606   N1339   1.031   1_554 S
H607   C667    1.110   .     S
H608   C667    1.111   .     S
H610   C651    1.086   .     S
H612   C94     1.086   1_565 S
N619   H1326   1.031   .     S
O620   Zn639   1.931   .     S
O620   Zn638   1.941   .     S
O620   Zn637   1.957   .     S
O620   Zn640   1.934   .     S
O621   Zn638   1.929   .     S
O622   Zn640   1.938   .     S
O623   Zn639   1.934   .     S
O624   Zn637   1.926   .     S
O626   C1302   1.398   .     S
O626   H675    1.014   .     S
O629   Zn637   1.927   .     S
O630   Zn640   1.929   .     S
O631   Zn638   1.926   .     S
O632   Zn639   1.935   .     S
O633   Zn640   1.930   .     S
O634   Zn637   1.922   .     S
O635   Zn638   1.935   .     S
O636   Zn639   1.930   .     S
C641   C651    1.437   .     S
C641   O711    1.270   .     A
C641   O713    1.270   .     A
C642   C670    1.406   .     A
C642   C643    1.395   .     A
C642   H696    1.080   .     S
C643   C666    1.485   .     S
C643   C1365   1.422   .     S
C644   O714    1.277   .     A
C644   C650    1.454   .     S
C644   O712    1.280   .     A
C645   C647    1.430   .     A
C645   C646    1.431   .     A
C645   C1363   1.422   1_554 S
C646   C649    1.420   .     A
C646   C671    1.429   .     A
C647   C648    1.412   .     A
C647   C662    1.487   .     S
C648   N698    1.428   .     S
C648   C660    1.401   .     A
C649   C660    1.401   .     A
C649   N697    1.429   .     S
C650   C491    1.334   1_655 S
C650   H525    1.088   1_655 S
C652   H693    1.081   .     S
C652   C661    1.408   .     A
C652   C659    1.399   .     A
C653   C656    1.451   .     S
C653   C174    1.332   1_565 S
C653   H211    1.088   1_565 S
C654   C655    1.435   .     S
C655   O715    1.276   .     A
C655   O709    1.276   .     A
C656   O710    1.271   .     A
C656   O716    1.270   .     A
C657   C660    1.461   .     S
C657   O701    1.273   .     A
C657   O703    1.272   .     A
C658   C659    1.471   .     S
C658   O702    1.282   .     A
C658   O704    1.284   .     A
C659   C663    1.393   .     A
C661   N699    1.433   .     S
C661   C669    1.420   .     A
C662   O705    1.223   .     D
C662   O1426   1.398   1_554 S
C663   C668    1.404   .     A
C663   H694    1.079   .     S
C664   N697    1.446   .     S
C664   H678    1.111   .     S
C664   H677    1.110   .     S
C664   H679    1.111   .     S
C665   H683    1.110   .     S
C665   H681    1.111   .     S
C665   N698    1.447   .     S
C665   H682    1.111   .     S
C666   O707    1.223   .     D
C666   O708    1.398   .     S
C667   N699    1.448   .     S
C667   H689    1.111   .     S
C668   C669    1.421   .     A
C668   C670    1.425   .     A
C669   C1393   1.401   .     S
C670   C1391   1.413   .     S
C671   C672    1.412   .     A
C671   C1390   1.413   1_554 S
C672   H695    1.079   .     S
C672   C673    1.388   .     A
C673   H674    1.082   .     S
C673   C1389   1.401   1_554 S
H676   N697    1.031   .     S
H680   N698    1.031   .     S
H684   O708    1.014   .     S
H686   N1419   1.031   1_554 S
H687   C507    1.110   1_655 S
H688   C507    1.111   1_655 S
H690   C491    1.086   1_655 S
H692   C174    1.086   1_565 S
N699   H1406   1.031   .     S
O700   Zn719   1.931   .     S
O700   Zn718   1.941   .     S
O700   Zn717   1.957   .     S
O700   Zn720   1.934   .     S
O701   Zn718   1.929   .     S
O702   Zn720   1.938   .     S
O703   Zn719   1.934   .     S
O704   Zn717   1.926   .     S
O706   C1382   1.398   .     S
O706   H515    1.014   1_655 S
O709   Zn717   1.927   .     S
O710   Zn720   1.929   .     S
O711   Zn718   1.926   .     S
O712   Zn719   1.935   .     S
O713   Zn720   1.930   .     S
O714   Zn717   1.922   .     S
O715   Zn718   1.935   .     S
O716   Zn719   1.930   .     S
C721   C731    1.437   .     S
C721   O791    1.270   .     A
C721   O793    1.270   .     A
C722   C750    1.406   .     A
C722   C723    1.395   .     A
C722   H776    1.080   .     S
C723   C746    1.485   .     S
C723   C5      1.422   1_556 S
C724   O794    1.277   .     A
C724   C730    1.454   .     S
C724   O792    1.280   .     A
C725   C727    1.430   .     A
C725   C726    1.431   .     A
C726   C729    1.420   .     A
C726   C751    1.429   .     A
C727   C728    1.412   .     A
C727   C742    1.487   .     S
C728   N778    1.428   .     S
C728   C740    1.401   .     A
C729   C740    1.401   .     A
C729   N777    1.429   .     S
C730   C811    1.334   .     S
C730   H845    1.088   .     S
C731   C890    1.334   1_455 S
C731   H930    1.086   1_455 S
C732   H773    1.081   .     S
C732   C741    1.408   .     A
C732   C739    1.399   .     A
C733   C736    1.451   .     S
C733   C974    1.332   .     S
C733   H1011   1.088   .     S
C734   C735    1.435   .     S
C734   C1213   1.332   1_545 S
C734   H1252   1.086   1_545 S
C735   O795    1.276   .     A
C735   O789    1.276   .     A
C736   O790    1.271   .     A
C736   O796    1.270   .     A
C737   C740    1.461   .     S
C737   O781    1.273   .     A
C737   O783    1.272   .     A
C738   C739    1.471   .     S
C738   O782    1.282   .     A
C738   O784    1.284   .     A
C739   C743    1.393   .     A
C741   N779    1.433   .     S
C741   C749    1.420   .     A
C742   O785    1.223   .     D
C743   C748    1.404   .     A
C743   H774    1.079   .     S
C744   N777    1.446   .     S
C744   H758    1.111   .     S
C744   H757    1.110   .     S
C744   H759    1.111   .     S
C745   H763    1.110   .     S
C745   H761    1.111   .     S
C745   N778    1.447   .     S
C745   H762    1.111   .     S
C746   O787    1.223   .     D
C746   O788    1.398   .     S
C747   N779    1.448   .     S
C747   H769    1.111   .     S
C747   H927    1.110   1_455 S
C747   H928    1.111   1_455 S
C748   C749    1.421   .     A
C748   C750    1.425   .     A
C749   C33     1.401   1_556 S
C750   C31     1.413   1_556 S
C751   C752    1.412   .     A
C752   H775    1.079   .     S
C752   C753    1.388   .     A
C753   H754    1.082   .     S
H755   O946    1.014   1_455 S
H756   N777    1.031   .     S
H760   N778    1.031   .     S
H764   O788    1.014   .     S
H765   C890    1.088   1_455 S
H767   C827    1.110   .     S
H768   C827    1.111   .     S
H770   C811    1.086   .     S
H771   C1213   1.088   1_545 S
H772   C974    1.086   .     S
N779   H46     1.031   1_556 S
O780   Zn799   1.931   .     S
O780   Zn798   1.941   .     S
O780   Zn797   1.957   .     S
O780   Zn800   1.934   .     S
O781   Zn798   1.929   .     S
O782   Zn800   1.938   .     S
O783   Zn799   1.934   .     S
O784   Zn797   1.926   .     S
O786   C22     1.398   1_556 S
O786   H835    1.014   .     S
O789   Zn797   1.927   .     S
O790   Zn800   1.929   .     S
O791   Zn798   1.926   .     S
O792   Zn799   1.935   .     S
O793   Zn800   1.930   .     S
O794   Zn797   1.922   .     S
O795   Zn798   1.935   .     S
O796   Zn799   1.930   .     S
C801   C811    1.437   .     S
C801   O871    1.270   .     A
C801   O873    1.270   .     A
C802   C830    1.406   .     A
C802   C803    1.395   .     A
C802   H856    1.080   .     S
C803   C826    1.485   .     S
C803   C85     1.422   1_556 S
C804   O874    1.277   .     A
C804   C810    1.454   .     S
C804   O872    1.280   .     A
C805   C807    1.430   .     A
C805   C806    1.431   .     A
C806   C809    1.420   .     A
C806   C831    1.429   .     A
C807   C808    1.412   .     A
C807   C822    1.487   .     S
C808   N858    1.428   .     S
C808   C820    1.401   .     A
C809   C820    1.401   .     A
C809   N857    1.429   .     S
C810   C891    1.334   .     S
C810   H925    1.088   .     S
C812   H853    1.081   .     S
C812   C821    1.408   .     A
C812   C819    1.399   .     A
C813   C816    1.451   .     S
C813   C1054   1.332   .     S
C813   H1091   1.088   .     S
C814   C815    1.435   .     S
C814   C1293   1.332   1_545 S
C814   H1332   1.086   1_545 S
C815   O875    1.276   .     A
C815   O869    1.276   .     A
C816   O870    1.271   .     A
C816   O876    1.270   .     A
C817   C820    1.461   .     S
C817   O861    1.273   .     A
C817   O863    1.272   .     A
C818   C819    1.471   .     S
C818   O862    1.282   .     A
C818   O864    1.284   .     A
C819   C823    1.393   .     A
C821   N859    1.433   .     S
C821   C829    1.420   .     A
C822   O865    1.223   .     D
C823   C828    1.404   .     A
C823   H854    1.079   .     S
C824   N857    1.446   .     S
C824   H838    1.111   .     S
C824   H837    1.110   .     S
C824   H839    1.111   .     S
C825   H843    1.110   .     S
C825   H841    1.111   .     S
C825   N858    1.447   .     S
C825   H842    1.111   .     S
C826   O867    1.223   .     D
C826   O868    1.398   .     S
C827   N859    1.448   .     S
C827   H849    1.111   .     S
C828   C829    1.421   .     A
C828   C830    1.425   .     A
C829   C113    1.401   1_556 S
C830   C111    1.413   1_556 S
C831   C832    1.412   .     A
C832   H855    1.079   .     S
C832   C833    1.388   .     A
C833   H834    1.082   .     S
H836   N857    1.031   .     S
H840   N858    1.031   .     S
H844   O868    1.014   .     S
H847   C907    1.110   .     S
H848   C907    1.111   .     S
H850   C891    1.086   .     S
H851   C1293   1.088   1_545 S
H852   C1054   1.086   .     S
N859   H126    1.031   1_556 S
O860   Zn879   1.931   .     S
O860   Zn878   1.941   .     S
O860   Zn877   1.957   .     S
O860   Zn880   1.934   .     S
O861   Zn878   1.929   .     S
O862   Zn880   1.938   .     S
O863   Zn879   1.934   .     S
O864   Zn877   1.926   .     S
O866   C102    1.398   1_556 S
O866   H915    1.014   .     S
O869   Zn877   1.927   .     S
O870   Zn880   1.929   .     S
O871   Zn878   1.926   .     S
O872   Zn879   1.935   .     S
O873   Zn880   1.930   .     S
O874   Zn877   1.922   .     S
O875   Zn878   1.935   .     S
O876   Zn879   1.930   .     S
C881   C891    1.437   .     S
C881   O951    1.270   .     A
C881   O953    1.270   .     A
C882   C910    1.406   .     A
C882   C883    1.395   .     A
C882   H936    1.080   .     S
C883   C906    1.485   .     S
C883   C165    1.422   1_556 S
C884   O954    1.277   .     A
C884   C890    1.454   .     S
C884   O952    1.280   .     A
C885   C887    1.430   .     A
C885   C886    1.431   .     A
C886   C889    1.420   .     A
C886   C911    1.429   .     A
C887   C888    1.412   .     A
C887   C902    1.487   .     S
C888   N938    1.428   .     S
C888   C900    1.401   .     A
C889   C900    1.401   .     A
C889   N937    1.429   .     S
C890   C731    1.334   1_655 S
C890   H765    1.088   1_655 S
C892   H933    1.081   .     S
C892   C901    1.408   .     A
C892   C899    1.399   .     A
C893   C896    1.451   .     S
C893   C1134   1.332   .     S
C893   H1171   1.088   .     S
C894   C895    1.435   .     S
C894   C1373   1.332   1_545 S
C894   H1412   1.086   1_545 S
C895   O955    1.276   .     A
C895   O949    1.276   .     A
C896   O950    1.271   .     A
C896   O956    1.270   .     A
C897   C900    1.461   .     S
C897   O941    1.273   .     A
C897   O943    1.272   .     A
C898   C899    1.471   .     S
C898   O942    1.282   .     A
C898   O944    1.284   .     A
C899   C903    1.393   .     A
C901   N939    1.433   .     S
C901   C909    1.420   .     A
C902   O945    1.223   .     D
C903   C908    1.404   .     A
C903   H934    1.079   .     S
C904   N937    1.446   .     S
C904   H918    1.111   .     S
C904   H917    1.110   .     S
C904   H919    1.111   .     S
C905   H923    1.110   .     S
C905   H921    1.111   .     S
C905   N938    1.447   .     S
C905   H922    1.111   .     S
C906   O947    1.223   .     D
C906   O948    1.398   .     S
C907   N939    1.448   .     S
C907   H929    1.111   .     S
C908   C909    1.421   .     A
C908   C910    1.425   .     A
C909   C193    1.401   1_556 S
C910   C191    1.413   1_556 S
C911   C912    1.412   .     A
C912   H935    1.079   .     S
C912   C913    1.388   .     A
C913   H914    1.082   .     S
H916   N937    1.031   .     S
H920   N938    1.031   .     S
H924   O948    1.014   .     S
H927   C747    1.110   1_655 S
H928   C747    1.111   1_655 S
H930   C731    1.086   1_655 S
H931   C1373   1.088   1_545 S
H932   C1134   1.086   .     S
N939   H206    1.031   1_556 S
O940   Zn959   1.931   .     S
O940   Zn958   1.941   .     S
O940   Zn957   1.957   .     S
O940   Zn960   1.934   .     S
O941   Zn958   1.929   .     S
O942   Zn960   1.938   .     S
O943   Zn959   1.934   .     S
O944   Zn957   1.926   .     S
O946   C182    1.398   1_556 S
O946   H755    1.014   1_655 S
O949   Zn957   1.927   .     S
O950   Zn960   1.929   .     S
O951   Zn958   1.926   .     S
O952   Zn959   1.935   .     S
O953   Zn960   1.930   .     S
O954   Zn957   1.922   .     S
O955   Zn958   1.935   .     S
O956   Zn959   1.930   .     S
C961   C971    1.437   .     S
C961   O1031   1.270   .     A
C961   O1033   1.270   .     A
C962   C990    1.406   .     A
C962   C963    1.395   .     A
C962   H1016   1.080   .     S
C963   C986    1.485   .     S
C963   C245    1.422   1_556 S
C964   O1034   1.277   .     A
C964   C970    1.454   .     S
C964   O1032   1.280   .     A
C965   C967    1.430   .     A
C965   C966    1.431   .     A
C966   C969    1.420   .     A
C966   C991    1.429   .     A
C967   C968    1.412   .     A
C967   C982    1.487   .     S
C968   N1018   1.428   .     S
C968   C980    1.401   .     A
C969   C980    1.401   .     A
C969   N1017   1.429   .     S
C970   C1051   1.334   .     S
C970   H1085   1.088   .     S
C971   C1130   1.334   1_455 S
C971   H1170   1.086   1_455 S
C972   H1013   1.081   .     S
C972   C981    1.408   .     A
C972   C979    1.399   .     A
C973   C976    1.451   .     S
C973   C1214   1.332   .     S
C973   H1251   1.088   .     S
C974   C975    1.435   .     S
C975   O1035   1.276   .     A
C975   O1029   1.276   .     A
C976   O1030   1.271   .     A
C976   O1036   1.270   .     A
C977   C980    1.461   .     S
C977   O1021   1.273   .     A
C977   O1023   1.272   .     A
C978   C979    1.471   .     S
C978   O1022   1.282   .     A
C978   O1024   1.284   .     A
C979   C983    1.393   .     A
C981   N1019   1.433   .     S
C981   C989    1.420   .     A
C982   O1025   1.223   .     D
C983   C988    1.404   .     A
C983   H1014   1.079   .     S
C984   N1017   1.446   .     S
C984   H998    1.111   .     S
C984   H997    1.110   .     S
C984   H999    1.111   .     S
C985   H1003   1.110   .     S
C985   H1001   1.111   .     S
C985   N1018   1.447   .     S
C985   H1002   1.111   .     S
C986   O1027   1.223   .     D
C986   O1028   1.398   .     S
C987   N1019   1.448   .     S
C987   H1009   1.111   .     S
C987   H1167   1.110   1_455 S
C987   H1168   1.111   1_455 S
C988   C989    1.421   .     A
C988   C990    1.425   .     A
C989   C273    1.401   1_556 S
C990   C271    1.413   1_556 S
C991   C992    1.412   .     A
C992   H1015   1.079   .     S
C992   C993    1.388   .     A
C993   H994    1.082   .     S
H995   O1186   1.014   1_455 S
H996   N1017   1.031   .     S
H1000  N1018   1.031   .     S
H1004  O1028   1.014   .     S
H1005  C1130   1.088   1_455 S
H1007  C1067   1.110   .     S
H1008  C1067   1.111   .     S
H1010  C1051   1.086   .     S
H1012  C1214   1.086   .     S
N1019  H286    1.031   1_556 S
O1020  Zn1039  1.931   .     S
O1020  Zn1038  1.941   .     S
O1020  Zn1037  1.957   .     S
O1020  Zn1040  1.934   .     S
O1021  Zn1038  1.929   .     S
O1022  Zn1040  1.938   .     S
O1023  Zn1039  1.934   .     S
O1024  Zn1037  1.926   .     S
O1026  C262    1.398   1_556 S
O1026  H1075   1.014   .     S
O1029  Zn1037  1.927   .     S
O1030  Zn1040  1.929   .     S
O1031  Zn1038  1.926   .     S
O1032  Zn1039  1.935   .     S
O1033  Zn1040  1.930   .     S
O1034  Zn1037  1.922   .     S
O1035  Zn1038  1.935   .     S
O1036  Zn1039  1.930   .     S
C1041  C1051   1.437   .     S
C1041  O1111   1.270   .     A
C1041  O1113   1.270   .     A
C1042  C1070   1.406   .     A
C1042  C1043   1.395   .     A
C1042  H1096   1.080   .     S
C1043  C1066   1.485   .     S
C1043  C325    1.422   1_556 S
C1044  O1114   1.277   .     A
C1044  C1050   1.454   .     S
C1044  O1112   1.280   .     A
C1045  C1047   1.430   .     A
C1045  C1046   1.431   .     A
C1046  C1049   1.420   .     A
C1046  C1071   1.429   .     A
C1047  C1048   1.412   .     A
C1047  C1062   1.487   .     S
C1048  N1098   1.428   .     S
C1048  C1060   1.401   .     A
C1049  C1060   1.401   .     A
C1049  N1097   1.429   .     S
C1050  C1131   1.334   .     S
C1050  H1165   1.088   .     S
C1052  H1093   1.081   .     S
C1052  C1061   1.408   .     A
C1052  C1059   1.399   .     A
C1053  C1056   1.451   .     S
C1053  C1294   1.332   .     S
C1053  H1331   1.088   .     S
C1054  C1055   1.435   .     S
C1055  O1115   1.276   .     A
C1055  O1109   1.276   .     A
C1056  O1110   1.271   .     A
C1056  O1116   1.270   .     A
C1057  C1060   1.461   .     S
C1057  O1101   1.273   .     A
C1057  O1103   1.272   .     A
C1058  C1059   1.471   .     S
C1058  O1102   1.282   .     A
C1058  O1104   1.284   .     A
C1059  C1063   1.393   .     A
C1061  N1099   1.433   .     S
C1061  C1069   1.420   .     A
C1062  O1105   1.223   .     D
C1063  C1068   1.404   .     A
C1063  H1094   1.079   .     S
C1064  N1097   1.446   .     S
C1064  H1078   1.111   .     S
C1064  H1077   1.110   .     S
C1064  H1079   1.111   .     S
C1065  H1083   1.110   .     S
C1065  H1081   1.111   .     S
C1065  N1098   1.447   .     S
C1065  H1082   1.111   .     S
C1066  O1107   1.223   .     D
C1066  O1108   1.398   .     S
C1067  N1099   1.448   .     S
C1067  H1089   1.111   .     S
C1068  C1069   1.421   .     A
C1068  C1070   1.425   .     A
C1069  C353    1.401   1_556 S
C1070  C351    1.413   1_556 S
C1071  C1072   1.412   .     A
C1072  H1095   1.079   .     S
C1072  C1073   1.388   .     A
C1073  H1074   1.082   .     S
H1076  N1097   1.031   .     S
H1080  N1098   1.031   .     S
H1084  O1108   1.014   .     S
H1087  C1147   1.110   .     S
H1088  C1147   1.111   .     S
H1090  C1131   1.086   .     S
H1092  C1294   1.086   .     S
N1099  H366    1.031   1_556 S
O1100  Zn1119  1.931   .     S
O1100  Zn1118  1.941   .     S
O1100  Zn1117  1.957   .     S
O1100  Zn1120  1.934   .     S
O1101  Zn1118  1.929   .     S
O1102  Zn1120  1.938   .     S
O1103  Zn1119  1.934   .     S
O1104  Zn1117  1.926   .     S
O1106  C342    1.398   1_556 S
O1106  H1155   1.014   .     S
O1109  Zn1117  1.927   .     S
O1110  Zn1120  1.929   .     S
O1111  Zn1118  1.926   .     S
O1112  Zn1119  1.935   .     S
O1113  Zn1120  1.930   .     S
O1114  Zn1117  1.922   .     S
O1115  Zn1118  1.935   .     S
O1116  Zn1119  1.930   .     S
C1121  C1131   1.437   .     S
C1121  O1191   1.270   .     A
C1121  O1193   1.270   .     A
C1122  C1150   1.406   .     A
C1122  C1123   1.395   .     A
C1122  H1176   1.080   .     S
C1123  C1146   1.485   .     S
C1123  C405    1.422   1_556 S
C1124  O1194   1.277   .     A
C1124  C1130   1.454   .     S
C1124  O1192   1.280   .     A
C1125  C1127   1.430   .     A
C1125  C1126   1.431   .     A
C1126  C1129   1.420   .     A
C1126  C1151   1.429   .     A
C1127  C1128   1.412   .     A
C1127  C1142   1.487   .     S
C1128  N1178   1.428   .     S
C1128  C1140   1.401   .     A
C1129  C1140   1.401   .     A
C1129  N1177   1.429   .     S
C1130  C971    1.334   1_655 S
C1130  H1005   1.088   1_655 S
C1132  H1173   1.081   .     S
C1132  C1141   1.408   .     A
C1132  C1139   1.399   .     A
C1133  C1136   1.451   .     S
C1133  C1374   1.332   .     S
C1133  H1411   1.088   .     S
C1134  C1135   1.435   .     S
C1135  O1195   1.276   .     A
C1135  O1189   1.276   .     A
C1136  O1190   1.271   .     A
C1136  O1196   1.270   .     A
C1137  C1140   1.461   .     S
C1137  O1181   1.273   .     A
C1137  O1183   1.272   .     A
C1138  C1139   1.471   .     S
C1138  O1182   1.282   .     A
C1138  O1184   1.284   .     A
C1139  C1143   1.393   .     A
C1141  N1179   1.433   .     S
C1141  C1149   1.420   .     A
C1142  O1185   1.223   .     D
C1143  C1148   1.404   .     A
C1143  H1174   1.079   .     S
C1144  N1177   1.446   .     S
C1144  H1158   1.111   .     S
C1144  H1157   1.110   .     S
C1144  H1159   1.111   .     S
C1145  H1163   1.110   .     S
C1145  H1161   1.111   .     S
C1145  N1178   1.447   .     S
C1145  H1162   1.111   .     S
C1146  O1187   1.223   .     D
C1146  O1188   1.398   .     S
C1147  N1179   1.448   .     S
C1147  H1169   1.111   .     S
C1148  C1149   1.421   .     A
C1148  C1150   1.425   .     A
C1149  C433    1.401   1_556 S
C1150  C431    1.413   1_556 S
C1151  C1152   1.412   .     A
C1152  H1175   1.079   .     S
C1152  C1153   1.388   .     A
C1153  H1154   1.082   .     S
H1156  N1177   1.031   .     S
H1160  N1178   1.031   .     S
H1164  O1188   1.014   .     S
H1167  C987    1.110   1_655 S
H1168  C987    1.111   1_655 S
H1170  C971    1.086   1_655 S
H1172  C1374   1.086   .     S
N1179  H446    1.031   1_556 S
O1180  Zn1199  1.931   .     S
O1180  Zn1198  1.941   .     S
O1180  Zn1197  1.957   .     S
O1180  Zn1200  1.934   .     S
O1181  Zn1198  1.929   .     S
O1182  Zn1200  1.938   .     S
O1183  Zn1199  1.934   .     S
O1184  Zn1197  1.926   .     S
O1186  C422    1.398   1_556 S
O1186  H995    1.014   1_655 S
O1189  Zn1197  1.927   .     S
O1190  Zn1200  1.929   .     S
O1191  Zn1198  1.926   .     S
O1192  Zn1199  1.935   .     S
O1193  Zn1200  1.930   .     S
O1194  Zn1197  1.922   .     S
O1195  Zn1198  1.935   .     S
O1196  Zn1199  1.930   .     S
C1201  C1211   1.437   .     S
C1201  O1271   1.270   .     A
C1201  O1273   1.270   .     A
C1202  C1230   1.406   .     A
C1202  C1203   1.395   .     A
C1202  H1256   1.080   .     S
C1203  C1226   1.485   .     S
C1203  C485    1.422   1_556 S
C1204  O1274   1.277   .     A
C1204  C1210   1.454   .     S
C1204  O1272   1.280   .     A
C1205  C1207   1.430   .     A
C1205  C1206   1.431   .     A
C1206  C1209   1.420   .     A
C1206  C1231   1.429   .     A
C1207  C1208   1.412   .     A
C1207  C1222   1.487   .     S
C1208  N1258   1.428   .     S
C1208  C1220   1.401   .     A
C1209  C1220   1.401   .     A
C1209  N1257   1.429   .     S
C1210  C1291   1.334   .     S
C1210  H1325   1.088   .     S
C1211  C1370   1.334   1_455 S
C1211  H1410   1.086   1_455 S
C1212  H1253   1.081   .     S
C1212  C1221   1.408   .     A
C1212  C1219   1.399   .     A
C1213  C1216   1.451   .     S
C1213  C734    1.332   1_565 S
C1213  H771    1.088   1_565 S
C1214  C1215   1.435   .     S
C1215  O1275   1.276   .     A
C1215  O1269   1.276   .     A
C1216  O1270   1.271   .     A
C1216  O1276   1.270   .     A
C1217  C1220   1.461   .     S
C1217  O1261   1.273   .     A
C1217  O1263   1.272   .     A
C1218  C1219   1.471   .     S
C1218  O1262   1.282   .     A
C1218  O1264   1.284   .     A
C1219  C1223   1.393   .     A
C1221  N1259   1.433   .     S
C1221  C1229   1.420   .     A
C1222  O1265   1.223   .     D
C1223  C1228   1.404   .     A
C1223  H1254   1.079   .     S
C1224  N1257   1.446   .     S
C1224  H1238   1.111   .     S
C1224  H1237   1.110   .     S
C1224  H1239   1.111   .     S
C1225  H1243   1.110   .     S
C1225  H1241   1.111   .     S
C1225  N1258   1.447   .     S
C1225  H1242   1.111   .     S
C1226  O1267   1.223   .     D
C1226  O1268   1.398   .     S
C1227  N1259   1.448   .     S
C1227  H1249   1.111   .     S
C1227  H1407   1.110   1_455 S
C1227  H1408   1.111   1_455 S
C1228  C1229   1.421   .     A
C1228  C1230   1.425   .     A
C1229  C513    1.401   1_556 S
C1230  C511    1.413   1_556 S
C1231  C1232   1.412   .     A
C1232  H1255   1.079   .     S
C1232  C1233   1.388   .     A
C1233  H1234   1.082   .     S
H1235  O1426   1.014   1_455 S
H1236  N1257   1.031   .     S
H1240  N1258   1.031   .     S
H1244  O1268   1.014   .     S
H1245  C1370   1.088   1_455 S
H1247  C1307   1.110   .     S
H1248  C1307   1.111   .     S
H1250  C1291   1.086   .     S
H1252  C734    1.086   1_565 S
N1259  H526    1.031   1_556 S
O1260  Zn1279  1.931   .     S
O1260  Zn1278  1.941   .     S
O1260  Zn1277  1.957   .     S
O1260  Zn1280  1.934   .     S
O1261  Zn1278  1.929   .     S
O1262  Zn1280  1.938   .     S
O1263  Zn1279  1.934   .     S
O1264  Zn1277  1.926   .     S
O1266  C502    1.398   1_556 S
O1266  H1315   1.014   .     S
O1269  Zn1277  1.927   .     S
O1270  Zn1280  1.929   .     S
O1271  Zn1278  1.926   .     S
O1272  Zn1279  1.935   .     S
O1273  Zn1280  1.930   .     S
O1274  Zn1277  1.922   .     S
O1275  Zn1278  1.935   .     S
O1276  Zn1279  1.930   .     S
C1281  C1291   1.437   .     S
C1281  O1351   1.270   .     A
C1281  O1353   1.270   .     A
C1282  C1310   1.406   .     A
C1282  C1283   1.395   .     A
C1282  H1336   1.080   .     S
C1283  C1306   1.485   .     S
C1283  C565    1.422   1_556 S
C1284  O1354   1.277   .     A
C1284  C1290   1.454   .     S
C1284  O1352   1.280   .     A
C1285  C1287   1.430   .     A
C1285  C1286   1.431   .     A
C1286  C1289   1.420   .     A
C1286  C1311   1.429   .     A
C1287  C1288   1.412   .     A
C1287  C1302   1.487   .     S
C1288  N1338   1.428   .     S
C1288  C1300   1.401   .     A
C1289  C1300   1.401   .     A
C1289  N1337   1.429   .     S
C1290  C1371   1.334   .     S
C1290  H1405   1.088   .     S
C1292  H1333   1.081   .     S
C1292  C1301   1.408   .     A
C1292  C1299   1.399   .     A
C1293  C1296   1.451   .     S
C1293  C814    1.332   1_565 S
C1293  H851    1.088   1_565 S
C1294  C1295   1.435   .     S
C1295  O1355   1.276   .     A
C1295  O1349   1.276   .     A
C1296  O1350   1.271   .     A
C1296  O1356   1.270   .     A
C1297  C1300   1.461   .     S
C1297  O1341   1.273   .     A
C1297  O1343   1.272   .     A
C1298  C1299   1.471   .     S
C1298  O1342   1.282   .     A
C1298  O1344   1.284   .     A
C1299  C1303   1.393   .     A
C1301  N1339   1.433   .     S
C1301  C1309   1.420   .     A
C1302  O1345   1.223   .     D
C1303  C1308   1.404   .     A
C1303  H1334   1.079   .     S
C1304  N1337   1.446   .     S
C1304  H1318   1.111   .     S
C1304  H1317   1.110   .     S
C1304  H1319   1.111   .     S
C1305  H1323   1.110   .     S
C1305  H1321   1.111   .     S
C1305  N1338   1.447   .     S
C1305  H1322   1.111   .     S
C1306  O1347   1.223   .     D
C1306  O1348   1.398   .     S
C1307  N1339   1.448   .     S
C1307  H1329   1.111   .     S
C1308  C1309   1.421   .     A
C1308  C1310   1.425   .     A
C1309  C593    1.401   1_556 S
C1310  C591    1.413   1_556 S
C1311  C1312   1.412   .     A
C1312  H1335   1.079   .     S
C1312  C1313   1.388   .     A
C1313  H1314   1.082   .     S
H1316  N1337   1.031   .     S
H1320  N1338   1.031   .     S
H1324  O1348   1.014   .     S
H1327  C1387   1.110   .     S
H1328  C1387   1.111   .     S
H1330  C1371   1.086   .     S
H1332  C814    1.086   1_565 S
N1339  H606    1.031   1_556 S
O1340  Zn1359  1.931   .     S
O1340  Zn1358  1.941   .     S
O1340  Zn1357  1.957   .     S
O1340  Zn1360  1.934   .     S
O1341  Zn1358  1.929   .     S
O1342  Zn1360  1.938   .     S
O1343  Zn1359  1.934   .     S
O1344  Zn1357  1.926   .     S
O1346  C582    1.398   1_556 S
O1346  H1395   1.014   .     S
O1349  Zn1357  1.927   .     S
O1350  Zn1360  1.929   .     S
O1351  Zn1358  1.926   .     S
O1352  Zn1359  1.935   .     S
O1353  Zn1360  1.930   .     S
O1354  Zn1357  1.922   .     S
O1355  Zn1358  1.935   .     S
O1356  Zn1359  1.930   .     S
C1361  C1371   1.437   .     S
C1361  O1431   1.270   .     A
C1361  O1433   1.270   .     A
C1362  C1390   1.406   .     A
C1362  C1363   1.395   .     A
C1362  H1416   1.080   .     S
C1363  C1386   1.485   .     S
C1363  C645    1.422   1_556 S
C1364  O1434   1.277   .     A
C1364  C1370   1.454   .     S
C1364  O1432   1.280   .     A
C1365  C1367   1.430   .     A
C1365  C1366   1.431   .     A
C1366  C1369   1.420   .     A
C1366  C1391   1.429   .     A
C1367  C1368   1.412   .     A
C1367  C1382   1.487   .     S
C1368  N1418   1.428   .     S
C1368  C1380   1.401   .     A
C1369  C1380   1.401   .     A
C1369  N1417   1.429   .     S
C1370  C1211   1.334   1_655 S
C1370  H1245   1.088   1_655 S
C1372  H1413   1.081   .     S
C1372  C1381   1.408   .     A
C1372  C1379   1.399   .     A
C1373  C1376   1.451   .     S
C1373  C894    1.332   1_565 S
C1373  H931    1.088   1_565 S
C1374  C1375   1.435   .     S
C1375  O1435   1.276   .     A
C1375  O1429   1.276   .     A
C1376  O1430   1.271   .     A
C1376  O1436   1.270   .     A
C1377  C1380   1.461   .     S
C1377  O1421   1.273   .     A
C1377  O1423   1.272   .     A
C1378  C1379   1.471   .     S
C1378  O1422   1.282   .     A
C1378  O1424   1.284   .     A
C1379  C1383   1.393   .     A
C1381  N1419   1.433   .     S
C1381  C1389   1.420   .     A
C1382  O1425   1.223   .     D
C1383  C1388   1.404   .     A
C1383  H1414   1.079   .     S
C1384  N1417   1.446   .     S
C1384  H1398   1.111   .     S
C1384  H1397   1.110   .     S
C1384  H1399   1.111   .     S
C1385  H1403   1.110   .     S
C1385  H1401   1.111   .     S
C1385  N1418   1.447   .     S
C1385  H1402   1.111   .     S
C1386  O1427   1.223   .     D
C1386  O1428   1.398   .     S
C1387  N1419   1.448   .     S
C1387  H1409   1.111   .     S
C1388  C1389   1.421   .     A
C1388  C1390   1.425   .     A
C1389  C673    1.401   1_556 S
C1390  C671    1.413   1_556 S
C1391  C1392   1.412   .     A
C1392  H1415   1.079   .     S
C1392  C1393   1.388   .     A
C1393  H1394   1.082   .     S
H1396  N1417   1.031   .     S
H1400  N1418   1.031   .     S
H1404  O1428   1.014   .     S
H1407  C1227   1.110   1_655 S
H1408  C1227   1.111   1_655 S
H1410  C1211   1.086   1_655 S
H1412  C894    1.086   1_565 S
N1419  H686    1.031   1_556 S
O1420  Zn1439  1.931   .     S
O1420  Zn1438  1.941   .     S
O1420  Zn1437  1.957   .     S
O1420  Zn1440  1.934   .     S
O1421  Zn1438  1.929   .     S
O1422  Zn1440  1.938   .     S
O1423  Zn1439  1.934   .     S
O1424  Zn1437  1.926   .     S
O1426  C662    1.398   1_556 S
O1426  H1235   1.014   1_655 S
O1429  Zn1437  1.927   .     S
O1430  Zn1440  1.929   .     S
O1431  Zn1438  1.926   .     S
O1432  Zn1439  1.935   .     S
O1433  Zn1440  1.930   .     S
O1434  Zn1437  1.922   .     S
O1435  Zn1438  1.935   .     S
O1436  Zn1439  1.930   .     S
