data_str_m1_o1_o17_pcu_sym.55
_audit_creation_date              2020-01-03
_audit_creation_method            'Materials Studio'
_symmetry_space_group_name_H-M    'P1'
_symmetry_Int_Tables_number       1
_symmetry_cell_setting            triclinic
loop_
_symmetry_equiv_pos_as_xyz
  x,y,z
_cell_length_a                    36.7502
_cell_length_b                    36.7774
_cell_length_c                    34.2046
_cell_angle_alpha                 89.9470
_cell_angle_beta                  89.9525
_cell_angle_gamma                 90.2318
loop_
_atom_site_label
_atom_site_type_symbol
_atom_site_fract_x
_atom_site_fract_y
_atom_site_fract_z
_atom_site_U_iso_or_equiv
_atom_site_adp_type
_atom_site_occupancy
C1     C     0.01797   0.27676   0.41794   0.00000  Uiso   1.00
C2     C     0.23356   0.47155   0.08168   0.00000  Uiso   1.00
C3     C     0.22211   0.48298   0.54120   0.00000  Uiso   1.00
C4     C     0.01743   0.27764   0.45870   0.00000  Uiso   1.00
C5     C     0.47919   0.22286   0.54110   0.00000  Uiso   1.00
C6     C     0.22112   0.48408   0.45924   0.00000  Uiso   1.00
C7     C     0.27696   0.02144   0.54107   0.00000  Uiso   1.00
C8     C     0.23324   0.47181   0.95889   0.00000  Uiso   1.00
C9     C     0.27069   0.02711   0.04105   0.00000  Uiso   1.00
C10    C     0.02944   0.26509   0.95911   0.00000  Uiso   1.00
C11    C     0.47173   0.23099   0.04127   0.00000  Uiso   1.00
C12    C     0.27067   0.02731   0.95887   0.00000  Uiso   1.00
C13    C     0.47154   0.23243   0.91820   0.00000  Uiso   1.00
C14    C     0.23479   0.47059   0.04087   0.00000  Uiso   1.00
C15    C     0.47114   0.23207   0.95909   0.00000  Uiso   1.00
C16    C     0.02927   0.26532   0.04122   0.00000  Uiso   1.00
C17    C     0.09840   0.34825   0.24962   0.00000  Uiso   1.00
C18    C     0.40198   0.15216   0.75062   0.00000  Uiso   1.00
C19    C     0.15135   0.09775   0.25130   0.00000  Uiso   1.00
C20    C     0.34815   0.40196   0.74827   0.00000  Uiso   1.00
C21    C     0.40184   0.15162   0.25022   0.00000  Uiso   1.00
C22    C     0.09781   0.34800   0.75008   0.00000  Uiso   1.00
C23    C     0.34782   0.40143   0.24868   0.00000  Uiso   1.00
C24    C     0.02855   0.26571   0.08202   0.00000  Uiso   1.00
C25    C     0.15221   0.09840   0.75184   0.00000  Uiso   1.00
C26    C     0.09878   0.15235   0.75147   0.00000  Uiso   1.00
C27    C     0.40181   0.34802   0.24833   0.00000  Uiso   1.00
C28    C     0.15146   0.40198   0.74995   0.00000  Uiso   1.00
C29    C     0.34819   0.09770   0.25024   0.00000  Uiso   1.00
C30    C     0.40227   0.34869   0.74837   0.00000  Uiso   1.00
C31    C     0.09783   0.15166   0.25168   0.00000  Uiso   1.00
C32    C     0.34831   0.09819   0.74998   0.00000  Uiso   1.00
C33    C     0.15215   0.40211   0.24961   0.00000  Uiso   1.00
C34    C     0.49849   0.25003   0.47937   0.00000  Uiso   1.00
C35    C     0.23186   0.47317   0.91814   0.00000  Uiso   1.00
C36    C     0.49836   0.25023   0.52037   0.00000  Uiso   1.00
C37    C     0.24939   0.00223   0.47959   0.00000  Uiso   1.00
C38    C     0.24955   0.00217   0.52058   0.00000  Uiso   1.00
C39    C     0.25202   0.49951   0.97944   0.00000  Uiso   1.00
C40    C     0.25234   0.49920   0.02043   0.00000  Uiso   1.00
C41    C     0.00031   0.24850   0.97965   0.00000  Uiso   1.00
C42    C     0.00037   0.24837   0.02067   0.00000  Uiso   1.00
C43    C     0.40458   0.18010   0.45343   0.00000  Uiso   1.00
C44    C     0.38525   0.15170   0.42819   0.00000  Uiso   1.00
C45    C     0.34675   0.16356   0.41765   0.00000  Uiso   1.00
C46    C     0.27001   0.02674   0.08193   0.00000  Uiso   1.00
C47    C     0.01986   0.36385   0.54179   0.00000  Uiso   1.00
C48    C     0.03750   0.40003   0.55268   0.00000  Uiso   1.00
C49    C     0.00941   0.43037   0.55555   0.00000  Uiso   1.00
C50    C     0.35984   0.03605   0.44767   0.00000  Uiso   1.00
C51    C     0.39193   0.03886   0.47609   0.00000  Uiso   1.00
C52    C     0.42535   0.01926   0.46020   0.00000  Uiso   1.00
C53    C     0.16495   0.41326   0.53915   0.00000  Uiso   1.00
C54    C     0.13999   0.39776   0.57086   0.00000  Uiso   1.00
C55    C     0.13240   0.35736   0.56466   0.00000  Uiso   1.00
C56    C     0.08568   0.33194   0.45254   0.00000  Uiso   1.00
C57    C     0.02849   0.26612   0.91827   0.00000  Uiso   1.00
C58    C     0.10184   0.36940   0.44367   0.00000  Uiso   1.00
C59    C     0.14082   0.36694   0.42869   0.00000  Uiso   1.00
C60    C     0.45899   0.13744   0.54392   0.00000  Uiso   1.00
C61    C     0.43815   0.11126   0.57061   0.00000  Uiso   1.00
C62    C     0.45679   0.07433   0.57304   0.00000  Uiso   1.00
C63    C     0.13592   0.48413   0.45796   0.00000  Uiso   1.00
C64    C     0.09831   0.46799   0.45001   0.00000  Uiso   1.00
C65    C     0.06984   0.49764   0.44447   0.00000  Uiso   1.00
C66    C     0.31796   0.09435   0.55284   0.00000  Uiso   1.00
C67    C     0.32842   0.12428   0.52373   0.00000  Uiso   1.00
C68    C     0.47176   0.23199   0.08214   0.00000  Uiso   1.00
C69    C     0.32124   0.16198   0.54065   0.00000  Uiso   1.00
C70    C     0.16469   0.41287   0.96205   0.00000  Uiso   1.00
C71    C     0.14915   0.38854   0.92990   0.00000  Uiso   1.00
C72    C     0.10930   0.37917   0.93747   0.00000  Uiso   1.00
C73    C     0.28859   0.11306   0.04309   0.00000  Uiso   1.00
C74    C     0.30801   0.13970   0.07038   0.00000  Uiso   1.00
C75    C     0.28859   0.17628   0.07180   0.00000  Uiso   1.00
C76    C     0.11604   0.26688   0.95718   0.00000  Uiso   1.00
C77    C     0.15204   0.28499   0.94608   0.00000  Uiso   1.00
C78    C     0.18262   0.25725   0.94235   0.00000  Uiso   1.00
C79    C     0.49960   0.24940   0.39797   0.00000  Uiso   1.00
C80    C     0.42640   0.16105   0.05299   0.00000  Uiso   1.00
C81    C     0.41670   0.13204   0.02259   0.00000  Uiso   1.00
C82    C     0.42387   0.09391   0.03844   0.00000  Uiso   1.00
C83    C     0.34467   0.07018   0.95267   0.00000  Uiso   1.00
C84    C     0.36386   0.09868   0.92736   0.00000  Uiso   1.00
C85    C     0.40224   0.08684   0.91635   0.00000  Uiso   1.00
C86    C     0.23759   0.38546   0.04179   0.00000  Uiso   1.00
C87    C     0.22308   0.34678   0.03672   0.00000  Uiso   1.00
C88    C     0.25326   0.31867   0.04082   0.00000  Uiso   1.00
C89    C     0.38428   0.22559   0.95930   0.00000  Uiso   1.00
C90    C     0.49956   0.24997   0.60186   0.00000  Uiso   1.00
C91    C     0.34988   0.20683   0.94426   0.00000  Uiso   1.00
C92    C     0.31752   0.23273   0.94414   0.00000  Uiso   1.00
C93    C     0.08613   0.33058   0.04830   0.00000  Uiso   1.00
C94    C     0.12401   0.34522   0.05809   0.00000  Uiso   1.00
C95    C     0.12267   0.38335   0.07543   0.00000  Uiso   1.00
C96    C     0.10404   0.46487   0.27654   0.00000  Uiso   1.00
C97    C     0.08027   0.44564   0.30757   0.00000  Uiso   1.00
C98    C     0.07335   0.47037   0.34250   0.00000  Uiso   1.00
C99    C     0.40600   0.05007   0.80584   0.00000  Uiso   1.00
C100   C     0.44001   0.02633   0.80733   0.00000  Uiso   1.00
C101   C     0.24985   0.00058   0.39813   0.00000  Uiso   1.00
C102   C     0.45378   0.02117   0.84903   0.00000  Uiso   1.00
C103   C     0.03505   0.10250   0.27341   0.00000  Uiso   1.00
C104   C     0.02228   0.06341   0.28034   0.00000  Uiso   1.00
C105   C     0.00624   0.05871   0.32121   0.00000  Uiso   1.00
C106   C     0.44502   0.39710   0.81418   0.00000  Uiso   1.00
C107   C     0.48421   0.39882   0.82867   0.00000  Uiso   1.00
C108   C     0.48584   0.40183   0.87312   0.00000  Uiso   1.00
C109   C     0.40294   0.04068   0.28298   0.00000  Uiso   1.00
C110   C     0.40007   0.49939   0.28541   0.00000  Uiso   1.00
C111   C     0.40972   0.48539   0.32609   0.00000  Uiso   1.00
C112   C     0.47958   0.22343   0.58199   0.00000  Uiso   1.00
C113   C     0.25056   0.00037   0.60199   0.00000  Uiso   1.00
C114   C     0.11318   0.44786   0.81701   0.00000  Uiso   1.00
C115   C     0.07863   0.43973   0.84055   0.00000  Uiso   1.00
C116   C     0.07939   0.45906   0.88005   0.00000  Uiso   1.00
C117   C     0.46233   0.41775   0.24246   0.00000  Uiso   1.00
C118   C     0.47397   0.44977   0.21648   0.00000  Uiso   1.00
C119   C     0.49971   0.47580   0.23747   0.00000  Uiso   1.00
C120   C     0.05803   0.11319   0.82358   0.00000  Uiso   1.00
C121   C     0.01903   0.11426   0.83929   0.00000  Uiso   1.00
C122   C     0.01827   0.11699   0.88377   0.00000  Uiso   1.00
C123   C     0.08342   0.03697   0.75540   0.00000  Uiso   1.00
C124   C     0.25021   0.00056   0.89802   0.00000  Uiso   1.00
C125   C     0.05172   0.02328   0.78066   0.00000  Uiso   1.00
C126   C     0.02800   0.49582   0.75912   0.00000  Uiso   1.00
C127   C     0.38277   0.43764   0.17243   0.00000  Uiso   1.00
C128   C     0.38179   0.47540   0.15359   0.00000  Uiso   1.00
C129   C     0.37210   0.47326   0.11028   0.00000  Uiso   1.00
C130   C     0.03454   0.39620   0.72613   0.00000  Uiso   1.00
C131   C     0.05554   0.41561   0.69284   0.00000  Uiso   1.00
C132   C     0.03029   0.42565   0.65926   0.00000  Uiso   1.00
C133   C     0.44683   0.09928   0.19006   0.00000  Uiso   1.00
C134   C     0.48617   0.09609   0.17610   0.00000  Uiso   1.00
C135   C     0.25072   0.49970   0.10188   0.00000  Uiso   1.00
C136   C     0.48815   0.09023   0.13200   0.00000  Uiso   1.00
C137   C     0.39568   0.46522   0.72487   0.00000  Uiso   1.00
C138   C     0.43477   0.46829   0.70973   0.00000  Uiso   1.00
C139   C     0.43622   0.48884   0.67094   0.00000  Uiso   1.00
C140   C     0.10471   0.05532   0.18435   0.00000  Uiso   1.00
C141   C     0.10333   0.01616   0.16976   0.00000  Uiso   1.00
C142   C     0.10293   0.01449   0.12520   0.00000  Uiso   1.00
C143   C     0.45791   0.09684   0.71561   0.00000  Uiso   1.00
C144   C     0.49924   0.09543   0.71260   0.00000  Uiso   1.00
C145   C     0.01155   0.08510   0.67150   0.00000  Uiso   1.00
C146   C     0.49983   0.24973   0.89814   0.00000  Uiso   1.00
C147   C     0.05129   0.38835   0.18512   0.00000  Uiso   1.00
C148   C     0.05994   0.42326   0.16243   0.00000  Uiso   1.00
C149   C     0.04158   0.42329   0.12233   0.00000  Uiso   1.00
C150   C     0.35226   0.20661   0.79014   0.00000  Uiso   1.00
C151   C     0.33267   0.24276   0.79505   0.00000  Uiso   1.00
C152   C     0.33048   0.25385   0.83793   0.00000  Uiso   1.00
C153   C     0.14060   0.30083   0.31290   0.00000  Uiso   1.00
C154   C     0.17654   0.30961   0.33369   0.00000  Uiso   1.00
C155   C     0.17951   0.28957   0.37277   0.00000  Uiso   1.00
C156   C     0.28738   0.33157   0.74698   0.00000  Uiso   1.00
C157   C     0.49979   0.24960   0.10207   0.00000  Uiso   1.00
C158   C     0.27992   0.29654   0.72359   0.00000  Uiso   1.00
C159   C     0.24443   0.27799   0.73538   0.00000  Uiso   1.00
C160   C     0.19188   0.13750   0.32324   0.00000  Uiso   1.00
C161   C     0.23080   0.13650   0.33906   0.00000  Uiso   1.00
C162   C     0.23140   0.13426   0.38358   0.00000  Uiso   1.00
C163   C     0.14756   0.28558   0.77331   0.00000  Uiso   1.00
C164   C     0.17160   0.30523   0.80374   0.00000  Uiso   1.00
C165   C     0.17984   0.28060   0.83845   0.00000  Uiso   1.00
C166   C     0.34320   0.19997   0.30546   0.00000  Uiso   1.00
C167   C     0.30792   0.22189   0.30568   0.00000  Uiso   1.00
C168   C     0.45926   0.19598   0.47960   0.00000  Uiso   1.00
C169   C     0.29419   0.22871   0.34713   0.00000  Uiso   1.00
C170   C     0.21583   0.14644   0.77301   0.00000  Uiso   1.00
C171   C     0.22347   0.18603   0.78399   0.00000  Uiso   1.00
C172   C     0.24429   0.18868   0.82246   0.00000  Uiso   1.00
C173   C     0.30700   0.35722   0.31862   0.00000  Uiso   1.00
C174   C     0.26821   0.35366   0.33420   0.00000  Uiso   1.00
C175   C     0.26700   0.35724   0.37862   0.00000  Uiso   1.00
C176   C     0.34972   0.28635   0.22860   0.00000  Uiso   1.00
C177   C     0.31142   0.29413   0.21290   0.00000  Uiso   1.00
C178   C     0.30139   0.26838   0.17963   0.00000  Uiso   1.00
C179   C     0.03304   0.30715   0.51995   0.00000  Uiso   1.00
C180   C     0.14943   0.19719   0.68702   0.00000  Uiso   1.00
C181   C     0.15417   0.23685   0.67466   0.00000  Uiso   1.00
C182   C     0.16188   0.24027   0.63098   0.00000  Uiso   1.00
C183   C     0.29243   0.15030   0.21427   0.00000  Uiso   1.00
C184   C     0.25113   0.15235   0.21111   0.00000  Uiso   1.00
C185   C     0.23908   0.16076   0.16942   0.00000  Uiso   1.00
C186   C     0.18960   0.36280   0.67812   0.00000  Uiso   1.00
C187   C     0.22745   0.35959   0.65994   0.00000  Uiso   1.00
C188   C     0.22858   0.37336   0.61794   0.00000  Uiso   1.00
C189   C     0.16686   0.21246   0.25231   0.00000  Uiso   1.00
C190   C     0.30476   0.03970   0.47937   0.00000  Uiso   1.00
C191   C     0.19931   0.22593   0.27640   0.00000  Uiso   1.00
C192   C     0.22279   0.25294   0.25392   0.00000  Uiso   1.00
C193   C     0.36309   0.30903   0.67602   0.00000  Uiso   1.00
C194   C     0.36101   0.27055   0.65920   0.00000  Uiso   1.00
C195   C     0.36534   0.27065   0.61484   0.00000  Uiso   1.00
C196   C     0.21400   0.35692   0.21828   0.00000  Uiso   1.00
C197   C     0.19337   0.33655   0.18559   0.00000  Uiso   1.00
C198   C     0.21380   0.33894   0.14685   0.00000  Uiso   1.00
C199   C     0.30236   0.15264   0.69169   0.00000  Uiso   1.00
C200   C     0.27815   0.18578   0.68536   0.00000  Uiso   1.00
C201   C     0.19342   0.46603   0.52101   0.00000  Uiso   1.00
C202   C     0.27644   0.19653   0.64230   0.00000  Uiso   1.00
C203   C     0.03459   0.30617   0.47900   0.00000  Uiso   1.00
C204   C     0.22217   0.48271   0.41845   0.00000  Uiso   1.00
C205   C     0.46002   0.19553   0.52072   0.00000  Uiso   1.00
C206   C     0.19197   0.46830   0.48005   0.00000  Uiso   1.00
C207   C     0.30362   0.04145   0.52034   0.00000  Uiso   1.00
C208   C     0.21697   0.44274   0.97918   0.00000  Uiso   1.00
C209   C     0.28930   0.05481   0.02056   0.00000  Uiso   1.00
C210   C     0.05927   0.27969   0.97972   0.00000  Uiso   1.00
C211   C     0.44356   0.21319   0.02068   0.00000  Uiso   1.00
C212   C     0.29026   0.05423   0.97945   0.00000  Uiso   1.00
C213   C     0.21949   0.44123   0.02013   0.00000  Uiso   1.00
C214   C     0.44219   0.21563   0.97973   0.00000  Uiso   1.00
C215   C     0.27702   0.02035   0.58196   0.00000  Uiso   1.00
C216   C     0.05861   0.28099   0.02071   0.00000  Uiso   1.00
C217   C     0.24999   0.00007   0.35582   0.00000  Uiso   1.00
C218   C     0.25040   0.00006   0.64423   0.00000  Uiso   1.00
C219   C     0.49993   0.24957   0.35576   0.00000  Uiso   1.00
C220   C     0.49995   0.24994   0.64417   0.00000  Uiso   1.00
C221   C     0.49987   0.24996   0.85582   0.00000  Uiso   1.00
C222   C     0.49977   0.24995   0.14426   0.00000  Uiso   1.00
C223   C     0.25002   0.00038   0.85578   0.00000  Uiso   1.00
C224   C     0.25010   0.49995   0.14418   0.00000  Uiso   1.00
C225   C     0.17976   0.06993   0.25029   0.00000  Uiso   1.00
C226   C     0.48001   0.22268   0.41803   0.00000  Uiso   1.00
C227   C     0.31990   0.42980   0.74991   0.00000  Uiso   1.00
C228   C     0.42991   0.17990   0.25003   0.00000  Uiso   1.00
C229   C     0.06996   0.31997   0.75002   0.00000  Uiso   1.00
C230   C     0.31995   0.42977   0.24968   0.00000  Uiso   1.00
C231   C     0.17994   0.07005   0.75026   0.00000  Uiso   1.00
C232   C     0.07014   0.32010   0.24993   0.00000  Uiso   1.00
C233   C     0.43000   0.18006   0.75011   0.00000  Uiso   1.00
C234   C     0.17976   0.43004   0.74987   0.00000  Uiso   1.00
C235   C     0.32011   0.06983   0.25016   0.00000  Uiso   1.00
C236   C     0.43009   0.32027   0.74961   0.00000  Uiso   1.00
C237   C     0.01800   0.27727   0.58154   0.00000  Uiso   1.00
C238   C     0.07003   0.17994   0.25027   0.00000  Uiso   1.00
C239   C     0.32014   0.07005   0.74992   0.00000  Uiso   1.00
C240   C     0.17997   0.43013   0.25006   0.00000  Uiso   1.00
C241   C     0.07029   0.18010   0.75035   0.00000  Uiso   1.00
C242   C     0.43001   0.32013   0.24982   0.00000  Uiso   1.00
C243   C     0.11554   0.41152   0.24292   0.00000  Uiso   1.00
C244   C     0.38470   0.08899   0.75850   0.00000  Uiso   1.00
C245   C     0.08860   0.11565   0.24172   0.00000  Uiso   1.00
C246   C     0.41047   0.38425   0.76095   0.00000  Uiso   1.00
C247   C     0.38476   0.08804   0.24544   0.00000  Uiso   1.00
C248   C     0.27652   0.02042   0.41797   0.00000  Uiso   1.00
C249   C     0.11619   0.40986   0.76392   0.00000  Uiso   1.00
C250   C     0.40997   0.38327   0.23441   0.00000  Uiso   1.00
C251   C     0.09081   0.11768   0.76707   0.00000  Uiso   1.00
C252   C     0.11666   0.08995   0.76463   0.00000  Uiso   1.00
C253   C     0.38193   0.40874   0.23134   0.00000  Uiso   1.00
C254   C     0.08858   0.38426   0.75882   0.00000  Uiso   1.00
C255   C     0.41111   0.11530   0.24137   0.00000  Uiso   1.00
C256   C     0.38439   0.41148   0.75705   0.00000  Uiso   1.00
C257   C     0.11591   0.08964   0.23813   0.00000  Uiso   1.00
C258   C     0.41182   0.11556   0.75448   0.00000  Uiso   1.00
C259   C     0.22337   0.48176   0.58195   0.00000  Uiso   1.00
C260   C     0.08989   0.38402   0.23766   0.00000  Uiso   1.00
C261   C     0.36527   0.16184   0.74716   0.00000  Uiso   1.00
C262   C     0.13434   0.33971   0.26090   0.00000  Uiso   1.00
C263   C     0.33953   0.36619   0.73629   0.00000  Uiso   1.00
C264   C     0.15927   0.13240   0.26680   0.00000  Uiso   1.00
C265   C     0.13406   0.33910   0.74107   0.00000  Uiso   1.00
C266   C     0.36544   0.16071   0.25886   0.00000  Uiso   1.00
C267   C     0.16158   0.13447   0.74204   0.00000  Uiso   1.00
C268   C     0.34019   0.36649   0.26352   0.00000  Uiso   1.00
C269   C     0.36599   0.33907   0.25938   0.00000  Uiso   1.00
C270   C     0.26979   0.02729   0.91799   0.00000  Uiso   1.00
C271   C     0.13431   0.16066   0.73853   0.00000  Uiso   1.00
C272   C     0.33836   0.13421   0.25462   0.00000  Uiso   1.00
C273   C     0.15925   0.36694   0.73562   0.00000  Uiso   1.00
C274   C     0.13345   0.16016   0.26405   0.00000  Uiso   1.00
C275   C     0.36752   0.34064   0.73309   0.00000  Uiso   1.00
C276   C     0.16179   0.36545   0.25537   0.00000  Uiso   1.00
C277   C     0.33908   0.13466   0.74202   0.00000  Uiso   1.00
C278   C     0.47927   0.22259   0.45892   0.00000  Uiso   1.00
C279   C     0.01688   0.27823   0.54073   0.00000  Uiso   1.00
C280   C     0.27715   0.02085   0.45887   0.00000  Uiso   1.00
H281   H     0.03194   0.29770   0.40133   0.00000  Uiso   1.00
H282   H     0.21968   0.45030   0.09796   0.00000  Uiso   1.00
H283   H     0.40667   0.08855   0.06456   0.00000  Uiso   1.00
H284   H     0.34527   0.04361   0.93700   0.00000  Uiso   1.00
H285   H     0.35956   0.06753   0.98085   0.00000  Uiso   1.00
H286   H     0.34792   0.10313   0.90016   0.00000  Uiso   1.00
H287   H     0.36541   0.12477   0.94355   0.00000  Uiso   1.00
H288   H     0.41907   0.08305   0.94295   0.00000  Uiso   1.00
H289   H     0.41519   0.10800   0.89772   0.00000  Uiso   1.00
H290   H     0.40118   0.06097   0.89973   0.00000  Uiso   1.00
H291   H     0.25045   0.38811   0.07107   0.00000  Uiso   1.00
H292   H     0.25914   0.39000   0.01915   0.00000  Uiso   1.00
H293   H     0.44975   0.21972   0.90171   0.00000  Uiso   1.00
H294   H     0.20200   0.34133   0.05914   0.00000  Uiso   1.00
H295   H     0.21038   0.34409   0.00737   0.00000  Uiso   1.00
H296   H     0.27448   0.32311   0.01815   0.00000  Uiso   1.00
H297   H     0.24167   0.29096   0.03703   0.00000  Uiso   1.00
H298   H     0.26587   0.32046   0.07027   0.00000  Uiso   1.00
H299   H     0.39127   0.24862   0.93945   0.00000  Uiso   1.00
H300   H     0.37837   0.23650   0.98906   0.00000  Uiso   1.00
H301   H     0.35465   0.19669   0.91408   0.00000  Uiso   1.00
H302   H     0.34328   0.18330   0.96344   0.00000  Uiso   1.00
H303   H     0.31108   0.24153   0.97443   0.00000  Uiso   1.00
H304   H     0.05050   0.27796   0.09861   0.00000  Uiso   1.00
H305   H     0.29332   0.21868   0.93182   0.00000  Uiso   1.00
H306   H     0.32360   0.25707   0.92600   0.00000  Uiso   1.00
H307   H     0.06775   0.33480   0.07373   0.00000  Uiso   1.00
H308   H     0.07531   0.34613   0.02287   0.00000  Uiso   1.00
H309   H     0.13734   0.32686   0.07954   0.00000  Uiso   1.00
H310   H     0.14066   0.34566   0.03097   0.00000  Uiso   1.00
H311   H     0.10769   0.40211   0.05577   0.00000  Uiso   1.00
H312   H     0.15072   0.39382   0.07959   0.00000  Uiso   1.00
H313   H     0.10942   0.38242   0.10454   0.00000  Uiso   1.00
H314   H     0.09311   0.49262   0.27171   0.00000  Uiso   1.00
H315   H     0.21736   0.45249   0.90171   0.00000  Uiso   1.00
H316   H     0.13205   0.46867   0.28798   0.00000  Uiso   1.00
H317   H     0.05378   0.43730   0.29492   0.00000  Uiso   1.00
H318   H     0.09430   0.42075   0.31809   0.00000  Uiso   1.00
H319   H     0.09956   0.47886   0.35589   0.00000  Uiso   1.00
H320   H     0.05690   0.45555   0.36467   0.00000  Uiso   1.00
H321   H     0.05811   0.49490   0.33325   0.00000  Uiso   1.00
H322   H     0.38394   0.03667   0.82288   0.00000  Uiso   1.00
H323   H     0.41231   0.07649   0.82054   0.00000  Uiso   1.00
H324   H     0.43366   0.49921   0.79496   0.00000  Uiso   1.00
H325   H     0.46181   0.03915   0.78945   0.00000  Uiso   1.00
H326   H     0.28379   0.04780   0.09851   0.00000  Uiso   1.00
H327   H     0.46040   0.04783   0.86249   0.00000  Uiso   1.00
H328   H     0.47879   0.00432   0.84863   0.00000  Uiso   1.00
H329   H     0.43287   0.00703   0.86699   0.00000  Uiso   1.00
H330   H     0.01086   0.12052   0.27285   0.00000  Uiso   1.00
H331   H     0.05204   0.11135   0.29883   0.00000  Uiso   1.00
H332   H     0.00120   0.05621   0.25844   0.00000  Uiso   1.00
H333   H     0.04561   0.04456   0.27686   0.00000  Uiso   1.00
H334   H     0.02739   0.06389   0.34374   0.00000  Uiso   1.00
H335   H     0.49606   0.03045   0.32479   0.00000  Uiso   1.00
H336   H     0.48327   0.07780   0.32568   0.00000  Uiso   1.00
H337   H     0.05027   0.27901   0.90186   0.00000  Uiso   1.00
H338   H     0.43125   0.37352   0.82864   0.00000  Uiso   1.00
H339   H     0.43095   0.42267   0.82267   0.00000  Uiso   1.00
H340   H     0.49887   0.37390   0.81940   0.00000  Uiso   1.00
H341   H     0.49784   0.42279   0.81536   0.00000  Uiso   1.00
H342   H     0.47367   0.42790   0.88286   0.00000  Uiso   1.00
H343   H     0.01460   0.40086   0.88285   0.00000  Uiso   1.00
H344   H     0.47102   0.37879   0.88696   0.00000  Uiso   1.00
H345   H     0.38383   0.05227   0.30512   0.00000  Uiso   1.00
H346   H     0.43116   0.04922   0.29033   0.00000  Uiso   1.00
H347   H     0.37184   0.49084   0.27817   0.00000  Uiso   1.00
H348   H     0.44986   0.21958   0.09876   0.00000  Uiso   1.00
H349   H     0.41883   0.48730   0.26377   0.00000  Uiso   1.00
H350   H     0.43823   0.49273   0.33350   0.00000  Uiso   1.00
H351   H     0.40697   0.45532   0.32674   0.00000  Uiso   1.00
H352   H     0.39109   0.49711   0.34832   0.00000  Uiso   1.00
H353   H     0.12160   0.47651   0.82223   0.00000  Uiso   1.00
H354   H     0.13594   0.43063   0.82807   0.00000  Uiso   1.00
H355   H     0.05440   0.44902   0.82419   0.00000  Uiso   1.00
H356   H     0.07615   0.40990   0.84517   0.00000  Uiso   1.00
H357   H     0.10490   0.45274   0.89593   0.00000  Uiso   1.00
H358   H     0.05581   0.45030   0.89805   0.00000  Uiso   1.00
H359   H     0.40380   0.20677   0.43790   0.00000  Uiso   1.00
H360   H     0.07776   0.48896   0.87581   0.00000  Uiso   1.00
H361   H     0.48701   0.40481   0.25487   0.00000  Uiso   1.00
H362   H     0.44621   0.42806   0.26777   0.00000  Uiso   1.00
H363   H     0.48733   0.43933   0.18977   0.00000  Uiso   1.00
H364   H     0.44997   0.46542   0.20696   0.00000  Uiso   1.00
H365   H     0.48772   0.48499   0.26557   0.00000  Uiso   1.00
H366   H     0.00489   0.49989   0.21864   0.00000  Uiso   1.00
H367   H     0.02605   0.46238   0.24303   0.00000  Uiso   1.00
H368   H     0.07229   0.13859   0.83296   0.00000  Uiso   1.00
H369   H     0.07228   0.08933   0.83635   0.00000  Uiso   1.00
H370   H     0.38987   0.18252   0.48178   0.00000  Uiso   1.00
H371   H     0.00461   0.13806   0.82675   0.00000  Uiso   1.00
H372   H     0.00420   0.08933   0.83016   0.00000  Uiso   1.00
H373   H     0.03196   0.09311   0.89705   0.00000  Uiso   1.00
H374   H     0.48961   0.11760   0.89405   0.00000  Uiso   1.00
H375   H     0.03211   0.14232   0.89352   0.00000  Uiso   1.00
H376   H     0.09771   0.01327   0.74248   0.00000  Uiso   1.00
H377   H     0.07253   0.05328   0.73053   0.00000  Uiso   1.00
H378   H     0.06251   0.01066   0.80766   0.00000  Uiso   1.00
H379   H     0.03438   0.04625   0.78969   0.00000  Uiso   1.00
H380   H     0.01778   0.00738   0.73123   0.00000  Uiso   1.00
H381   H     0.40096   0.14749   0.40078   0.00000  Uiso   1.00
H382   H     0.00456   0.48795   0.77777   0.00000  Uiso   1.00
H383   H     0.04379   0.47102   0.75315   0.00000  Uiso   1.00
H384   H     0.35639   0.42362   0.16626   0.00000  Uiso   1.00
H385   H     0.40532   0.42174   0.15912   0.00000  Uiso   1.00
H386   H     0.36124   0.49245   0.16872   0.00000  Uiso   1.00
H387   H     0.40878   0.48879   0.15680   0.00000  Uiso   1.00
H388   H     0.39239   0.45653   0.09437   0.00000  Uiso   1.00
H389   H     0.37205   0.00104   0.09752   0.00000  Uiso   1.00
H390   H     0.34458   0.46115   0.10646   0.00000  Uiso   1.00
H391   H     0.00846   0.41068   0.73093   0.00000  Uiso   1.00
H392   H     0.46505   0.20289   0.59864   0.00000  Uiso   1.00
H393   H     0.38396   0.12544   0.44422   0.00000  Uiso   1.00
H394   H     0.02697   0.36830   0.71675   0.00000  Uiso   1.00
H395   H     0.06891   0.44072   0.70365   0.00000  Uiso   1.00
H396   H     0.07711   0.39736   0.68141   0.00000  Uiso   1.00
H397   H     0.01731   0.40084   0.64698   0.00000  Uiso   1.00
H398   H     0.04620   0.43953   0.63599   0.00000  Uiso   1.00
H399   H     0.00890   0.44451   0.66961   0.00000  Uiso   1.00
H400   H     0.43371   0.12187   0.17346   0.00000  Uiso   1.00
H401   H     0.43241   0.07334   0.18339   0.00000  Uiso   1.00
H402   H     0.00122   0.12140   0.18360   0.00000  Uiso   1.00
H403   H     0.49941   0.07277   0.19094   0.00000  Uiso   1.00
H404   H     0.33030   0.16775   0.44448   0.00000  Uiso   1.00
H405   H     0.47334   0.06500   0.12370   0.00000  Uiso   1.00
H406   H     0.01703   0.08757   0.12292   0.00000  Uiso   1.00
H407   H     0.47607   0.11375   0.11636   0.00000  Uiso   1.00
H408   H     0.38461   0.49296   0.72897   0.00000  Uiso   1.00
H409   H     0.37834   0.45213   0.70201   0.00000  Uiso   1.00
H410   H     0.45174   0.48294   0.73142   0.00000  Uiso   1.00
H411   H     0.44624   0.44066   0.70556   0.00000  Uiso   1.00
H412   H     0.42188   0.47314   0.64786   0.00000  Uiso   1.00
H413   H     0.46496   0.49291   0.66189   0.00000  Uiso   1.00
H414   H     0.42327   0.01593   0.67388   0.00000  Uiso   1.00
H415   H     0.33348   0.14225   0.39957   0.00000  Uiso   1.00
H416   H     0.12889   0.06897   0.17093   0.00000  Uiso   1.00
H417   H     0.07954   0.06955   0.17480   0.00000  Uiso   1.00
H418   H     0.12745   0.00116   0.18073   0.00000  Uiso   1.00
H419   H     0.07844   0.00290   0.18144   0.00000  Uiso   1.00
H420   H     0.07784   0.02736   0.11365   0.00000  Uiso   1.00
H421   H     0.10368   0.48570   0.11561   0.00000  Uiso   1.00
H422   H     0.12717   0.02863   0.11297   0.00000  Uiso   1.00
H423   H     0.44802   0.11751   0.69417   0.00000  Uiso   1.00
H424   H     0.44649   0.06974   0.70783   0.00000  Uiso   1.00
H425   H     0.01080   0.12248   0.72021   0.00000  Uiso   1.00
H426   H     0.34765   0.18927   0.40063   0.00000  Uiso   1.00
H427   H     0.00956   0.07509   0.73366   0.00000  Uiso   1.00
H428   H     0.00069   0.05789   0.66345   0.00000  Uiso   1.00
H429   H     0.04173   0.08420   0.67044   0.00000  Uiso   1.00
H430   H     0.00196   0.10559   0.65001   0.00000  Uiso   1.00
H431   H     0.02244   0.38062   0.17983   0.00000  Uiso   1.00
H432   H     0.06805   0.36559   0.17330   0.00000  Uiso   1.00
H433   H     0.05025   0.44714   0.17904   0.00000  Uiso   1.00
H434   H     0.08988   0.42590   0.15875   0.00000  Uiso   1.00
H435   H     0.04804   0.39811   0.10596   0.00000  Uiso   1.00
H436   H     0.05096   0.44711   0.10510   0.00000  Uiso   1.00
H437   H     0.49973   0.35617   0.56474   0.00000  Uiso   1.00
H438   H     0.01158   0.42502   0.12567   0.00000  Uiso   1.00
H439   H     0.38009   0.20921   0.80270   0.00000  Uiso   1.00
H440   H     0.33680   0.18558   0.80698   0.00000  Uiso   1.00
H441   H     0.34747   0.26421   0.77853   0.00000  Uiso   1.00
H442   H     0.30463   0.24005   0.78335   0.00000  Uiso   1.00
H443   H     0.31545   0.23291   0.85497   0.00000  Uiso   1.00
H444   H     0.31582   0.28009   0.84046   0.00000  Uiso   1.00
H445   H     0.35821   0.25722   0.85035   0.00000  Uiso   1.00
H446   H     0.13312   0.27198   0.31855   0.00000  Uiso   1.00
H447   H     0.11825   0.31742   0.32589   0.00000  Uiso   1.00
H448   H     0.00530   0.36765   0.51345   0.00000  Uiso   1.00
H449   H     0.19978   0.30158   0.31504   0.00000  Uiso   1.00
H450   H     0.17847   0.33940   0.33871   0.00000  Uiso   1.00
H451   H     0.15492   0.29405   0.39093   0.00000  Uiso   1.00
H452   H     0.20378   0.29935   0.38897   0.00000  Uiso   1.00
H453   H     0.18247   0.25990   0.36792   0.00000  Uiso   1.00
H454   H     0.26116   0.34363   0.75653   0.00000  Uiso   1.00
H455   H     0.30251   0.32475   0.77432   0.00000  Uiso   1.00
H456   H     0.27927   0.30238   0.69184   0.00000  Uiso   1.00
H457   H     0.30219   0.27691   0.72817   0.00000  Uiso   1.00
H458   H     0.24456   0.27151   0.76710   0.00000  Uiso   1.00
H459   H     0.05152   0.39703   0.58122   0.00000  Uiso   1.00
H460   H     0.24111   0.25242   0.71861   0.00000  Uiso   1.00
H461   H     0.22105   0.29569   0.72837   0.00000  Uiso   1.00
H462   H     0.17749   0.11229   0.33304   0.00000  Uiso   1.00
H463   H     0.17769   0.16162   0.33551   0.00000  Uiso   1.00
H464   H     0.24521   0.11253   0.32690   0.00000  Uiso   1.00
H465   H     0.24568   0.16130   0.32959   0.00000  Uiso   1.00
H466   H     0.21774   0.15833   0.39647   0.00000  Uiso   1.00
H467   H     0.26003   0.13368   0.39394   0.00000  Uiso   1.00
H468   H     0.21745   0.10909   0.39368   0.00000  Uiso   1.00
H469   H     0.15929   0.25829   0.76782   0.00000  Uiso   1.00
H470   H     0.05801   0.40746   0.53011   0.00000  Uiso   1.00
H471   H     0.11999   0.28078   0.78565   0.00000  Uiso   1.00
H472   H     0.19758   0.31417   0.79025   0.00000  Uiso   1.00
H473   H     0.15729   0.32975   0.81477   0.00000  Uiso   1.00
H474   H     0.15413   0.27101   0.85216   0.00000  Uiso   1.00
H475   H     0.19596   0.29589   0.86046   0.00000  Uiso   1.00
H476   H     0.19588   0.25676   0.82883   0.00000  Uiso   1.00
H477   H     0.36424   0.21499   0.32236   0.00000  Uiso   1.00
H478   H     0.33820   0.17364   0.32097   0.00000  Uiso   1.00
H479   H     0.31256   0.24850   0.29125   0.00000  Uiso   1.00
H480   H     0.28671   0.20695   0.28901   0.00000  Uiso   1.00
H481   H     0.49570   0.43432   0.52693   0.00000  Uiso   1.00
H482   H     0.28909   0.20255   0.36245   0.00000  Uiso   1.00
H483   H     0.26831   0.24417   0.34594   0.00000  Uiso   1.00
H484   H     0.31447   0.24486   0.36386   0.00000  Uiso   1.00
H485   H     0.24213   0.13199   0.76983   0.00000  Uiso   1.00
H486   H     0.20113   0.13285   0.79767   0.00000  Uiso   1.00
H487   H     0.23988   0.19914   0.76069   0.00000  Uiso   1.00
H488   H     0.19733   0.20086   0.78676   0.00000  Uiso   1.00
H489   H     0.22776   0.17722   0.84676   0.00000  Uiso   1.00
H490   H     0.25038   0.21762   0.82902   0.00000  Uiso   1.00
H491   H     0.27038   0.17368   0.82041   0.00000  Uiso   1.00
H492   H     0.02318   0.45618   0.56379   0.00000  Uiso   1.00
H493   H     0.31917   0.38286   0.33034   0.00000  Uiso   1.00
H494   H     0.32317   0.33361   0.32916   0.00000  Uiso   1.00
H495   H     0.25089   0.37516   0.32105   0.00000  Uiso   1.00
H496   H     0.25715   0.32671   0.32562   0.00000  Uiso   1.00
H497   H     0.28260   0.33487   0.39249   0.00000  Uiso   1.00
H498   H     0.23834   0.35581   0.38878   0.00000  Uiso   1.00
H499   H     0.27859   0.38382   0.38785   0.00000  Uiso   1.00
H500   H     0.35268   0.25670   0.23297   0.00000  Uiso   1.00
H501   H     0.37052   0.29394   0.20622   0.00000  Uiso   1.00
H502   H     0.29131   0.29102   0.23683   0.00000  Uiso   1.00
H503   H     0.20124   0.46833   0.40225   0.00000  Uiso   1.00
H504   H     0.48870   0.42372   0.57815   0.00000  Uiso   1.00
H505   H     0.31009   0.32256   0.20201   0.00000  Uiso   1.00
H506   H     0.32069   0.27174   0.15487   0.00000  Uiso   1.00
H507   H     0.27347   0.27439   0.16922   0.00000  Uiso   1.00
H508   H     0.30197   0.23979   0.18993   0.00000  Uiso   1.00
H509   H     0.12583   0.18546   0.67078   0.00000  Uiso   1.00
H510   H     0.17454   0.18207   0.67908   0.00000  Uiso   1.00
H511   H     0.12896   0.25212   0.68170   0.00000  Uiso   1.00
H512   H     0.17715   0.24913   0.69114   0.00000  Uiso   1.00
H513   H     0.18730   0.22566   0.62332   0.00000  Uiso   1.00
H514   H     0.16525   0.26942   0.62319   0.00000  Uiso   1.00
H515   H     0.36901   0.04541   0.41835   0.00000  Uiso   1.00
H516   H     0.13890   0.22884   0.61380   0.00000  Uiso   1.00
H517   H     0.30179   0.12790   0.19470   0.00000  Uiso   1.00
H518   H     0.30456   0.17637   0.20402   0.00000  Uiso   1.00
H519   H     0.23906   0.12598   0.22040   0.00000  Uiso   1.00
H520   H     0.24115   0.17396   0.23080   0.00000  Uiso   1.00
H521   H     0.25025   0.18743   0.15984   0.00000  Uiso   1.00
H522   H     0.20891   0.16194   0.16823   0.00000  Uiso   1.00
H523   H     0.24852   0.13916   0.14916   0.00000  Uiso   1.00
H524   H     0.17801   0.38984   0.67021   0.00000  Uiso   1.00
H525   H     0.17178   0.34110   0.66575   0.00000  Uiso   1.00
H526   H     0.35150   0.00699   0.44422   0.00000  Uiso   1.00
H527   H     0.24735   0.37550   0.67747   0.00000  Uiso   1.00
H528   H     0.23544   0.33060   0.66001   0.00000  Uiso   1.00
H529   H     0.21019   0.35682   0.59940   0.00000  Uiso   1.00
H530   H     0.25668   0.37091   0.60632   0.00000  Uiso   1.00
H531   H     0.22049   0.40238   0.61663   0.00000  Uiso   1.00
H532   H     0.15276   0.23618   0.23919   0.00000  Uiso   1.00
H533   H     0.17694   0.19549   0.22754   0.00000  Uiso   1.00
H534   H     0.18935   0.23886   0.30349   0.00000  Uiso   1.00
H535   H     0.21659   0.20289   0.28534   0.00000  Uiso   1.00
H536   H     0.23312   0.24068   0.22644   0.00000  Uiso   1.00
H537   H     0.39892   0.06791   0.48112   0.00000  Uiso   1.00
H538   H     0.24610   0.26121   0.27246   0.00000  Uiso   1.00
H539   H     0.20691   0.27756   0.24714   0.00000  Uiso   1.00
H540   H     0.38950   0.32155   0.66698   0.00000  Uiso   1.00
H541   H     0.34036   0.32542   0.66381   0.00000  Uiso   1.00
H542   H     0.38285   0.25361   0.67224   0.00000  Uiso   1.00
H543   H     0.33435   0.25809   0.66686   0.00000  Uiso   1.00
H544   H     0.34348   0.28702   0.60108   0.00000  Uiso   1.00
H545   H     0.36348   0.24235   0.60369   0.00000  Uiso   1.00
H546   H     0.39229   0.28209   0.60653   0.00000  Uiso   1.00
H547   H     0.24169   0.34511   0.22053   0.00000  Uiso   1.00
H548   H     0.38426   0.02643   0.50454   0.00000  Uiso   1.00
H549   H     0.21811   0.38575   0.20977   0.00000  Uiso   1.00
H550   H     0.18975   0.30755   0.19349   0.00000  Uiso   1.00
H551   H     0.16598   0.34857   0.18116   0.00000  Uiso   1.00
H552   H     0.21442   0.36750   0.13624   0.00000  Uiso   1.00
H553   H     0.19969   0.32178   0.12488   0.00000  Uiso   1.00
H554   H     0.24211   0.32903   0.15014   0.00000  Uiso   1.00
H555   H     0.29034   0.12901   0.67604   0.00000  Uiso   1.00
H556   H     0.32943   0.15851   0.67803   0.00000  Uiso   1.00
H557   H     0.25017   0.17959   0.69567   0.00000  Uiso   1.00
H558   H     0.28915   0.20898   0.70251   0.00000  Uiso   1.00
H559   H     0.41908   0.49005   0.45527   0.00000  Uiso   1.00
H560   H     0.30406   0.20312   0.63109   0.00000  Uiso   1.00
H561   H     0.25899   0.22091   0.63895   0.00000  Uiso   1.00
H562   H     0.26465   0.17400   0.62472   0.00000  Uiso   1.00
H563   H     0.44795   0.02134   0.48161   0.00000  Uiso   1.00
H564   H     0.43431   0.03182   0.43223   0.00000  Uiso   1.00
H565   H     0.19284   0.40213   0.54367   0.00000  Uiso   1.00
H566   H     0.15479   0.40455   0.51003   0.00000  Uiso   1.00
H567   H     0.29781   0.03452   0.59853   0.00000  Uiso   1.00
H568   H     0.15267   0.40188   0.59999   0.00000  Uiso   1.00
H569   H     0.11384   0.41268   0.57057   0.00000  Uiso   1.00
H570   H     0.11793   0.35322   0.53659   0.00000  Uiso   1.00
H571   H     0.11501   0.34692   0.58879   0.00000  Uiso   1.00
H572   H     0.15809   0.34166   0.56408   0.00000  Uiso   1.00
H573   H     0.09009   0.31369   0.42708   0.00000  Uiso   1.00
H574   H     0.10010   0.32043   0.47840   0.00000  Uiso   1.00
H575   H     0.08501   0.38327   0.42120   0.00000  Uiso   1.00
H576   H     0.10130   0.38597   0.47077   0.00000  Uiso   1.00
H577   H     0.15788   0.35073   0.44899   0.00000  Uiso   1.00
H578   H     0.46570   0.20193   0.40152   0.00000  Uiso   1.00
H579   H     0.15265   0.39459   0.42600   0.00000  Uiso   1.00
H580   H     0.14095   0.35452   0.39921   0.00000  Uiso   1.00
H581   H     0.48650   0.14225   0.55676   0.00000  Uiso   1.00
H582   H     0.46199   0.12467   0.51460   0.00000  Uiso   1.00
H583   H     0.43630   0.12313   0.60043   0.00000  Uiso   1.00
H584   H     0.41009   0.10735   0.55924   0.00000  Uiso   1.00
H585   H     0.45730   0.06124   0.54380   0.00000  Uiso   1.00
H586   H     0.44157   0.05642   0.59353   0.00000  Uiso   1.00
H587   H     0.48511   0.07746   0.58387   0.00000  Uiso   1.00
H588   H     0.14368   0.00251   0.43343   0.00000  Uiso   1.00
H589   H     0.03255   0.29806   0.59776   0.00000  Uiso   1.00
H590   H     0.13411   0.00041   0.48546   0.00000  Uiso   1.00
H591   H     0.09946   0.45086   0.42333   0.00000  Uiso   1.00
H592   H     0.09012   0.45057   0.47509   0.00000  Uiso   1.00
H593   H     0.06756   0.01439   0.47136   0.00000  Uiso   1.00
H594   H     0.04296   0.48494   0.43843   0.00000  Uiso   1.00
H595   H     0.07726   0.01544   0.41943   0.00000  Uiso   1.00
H596   H     0.33133   0.10019   0.58129   0.00000  Uiso   1.00
H597   H     0.28802   0.09497   0.55842   0.00000  Uiso   1.00
H598   H     0.35774   0.12205   0.51620   0.00000  Uiso   1.00
H599   H     0.31226   0.12093   0.49655   0.00000  Uiso   1.00
H600   H     0.29705   0.03487   0.40124   0.00000  Uiso   1.00
H601   H     0.29203   0.16487   0.54836   0.00000  Uiso   1.00
H602   H     0.32841   0.18307   0.51869   0.00000  Uiso   1.00
H603   H     0.33809   0.16648   0.56718   0.00000  Uiso   1.00
H604   H     0.15260   0.44051   0.95874   0.00000  Uiso   1.00
H605   H     0.15693   0.40154   0.99103   0.00000  Uiso   1.00
H606   H     0.15176   0.40255   0.90122   0.00000  Uiso   1.00
H607   H     0.16503   0.36296   0.92843   0.00000  Uiso   1.00
H608   H     0.10692   0.36277   0.96454   0.00000  Uiso   1.00
H609   H     0.09831   0.36311   0.91263   0.00000  Uiso   1.00
H610   H     0.09287   0.40418   0.94096   0.00000  Uiso   1.00
H611   H     0.20278   0.46712   0.59843   0.00000  Uiso   1.00
H612   H     0.26085   0.10760   0.05510   0.00000  Uiso   1.00
H613   H     0.28609   0.12577   0.01367   0.00000  Uiso   1.00
H614   H     0.30904   0.12797   0.10033   0.00000  Uiso   1.00
H615   H     0.33636   0.14410   0.06009   0.00000  Uiso   1.00
H616   H     0.28902   0.18934   0.04249   0.00000  Uiso   1.00
H617   H     0.30265   0.19449   0.09289   0.00000  Uiso   1.00
H618   H     0.25993   0.17261   0.08140   0.00000  Uiso   1.00
H619   H     0.10838   0.24689   0.93415   0.00000  Uiso   1.00
H620   H     0.12012   0.25213   0.98537   0.00000  Uiso   1.00
H621   H     0.14874   0.29948   0.91783   0.00000  Uiso   1.00
H622   H     0.28387   0.04818   0.90140   0.00000  Uiso   1.00
H623   H     0.15952   0.30520   0.96888   0.00000  Uiso   1.00
H624   H     0.18689   0.24305   0.97065   0.00000  Uiso   1.00
H625   H     0.20827   0.27138   0.93412   0.00000  Uiso   1.00
H626   H     0.17597   0.23694   0.91940   0.00000  Uiso   1.00
H627   H     0.41141   0.15494   0.08046   0.00000  Uiso   1.00
H628   H     0.45596   0.15945   0.06031   0.00000  Uiso   1.00
H629   H     0.38752   0.13435   0.01455   0.00000  Uiso   1.00
H630   H     0.43335   0.13628   0.99584   0.00000  Uiso   1.00
H631   H     0.45298   0.09098   0.04647   0.00000  Uiso   1.00
H632   H     0.41727   0.07338   0.01578   0.00000  Uiso   1.00
O633   O     0.25000   0.00000   0.25000   0.00000  Uiso   1.00
O634   O     0.25000   0.46964   0.66245   0.00000  Uiso   1.00
O635   O     0.30392   0.14440   0.73224   0.00000  Uiso   1.00
O636   O     0.46963   0.25000   0.33755   0.00000  Uiso   1.00
O637   O     0.03036   0.25000   0.66245   0.00000  Uiso   1.00
O638   O    -0.00000   0.21963   0.83755   0.00000  Uiso   1.00
O639   O    -0.00000   0.28036   0.16245   0.00000  Uiso   1.00
O640   O     0.28036   0.00000   0.83755   0.00000  Uiso   1.00
O641   O     0.21963   0.00000   0.16245   0.00000  Uiso   1.00
O642   O    -0.00000   0.28036   0.83755   0.00000  Uiso   1.00
O643   O    -0.00000   0.21963   0.16245   0.00000  Uiso   1.00
O644   O     0.21963   0.00000   0.83755   0.00000  Uiso   1.00
O645   O     0.25000  -0.00000   0.75000   0.00000  Uiso   1.00
O646   O     0.28036   0.00000   0.16245   0.00000  Uiso   1.00
O647   O     0.20724   0.07307   0.27302   0.00000  Uiso   1.00
O648   O     0.29275   0.42692   0.72698   0.00000  Uiso   1.00
O649   O     0.42692   0.20724   0.27302   0.00000  Uiso   1.00
O650   O     0.07307   0.29276   0.72698   0.00000  Uiso   1.00
O651   O     0.29275   0.42692   0.27302   0.00000  Uiso   1.00
O652   O     0.20724   0.07307   0.72698   0.00000  Uiso   1.00
O653   O     0.07307   0.29276   0.27302   0.00000  Uiso   1.00
O654   O     0.42692   0.20724   0.72698   0.00000  Uiso   1.00
O655   O     0.20724   0.42693   0.72698   0.00000  Uiso   1.00
O656   O     0.00000   0.25000   0.25000   0.00000  Uiso   1.00
O657   O     0.29275   0.07307   0.27302   0.00000  Uiso   1.00
O658   O     0.42692   0.29275   0.72698   0.00000  Uiso   1.00
O659   O     0.07307   0.20725   0.27302   0.00000  Uiso   1.00
O660   O     0.29275   0.07307   0.72698   0.00000  Uiso   1.00
O661   O     0.20724   0.42693   0.27302   0.00000  Uiso   1.00
O662   O     0.07307   0.20725   0.72698   0.00000  Uiso   1.00
O663   O     0.42692   0.29275   0.27302   0.00000  Uiso   1.00
O664   O     0.45724   0.32307   0.77302   0.00000  Uiso   1.00
O665   O     0.04275   0.17693   0.22698   0.00000  Uiso   1.00
O666   O     0.17692   0.45725   0.77302   0.00000  Uiso   1.00
O667   O    -0.00000   0.25000   0.75000   0.00000  Uiso   1.00
O668   O     0.32307   0.04275   0.22698   0.00000  Uiso   1.00
O669   O     0.04275   0.17693   0.77302   0.00000  Uiso   1.00
O670   O     0.45724   0.32307   0.22698   0.00000  Uiso   1.00
O671   O     0.32307   0.04275   0.77302   0.00000  Uiso   1.00
O672   O     0.17692   0.45725   0.22698   0.00000  Uiso   1.00
O673   O     0.45724   0.17692   0.22698   0.00000  Uiso   1.00
O674   O     0.04275   0.32308   0.77302   0.00000  Uiso   1.00
O675   O     0.17692   0.04275   0.22698   0.00000  Uiso   1.00
O676   O     0.32307   0.45724   0.77302   0.00000  Uiso   1.00
O677   O     0.04275   0.32308   0.22698   0.00000  Uiso   1.00
O678   O     0.25000   0.46964   0.33755   0.00000  Uiso   1.00
O679   O     0.45724   0.17692   0.77302   0.00000  Uiso   1.00
O680   O     0.32307   0.45724   0.22698   0.00000  Uiso   1.00
O681   O     0.17692   0.04275   0.77302   0.00000  Uiso   1.00
O682   O     0.44078   0.16884   0.45973   0.00000  Uiso   1.00
O683   O     0.04716   0.33695   0.53939   0.00000  Uiso   1.00
O684   O     0.33128   0.05931   0.45959   0.00000  Uiso   1.00
O685   O     0.16441   0.45157   0.54175   0.00000  Uiso   1.00
O686   O     0.04800   0.33612   0.45910   0.00000  Uiso   1.00
O687   O     0.43932   0.17023   0.54099   0.00000  Uiso   1.00
O688   O     0.16147   0.45558   0.46072   0.00000  Uiso   1.00
O689   O     0.25000   0.03036   0.66245   0.00000  Uiso   1.00
O690   O     0.33089   0.06018   0.53987   0.00000  Uiso   1.00
O691   O     0.20297   0.41355   0.95846   0.00000  Uiso   1.00
O692   O     0.30915   0.08077   0.04076   0.00000  Uiso   1.00
O693   O     0.08893   0.29391   0.95997   0.00000  Uiso   1.00
O694   O     0.41528   0.19595   0.04023   0.00000  Uiso   1.00
O695   O     0.30855   0.08149   0.95949   0.00000  Uiso   1.00
O696   O     0.20817   0.41017   0.03947   0.00000  Uiso   1.00
O697   O     0.41311   0.20026   0.95995   0.00000  Uiso   1.00
O698   O     0.08922   0.29305   0.04039   0.00000  Uiso   1.00
O699   O     0.10411   0.44728   0.23956   0.00000  Uiso   1.00
O700   O     0.03036   0.25000   0.33755   0.00000  Uiso   1.00
O701   O     0.39438   0.05339   0.76642   0.00000  Uiso   1.00
O702   O     0.05274   0.10504   0.23656   0.00000  Uiso   1.00
O703   O     0.44523   0.39328   0.77307   0.00000  Uiso   1.00
O704   O     0.39475   0.05187   0.24441   0.00000  Uiso   1.00
O705   O     0.10688   0.44441   0.77628   0.00000  Uiso   1.00
O706   O     0.44415   0.39134   0.21935   0.00000  Uiso   1.00
O707   O     0.05677   0.11006   0.78239   0.00000  Uiso   1.00
O708   O     0.10862   0.05572   0.77947   0.00000  Uiso   1.00
O709   O     0.38863   0.44164   0.21307   0.00000  Uiso   1.00
O710   O     0.05288   0.39574   0.76277   0.00000  Uiso   1.00
O711   O     0.46963   0.25000   0.66245   0.00000  Uiso   1.00
O712   O     0.44628   0.10615   0.23079   0.00000  Uiso   1.00
O713   O     0.39492   0.44743   0.76175   0.00000  Uiso   1.00
O714   O     0.10699   0.05502   0.22559   0.00000  Uiso   1.00
O715   O     0.44806   0.10568   0.75440   0.00000  Uiso   1.00
O716   O     0.05512   0.39352   0.22605   0.00000  Uiso   1.00
O717   O     0.35436   0.19770   0.74992   0.00000  Uiso   1.00
O718   O     0.14392   0.30479   0.27177   0.00000  Uiso   1.00
O719   O     0.30487   0.35776   0.72285   0.00000  Uiso   1.00
O720   O     0.19330   0.14001   0.28201   0.00000  Uiso   1.00
O721   O     0.14575   0.30359   0.73655   0.00000  Uiso   1.00
O722   O     0.25000   0.03036   0.33755   0.00000  Uiso   1.00
O723   O     0.35572   0.19635   0.26639   0.00000  Uiso   1.00
O724   O     0.19753   0.14481   0.73650   0.00000  Uiso   1.00
O725   O     0.30588   0.35775   0.27734   0.00000  Uiso   1.00
O726   O     0.35542   0.30334   0.26535   0.00000  Uiso   1.00
O727   O     0.14345   0.19585   0.72783   0.00000  Uiso   1.00
O728   O     0.30216   0.14422   0.25374   0.00000  Uiso   1.00
O729   O     0.19259   0.35885   0.71917   0.00000  Uiso   1.00
O730   O     0.14183   0.19473   0.27751   0.00000  Uiso   1.00
O731   O     0.36022   0.30687   0.71718   0.00000  Uiso   1.00
O732   O     0.19767   0.35376   0.25590   0.00000  Uiso   1.00
Zn733  Zn    0.20659   0.00000   0.21735   0.00000  Uiso   1.00
Zn734  Zn    0.04340   0.25000   0.28265   0.00000  Uiso   1.00
Zn735  Zn    0.25000   0.45660   0.71735   0.00000  Uiso   1.00
Zn736  Zn    0.25000   0.04340   0.28265   0.00000  Uiso   1.00
Zn737  Zn    0.04340   0.25000   0.71735   0.00000  Uiso   1.00
Zn738  Zn    0.45659   0.25000   0.28265   0.00000  Uiso   1.00
Zn739  Zn    0.25000   0.04340   0.71735   0.00000  Uiso   1.00
Zn740  Zn    0.25000   0.45660   0.28265   0.00000  Uiso   1.00
Zn741  Zn    0.29340  -0.00000   0.78265   0.00000  Uiso   1.00
Zn742  Zn   -0.00000   0.20659   0.21735   0.00000  Uiso   1.00
Zn743  Zn    0.00000   0.29341   0.78265   0.00000  Uiso   1.00
Zn744  Zn    0.29340  -0.00000   0.21735   0.00000  Uiso   1.00
Zn745  Zn    0.20659   0.00000   0.78265   0.00000  Uiso   1.00
Zn746  Zn    0.00000   0.29341   0.21735   0.00000  Uiso   1.00
Zn747  Zn   -0.00000   0.20659   0.78265   0.00000  Uiso   1.00
Zn748  Zn    0.45659   0.25000   0.71735   0.00000  Uiso   1.00
C749   C     0.51797   0.27676   0.41794   0.00000  Uiso   1.00
C750   C     0.73356   0.47155   0.08168   0.00000  Uiso   1.00
C751   C     0.72211   0.48298   0.54120   0.00000  Uiso   1.00
C752   C     0.51743   0.27764   0.45870   0.00000  Uiso   1.00
C753   C     0.97919   0.22286   0.54110   0.00000  Uiso   1.00
C754   C     0.72112   0.48408   0.45924   0.00000  Uiso   1.00
C755   C     0.77696   0.02144   0.54107   0.00000  Uiso   1.00
C756   C     0.73324   0.47181   0.95889   0.00000  Uiso   1.00
C757   C     0.77069   0.02711   0.04105   0.00000  Uiso   1.00
C758   C     0.52944   0.26509   0.95911   0.00000  Uiso   1.00
C759   C     0.97173   0.23099   0.04127   0.00000  Uiso   1.00
C760   C     0.77067   0.02731   0.95887   0.00000  Uiso   1.00
C761   C     0.97154   0.23243   0.91820   0.00000  Uiso   1.00
C762   C     0.73479   0.47059   0.04087   0.00000  Uiso   1.00
C763   C     0.97114   0.23207   0.95909   0.00000  Uiso   1.00
C764   C     0.52927   0.26532   0.04122   0.00000  Uiso   1.00
C765   C     0.59840   0.34825   0.24962   0.00000  Uiso   1.00
C766   C     0.90198   0.15216   0.75062   0.00000  Uiso   1.00
C767   C     0.65135   0.09775   0.25130   0.00000  Uiso   1.00
C768   C     0.84815   0.40196   0.74827   0.00000  Uiso   1.00
C769   C     0.90184   0.15162   0.25022   0.00000  Uiso   1.00
C770   C     0.59781   0.34800   0.75008   0.00000  Uiso   1.00
C771   C     0.84782   0.40143   0.24868   0.00000  Uiso   1.00
C772   C     0.52855   0.26571   0.08202   0.00000  Uiso   1.00
C773   C     0.65221   0.09840   0.75184   0.00000  Uiso   1.00
C774   C     0.59878   0.15235   0.75147   0.00000  Uiso   1.00
C775   C     0.90181   0.34802   0.24833   0.00000  Uiso   1.00
C776   C     0.65146   0.40198   0.74995   0.00000  Uiso   1.00
C777   C     0.84819   0.09770   0.25024   0.00000  Uiso   1.00
C778   C     0.90227   0.34869   0.74837   0.00000  Uiso   1.00
C779   C     0.59783   0.15166   0.25168   0.00000  Uiso   1.00
C780   C     0.84831   0.09819   0.74998   0.00000  Uiso   1.00
C781   C     0.65215   0.40211   0.24961   0.00000  Uiso   1.00
C782   C     0.99849   0.25003   0.47937   0.00000  Uiso   1.00
C783   C     0.73186   0.47317   0.91814   0.00000  Uiso   1.00
C784   C     0.99836   0.25023   0.52037   0.00000  Uiso   1.00
C785   C     0.74939   0.00223   0.47959   0.00000  Uiso   1.00
C786   C     0.74955   0.00217   0.52058   0.00000  Uiso   1.00
C787   C     0.75202   0.49951   0.97944   0.00000  Uiso   1.00
C788   C     0.75234   0.49920   0.02043   0.00000  Uiso   1.00
C789   C     0.50031   0.24850   0.97965   0.00000  Uiso   1.00
C790   C     0.50037   0.24837   0.02067   0.00000  Uiso   1.00
C791   C     0.90458   0.18010   0.45343   0.00000  Uiso   1.00
C792   C     0.88525   0.15170   0.42819   0.00000  Uiso   1.00
C793   C     0.84675   0.16356   0.41765   0.00000  Uiso   1.00
C794   C     0.77001   0.02674   0.08193   0.00000  Uiso   1.00
C795   C     0.51986   0.36385   0.54179   0.00000  Uiso   1.00
C796   C     0.53750   0.40003   0.55268   0.00000  Uiso   1.00
C797   C     0.50941   0.43037   0.55555   0.00000  Uiso   1.00
C798   C     0.85984   0.03605   0.44767   0.00000  Uiso   1.00
C799   C     0.89193   0.03886   0.47609   0.00000  Uiso   1.00
C800   C     0.92535   0.01926   0.46020   0.00000  Uiso   1.00
C801   C     0.66495   0.41326   0.53915   0.00000  Uiso   1.00
C802   C     0.63999   0.39776   0.57086   0.00000  Uiso   1.00
C803   C     0.63240   0.35736   0.56466   0.00000  Uiso   1.00
C804   C     0.58568   0.33194   0.45254   0.00000  Uiso   1.00
C805   C     0.52849   0.26612   0.91827   0.00000  Uiso   1.00
C806   C     0.60184   0.36940   0.44367   0.00000  Uiso   1.00
C807   C     0.64082   0.36694   0.42869   0.00000  Uiso   1.00
C808   C     0.95899   0.13744   0.54392   0.00000  Uiso   1.00
C809   C     0.93815   0.11126   0.57061   0.00000  Uiso   1.00
C810   C     0.95679   0.07433   0.57304   0.00000  Uiso   1.00
C811   C     0.63592   0.48413   0.45796   0.00000  Uiso   1.00
C812   C     0.59831   0.46799   0.45001   0.00000  Uiso   1.00
C813   C     0.56984   0.49764   0.44447   0.00000  Uiso   1.00
C814   C     0.81796   0.09435   0.55284   0.00000  Uiso   1.00
C815   C     0.82842   0.12428   0.52373   0.00000  Uiso   1.00
C816   C     0.97176   0.23199   0.08214   0.00000  Uiso   1.00
C817   C     0.82124   0.16198   0.54065   0.00000  Uiso   1.00
C818   C     0.66469   0.41287   0.96205   0.00000  Uiso   1.00
C819   C     0.64915   0.38854   0.92990   0.00000  Uiso   1.00
C820   C     0.60930   0.37917   0.93747   0.00000  Uiso   1.00
C821   C     0.78859   0.11306   0.04309   0.00000  Uiso   1.00
C822   C     0.80801   0.13970   0.07038   0.00000  Uiso   1.00
C823   C     0.78859   0.17628   0.07180   0.00000  Uiso   1.00
C824   C     0.61604   0.26688   0.95718   0.00000  Uiso   1.00
C825   C     0.65204   0.28499   0.94608   0.00000  Uiso   1.00
C826   C     0.68262   0.25725   0.94235   0.00000  Uiso   1.00
C827   C     0.99960   0.24940   0.39797   0.00000  Uiso   1.00
C828   C     0.92640   0.16105   0.05299   0.00000  Uiso   1.00
C829   C     0.91670   0.13204   0.02259   0.00000  Uiso   1.00
C830   C     0.92387   0.09391   0.03844   0.00000  Uiso   1.00
C831   C     0.84467   0.07018   0.95267   0.00000  Uiso   1.00
C832   C     0.86386   0.09868   0.92736   0.00000  Uiso   1.00
C833   C     0.90224   0.08684   0.91635   0.00000  Uiso   1.00
C834   C     0.73759   0.38546   0.04179   0.00000  Uiso   1.00
C835   C     0.72308   0.34678   0.03672   0.00000  Uiso   1.00
C836   C     0.75326   0.31867   0.04082   0.00000  Uiso   1.00
C837   C     0.88428   0.22559   0.95930   0.00000  Uiso   1.00
C838   C     0.99956   0.24997   0.60186   0.00000  Uiso   1.00
C839   C     0.84988   0.20683   0.94426   0.00000  Uiso   1.00
C840   C     0.81752   0.23273   0.94414   0.00000  Uiso   1.00
C841   C     0.58613   0.33058   0.04830   0.00000  Uiso   1.00
C842   C     0.62401   0.34522   0.05809   0.00000  Uiso   1.00
C843   C     0.62267   0.38335   0.07543   0.00000  Uiso   1.00
C844   C     0.60404   0.46487   0.27654   0.00000  Uiso   1.00
C845   C     0.58027   0.44564   0.30757   0.00000  Uiso   1.00
C846   C     0.57335   0.47037   0.34250   0.00000  Uiso   1.00
C847   C     0.90600   0.05007   0.80584   0.00000  Uiso   1.00
C848   C     0.94001   0.02633   0.80733   0.00000  Uiso   1.00
C849   C     0.74985   0.00058   0.39813   0.00000  Uiso   1.00
C850   C     0.95378   0.02117   0.84903   0.00000  Uiso   1.00
C851   C     0.53505   0.10250   0.27341   0.00000  Uiso   1.00
C852   C     0.52228   0.06341   0.28034   0.00000  Uiso   1.00
C853   C     0.50624   0.05871   0.32121   0.00000  Uiso   1.00
C854   C     0.94502   0.39710   0.81418   0.00000  Uiso   1.00
C855   C     0.98421   0.39882   0.82867   0.00000  Uiso   1.00
C856   C     0.98584   0.40183   0.87312   0.00000  Uiso   1.00
C857   C     0.90294   0.04068   0.28298   0.00000  Uiso   1.00
C858   C     0.90007   0.49939   0.28541   0.00000  Uiso   1.00
C859   C     0.90972   0.48539   0.32609   0.00000  Uiso   1.00
C860   C     0.97958   0.22343   0.58199   0.00000  Uiso   1.00
C861   C     0.75056   0.00037   0.60199   0.00000  Uiso   1.00
C862   C     0.61318   0.44786   0.81701   0.00000  Uiso   1.00
C863   C     0.57863   0.43973   0.84055   0.00000  Uiso   1.00
C864   C     0.57939   0.45906   0.88005   0.00000  Uiso   1.00
C865   C     0.96233   0.41775   0.24246   0.00000  Uiso   1.00
C866   C     0.97397   0.44977   0.21648   0.00000  Uiso   1.00
C867   C     0.99971   0.47580   0.23747   0.00000  Uiso   1.00
C868   C     0.55803   0.11319   0.82358   0.00000  Uiso   1.00
C869   C     0.51903   0.11426   0.83929   0.00000  Uiso   1.00
C870   C     0.51827   0.11699   0.88377   0.00000  Uiso   1.00
C871   C     0.58342   0.03697   0.75540   0.00000  Uiso   1.00
C872   C     0.75021   0.00056   0.89802   0.00000  Uiso   1.00
C873   C     0.55172   0.02328   0.78066   0.00000  Uiso   1.00
C874   C     0.52800   0.49582   0.75912   0.00000  Uiso   1.00
C875   C     0.88277   0.43764   0.17243   0.00000  Uiso   1.00
C876   C     0.88179   0.47540   0.15359   0.00000  Uiso   1.00
C877   C     0.87210   0.47326   0.11028   0.00000  Uiso   1.00
C878   C     0.53454   0.39620   0.72613   0.00000  Uiso   1.00
C879   C     0.55554   0.41561   0.69284   0.00000  Uiso   1.00
C880   C     0.53029   0.42565   0.65926   0.00000  Uiso   1.00
C881   C     0.94683   0.09928   0.19006   0.00000  Uiso   1.00
C882   C     0.98617   0.09609   0.17610   0.00000  Uiso   1.00
C883   C     0.75072   0.49970   0.10188   0.00000  Uiso   1.00
C884   C     0.98815   0.09023   0.13200   0.00000  Uiso   1.00
C885   C     0.89568   0.46522   0.72487   0.00000  Uiso   1.00
C886   C     0.93477   0.46829   0.70973   0.00000  Uiso   1.00
C887   C     0.93622   0.48884   0.67094   0.00000  Uiso   1.00
C888   C     0.60471   0.05532   0.18435   0.00000  Uiso   1.00
C889   C     0.60333   0.01616   0.16976   0.00000  Uiso   1.00
C890   C     0.60293   0.01449   0.12520   0.00000  Uiso   1.00
C891   C     0.95791   0.09684   0.71561   0.00000  Uiso   1.00
C892   C     0.99924   0.09543   0.71260   0.00000  Uiso   1.00
C893   C     0.51155   0.08510   0.67150   0.00000  Uiso   1.00
C894   C     0.99983   0.24973   0.89814   0.00000  Uiso   1.00
C895   C     0.55129   0.38835   0.18512   0.00000  Uiso   1.00
C896   C     0.55994   0.42326   0.16243   0.00000  Uiso   1.00
C897   C     0.54158   0.42329   0.12233   0.00000  Uiso   1.00
C898   C     0.85226   0.20661   0.79014   0.00000  Uiso   1.00
C899   C     0.83267   0.24276   0.79505   0.00000  Uiso   1.00
C900   C     0.83048   0.25385   0.83793   0.00000  Uiso   1.00
C901   C     0.64060   0.30083   0.31290   0.00000  Uiso   1.00
C902   C     0.67654   0.30961   0.33369   0.00000  Uiso   1.00
C903   C     0.67951   0.28957   0.37277   0.00000  Uiso   1.00
C904   C     0.78738   0.33157   0.74698   0.00000  Uiso   1.00
C905   C     0.99979   0.24960   0.10207   0.00000  Uiso   1.00
C906   C     0.77992   0.29654   0.72359   0.00000  Uiso   1.00
C907   C     0.74443   0.27799   0.73538   0.00000  Uiso   1.00
C908   C     0.69188   0.13750   0.32324   0.00000  Uiso   1.00
C909   C     0.73080   0.13650   0.33906   0.00000  Uiso   1.00
C910   C     0.73140   0.13426   0.38358   0.00000  Uiso   1.00
C911   C     0.64756   0.28558   0.77331   0.00000  Uiso   1.00
C912   C     0.67160   0.30523   0.80374   0.00000  Uiso   1.00
C913   C     0.67984   0.28060   0.83845   0.00000  Uiso   1.00
C914   C     0.84320   0.19997   0.30546   0.00000  Uiso   1.00
C915   C     0.80792   0.22189   0.30568   0.00000  Uiso   1.00
C916   C     0.95926   0.19598   0.47960   0.00000  Uiso   1.00
C917   C     0.79419   0.22871   0.34713   0.00000  Uiso   1.00
C918   C     0.71583   0.14644   0.77301   0.00000  Uiso   1.00
C919   C     0.72347   0.18603   0.78399   0.00000  Uiso   1.00
C920   C     0.74429   0.18868   0.82246   0.00000  Uiso   1.00
C921   C     0.80700   0.35722   0.31862   0.00000  Uiso   1.00
C922   C     0.76821   0.35366   0.33420   0.00000  Uiso   1.00
C923   C     0.76700   0.35724   0.37862   0.00000  Uiso   1.00
C924   C     0.84972   0.28635   0.22860   0.00000  Uiso   1.00
C925   C     0.81142   0.29413   0.21290   0.00000  Uiso   1.00
C926   C     0.80139   0.26838   0.17963   0.00000  Uiso   1.00
C927   C     0.53304   0.30715   0.51995   0.00000  Uiso   1.00
C928   C     0.64943   0.19719   0.68702   0.00000  Uiso   1.00
C929   C     0.65417   0.23685   0.67466   0.00000  Uiso   1.00
C930   C     0.66188   0.24027   0.63098   0.00000  Uiso   1.00
C931   C     0.79243   0.15030   0.21427   0.00000  Uiso   1.00
C932   C     0.75113   0.15235   0.21111   0.00000  Uiso   1.00
C933   C     0.73908   0.16076   0.16942   0.00000  Uiso   1.00
C934   C     0.68960   0.36280   0.67812   0.00000  Uiso   1.00
C935   C     0.72745   0.35959   0.65994   0.00000  Uiso   1.00
C936   C     0.72858   0.37336   0.61794   0.00000  Uiso   1.00
C937   C     0.66686   0.21246   0.25231   0.00000  Uiso   1.00
C938   C     0.80476   0.03970   0.47937   0.00000  Uiso   1.00
C939   C     0.69931   0.22593   0.27640   0.00000  Uiso   1.00
C940   C     0.72279   0.25294   0.25392   0.00000  Uiso   1.00
C941   C     0.86309   0.30903   0.67602   0.00000  Uiso   1.00
C942   C     0.86101   0.27055   0.65920   0.00000  Uiso   1.00
C943   C     0.86534   0.27065   0.61484   0.00000  Uiso   1.00
C944   C     0.71400   0.35692   0.21828   0.00000  Uiso   1.00
C945   C     0.69337   0.33655   0.18559   0.00000  Uiso   1.00
C946   C     0.71380   0.33894   0.14685   0.00000  Uiso   1.00
C947   C     0.80236   0.15264   0.69169   0.00000  Uiso   1.00
C948   C     0.77815   0.18578   0.68536   0.00000  Uiso   1.00
C949   C     0.69342   0.46603   0.52101   0.00000  Uiso   1.00
C950   C     0.77644   0.19653   0.64230   0.00000  Uiso   1.00
C951   C     0.53459   0.30617   0.47900   0.00000  Uiso   1.00
C952   C     0.72217   0.48271   0.41845   0.00000  Uiso   1.00
C953   C     0.96002   0.19553   0.52072   0.00000  Uiso   1.00
C954   C     0.69197   0.46830   0.48005   0.00000  Uiso   1.00
C955   C     0.80362   0.04145   0.52034   0.00000  Uiso   1.00
C956   C     0.71697   0.44274   0.97918   0.00000  Uiso   1.00
C957   C     0.78930   0.05481   0.02056   0.00000  Uiso   1.00
C958   C     0.55927   0.27969   0.97972   0.00000  Uiso   1.00
C959   C     0.94356   0.21319   0.02068   0.00000  Uiso   1.00
C960   C     0.79026   0.05423   0.97945   0.00000  Uiso   1.00
C961   C     0.71949   0.44123   0.02013   0.00000  Uiso   1.00
C962   C     0.94219   0.21563   0.97973   0.00000  Uiso   1.00
C963   C     0.77702   0.02035   0.58196   0.00000  Uiso   1.00
C964   C     0.55861   0.28099   0.02071   0.00000  Uiso   1.00
C965   C     0.74999   0.00007   0.35582   0.00000  Uiso   1.00
C966   C     0.75040   0.00006   0.64423   0.00000  Uiso   1.00
C967   C     0.99993   0.24957   0.35576   0.00000  Uiso   1.00
C968   C     0.99995   0.24994   0.64417   0.00000  Uiso   1.00
C969   C     0.99987   0.24996   0.85582   0.00000  Uiso   1.00
C970   C     0.99977   0.24995   0.14426   0.00000  Uiso   1.00
C971   C     0.75002   0.00038   0.85578   0.00000  Uiso   1.00
C972   C     0.75010   0.49995   0.14418   0.00000  Uiso   1.00
C973   C     0.67976   0.06993   0.25029   0.00000  Uiso   1.00
C974   C     0.98001   0.22268   0.41803   0.00000  Uiso   1.00
C975   C     0.81990   0.42980   0.74991   0.00000  Uiso   1.00
C976   C     0.92991   0.17990   0.25003   0.00000  Uiso   1.00
C977   C     0.56996   0.31997   0.75002   0.00000  Uiso   1.00
C978   C     0.81995   0.42977   0.24968   0.00000  Uiso   1.00
C979   C     0.67994   0.07005   0.75026   0.00000  Uiso   1.00
C980   C     0.57014   0.32010   0.24993   0.00000  Uiso   1.00
C981   C     0.93000   0.18006   0.75011   0.00000  Uiso   1.00
C982   C     0.67976   0.43004   0.74987   0.00000  Uiso   1.00
C983   C     0.82011   0.06983   0.25016   0.00000  Uiso   1.00
C984   C     0.93009   0.32027   0.74961   0.00000  Uiso   1.00
C985   C     0.51800   0.27727   0.58154   0.00000  Uiso   1.00
C986   C     0.57003   0.17994   0.25027   0.00000  Uiso   1.00
C987   C     0.82014   0.07005   0.74992   0.00000  Uiso   1.00
C988   C     0.67997   0.43013   0.25006   0.00000  Uiso   1.00
C989   C     0.57029   0.18010   0.75035   0.00000  Uiso   1.00
C990   C     0.93001   0.32013   0.24982   0.00000  Uiso   1.00
C991   C     0.61554   0.41152   0.24292   0.00000  Uiso   1.00
C992   C     0.88470   0.08899   0.75850   0.00000  Uiso   1.00
C993   C     0.58860   0.11565   0.24172   0.00000  Uiso   1.00
C994   C     0.91047   0.38425   0.76095   0.00000  Uiso   1.00
C995   C     0.88476   0.08804   0.24544   0.00000  Uiso   1.00
C996   C     0.77652   0.02042   0.41797   0.00000  Uiso   1.00
C997   C     0.61619   0.40986   0.76392   0.00000  Uiso   1.00
C998   C     0.90997   0.38327   0.23441   0.00000  Uiso   1.00
C999   C     0.59081   0.11768   0.76707   0.00000  Uiso   1.00
C1000  C     0.61666   0.08995   0.76463   0.00000  Uiso   1.00
C1001  C     0.88193   0.40874   0.23134   0.00000  Uiso   1.00
C1002  C     0.58858   0.38426   0.75882   0.00000  Uiso   1.00
C1003  C     0.91111   0.11530   0.24137   0.00000  Uiso   1.00
C1004  C     0.88439   0.41148   0.75705   0.00000  Uiso   1.00
C1005  C     0.61591   0.08964   0.23813   0.00000  Uiso   1.00
C1006  C     0.91182   0.11556   0.75448   0.00000  Uiso   1.00
C1007  C     0.72337   0.48176   0.58195   0.00000  Uiso   1.00
C1008  C     0.58989   0.38402   0.23766   0.00000  Uiso   1.00
C1009  C     0.86527   0.16184   0.74716   0.00000  Uiso   1.00
C1010  C     0.63434   0.33971   0.26090   0.00000  Uiso   1.00
C1011  C     0.83953   0.36619   0.73629   0.00000  Uiso   1.00
C1012  C     0.65927   0.13240   0.26680   0.00000  Uiso   1.00
C1013  C     0.63406   0.33910   0.74107   0.00000  Uiso   1.00
C1014  C     0.86544   0.16071   0.25886   0.00000  Uiso   1.00
C1015  C     0.66158   0.13447   0.74204   0.00000  Uiso   1.00
C1016  C     0.84019   0.36649   0.26352   0.00000  Uiso   1.00
C1017  C     0.86599   0.33907   0.25938   0.00000  Uiso   1.00
C1018  C     0.76979   0.02729   0.91799   0.00000  Uiso   1.00
C1019  C     0.63431   0.16066   0.73853   0.00000  Uiso   1.00
C1020  C     0.83836   0.13421   0.25462   0.00000  Uiso   1.00
C1021  C     0.65925   0.36694   0.73562   0.00000  Uiso   1.00
C1022  C     0.63345   0.16016   0.26405   0.00000  Uiso   1.00
C1023  C     0.86752   0.34064   0.73309   0.00000  Uiso   1.00
C1024  C     0.66179   0.36545   0.25537   0.00000  Uiso   1.00
C1025  C     0.83908   0.13466   0.74202   0.00000  Uiso   1.00
C1026  C     0.97927   0.22259   0.45892   0.00000  Uiso   1.00
C1027  C     0.51688   0.27823   0.54073   0.00000  Uiso   1.00
C1028  C     0.77715   0.02085   0.45887   0.00000  Uiso   1.00
H1029  H     0.53194   0.29770   0.40133   0.00000  Uiso   1.00
H1030  H     0.71968   0.45030   0.09796   0.00000  Uiso   1.00
H1031  H     0.90667   0.08855   0.06456   0.00000  Uiso   1.00
H1032  H     0.84527   0.04361   0.93700   0.00000  Uiso   1.00
H1033  H     0.85956   0.06753   0.98085   0.00000  Uiso   1.00
H1034  H     0.84792   0.10313   0.90016   0.00000  Uiso   1.00
H1035  H     0.86541   0.12477   0.94355   0.00000  Uiso   1.00
H1036  H     0.91907   0.08305   0.94295   0.00000  Uiso   1.00
H1037  H     0.91519   0.10800   0.89772   0.00000  Uiso   1.00
H1038  H     0.90118   0.06097   0.89973   0.00000  Uiso   1.00
H1039  H     0.75045   0.38811   0.07107   0.00000  Uiso   1.00
H1040  H     0.75914   0.39000   0.01915   0.00000  Uiso   1.00
H1041  H     0.94975   0.21972   0.90171   0.00000  Uiso   1.00
H1042  H     0.70200   0.34133   0.05914   0.00000  Uiso   1.00
H1043  H     0.71038   0.34409   0.00737   0.00000  Uiso   1.00
H1044  H     0.77448   0.32311   0.01815   0.00000  Uiso   1.00
H1045  H     0.74167   0.29096   0.03703   0.00000  Uiso   1.00
H1046  H     0.76587   0.32046   0.07027   0.00000  Uiso   1.00
H1047  H     0.89127   0.24862   0.93945   0.00000  Uiso   1.00
H1048  H     0.87837   0.23650   0.98906   0.00000  Uiso   1.00
H1049  H     0.85465   0.19669   0.91408   0.00000  Uiso   1.00
H1050  H     0.84328   0.18330   0.96344   0.00000  Uiso   1.00
H1051  H     0.81108   0.24153   0.97443   0.00000  Uiso   1.00
H1052  H     0.55050   0.27796   0.09861   0.00000  Uiso   1.00
H1053  H     0.79332   0.21868   0.93182   0.00000  Uiso   1.00
H1054  H     0.82360   0.25707   0.92600   0.00000  Uiso   1.00
H1055  H     0.56775   0.33480   0.07373   0.00000  Uiso   1.00
H1056  H     0.57531   0.34613   0.02287   0.00000  Uiso   1.00
H1057  H     0.63734   0.32686   0.07954   0.00000  Uiso   1.00
H1058  H     0.64066   0.34566   0.03097   0.00000  Uiso   1.00
H1059  H     0.60769   0.40211   0.05577   0.00000  Uiso   1.00
H1060  H     0.65072   0.39382   0.07959   0.00000  Uiso   1.00
H1061  H     0.60942   0.38242   0.10454   0.00000  Uiso   1.00
H1062  H     0.59311   0.49262   0.27171   0.00000  Uiso   1.00
H1063  H     0.71736   0.45249   0.90171   0.00000  Uiso   1.00
H1064  H     0.63205   0.46867   0.28798   0.00000  Uiso   1.00
H1065  H     0.55378   0.43730   0.29492   0.00000  Uiso   1.00
H1066  H     0.59430   0.42075   0.31809   0.00000  Uiso   1.00
H1067  H     0.59956   0.47886   0.35589   0.00000  Uiso   1.00
H1068  H     0.55690   0.45555   0.36467   0.00000  Uiso   1.00
H1069  H     0.55811   0.49490   0.33325   0.00000  Uiso   1.00
H1070  H     0.88394   0.03667   0.82288   0.00000  Uiso   1.00
H1071  H     0.91231   0.07649   0.82054   0.00000  Uiso   1.00
H1072  H     0.93366   0.49921   0.79496   0.00000  Uiso   1.00
H1073  H     0.96181   0.03915   0.78945   0.00000  Uiso   1.00
H1074  H     0.78379   0.04780   0.09851   0.00000  Uiso   1.00
H1075  H     0.96040   0.04783   0.86249   0.00000  Uiso   1.00
H1076  H     0.97879   0.00432   0.84863   0.00000  Uiso   1.00
H1077  H     0.93287   0.00703   0.86699   0.00000  Uiso   1.00
H1078  H     0.51086   0.12052   0.27285   0.00000  Uiso   1.00
H1079  H     0.55204   0.11135   0.29883   0.00000  Uiso   1.00
H1080  H     0.50120   0.05621   0.25844   0.00000  Uiso   1.00
H1081  H     0.54561   0.04456   0.27686   0.00000  Uiso   1.00
H1082  H     0.52739   0.06389   0.34374   0.00000  Uiso   1.00
H1083  H     0.99606   0.03045   0.32479   0.00000  Uiso   1.00
H1084  H     0.98327   0.07780   0.32568   0.00000  Uiso   1.00
H1085  H     0.55027   0.27901   0.90186   0.00000  Uiso   1.00
H1086  H     0.93125   0.37352   0.82864   0.00000  Uiso   1.00
H1087  H     0.93095   0.42267   0.82267   0.00000  Uiso   1.00
H1088  H     0.99887   0.37390   0.81940   0.00000  Uiso   1.00
H1089  H     0.99784   0.42279   0.81536   0.00000  Uiso   1.00
H1090  H     0.97367   0.42790   0.88286   0.00000  Uiso   1.00
H1091  H     0.51460   0.40086   0.88285   0.00000  Uiso   1.00
H1092  H     0.97102   0.37879   0.88696   0.00000  Uiso   1.00
H1093  H     0.88383   0.05227   0.30512   0.00000  Uiso   1.00
H1094  H     0.93116   0.04922   0.29033   0.00000  Uiso   1.00
H1095  H     0.87184   0.49084   0.27817   0.00000  Uiso   1.00
H1096  H     0.94986   0.21958   0.09876   0.00000  Uiso   1.00
H1097  H     0.91883   0.48730   0.26377   0.00000  Uiso   1.00
H1098  H     0.93823   0.49273   0.33350   0.00000  Uiso   1.00
H1099  H     0.90697   0.45532   0.32674   0.00000  Uiso   1.00
H1100  H     0.89109   0.49711   0.34832   0.00000  Uiso   1.00
H1101  H     0.62160   0.47651   0.82223   0.00000  Uiso   1.00
H1102  H     0.63594   0.43063   0.82807   0.00000  Uiso   1.00
H1103  H     0.55440   0.44902   0.82419   0.00000  Uiso   1.00
H1104  H     0.57615   0.40990   0.84517   0.00000  Uiso   1.00
H1105  H     0.60490   0.45274   0.89593   0.00000  Uiso   1.00
H1106  H     0.55581   0.45030   0.89805   0.00000  Uiso   1.00
H1107  H     0.90380   0.20677   0.43790   0.00000  Uiso   1.00
H1108  H     0.57776   0.48896   0.87581   0.00000  Uiso   1.00
H1109  H     0.98701   0.40481   0.25487   0.00000  Uiso   1.00
H1110  H     0.94621   0.42806   0.26777   0.00000  Uiso   1.00
H1111  H     0.98733   0.43933   0.18977   0.00000  Uiso   1.00
H1112  H     0.94997   0.46542   0.20696   0.00000  Uiso   1.00
H1113  H     0.98772   0.48499   0.26557   0.00000  Uiso   1.00
H1114  H     0.50489   0.49989   0.21864   0.00000  Uiso   1.00
H1115  H     0.52605   0.46238   0.24303   0.00000  Uiso   1.00
H1116  H     0.57229   0.13859   0.83296   0.00000  Uiso   1.00
H1117  H     0.57228   0.08933   0.83635   0.00000  Uiso   1.00
H1118  H     0.88987   0.18252   0.48178   0.00000  Uiso   1.00
H1119  H     0.50461   0.13806   0.82675   0.00000  Uiso   1.00
H1120  H     0.50420   0.08933   0.83016   0.00000  Uiso   1.00
H1121  H     0.53196   0.09311   0.89705   0.00000  Uiso   1.00
H1122  H     0.98961   0.11760   0.89405   0.00000  Uiso   1.00
H1123  H     0.53211   0.14232   0.89352   0.00000  Uiso   1.00
H1124  H     0.59771   0.01327   0.74248   0.00000  Uiso   1.00
H1125  H     0.57253   0.05328   0.73053   0.00000  Uiso   1.00
H1126  H     0.56251   0.01066   0.80766   0.00000  Uiso   1.00
H1127  H     0.53438   0.04625   0.78969   0.00000  Uiso   1.00
H1128  H     0.51778   0.00738   0.73123   0.00000  Uiso   1.00
H1129  H     0.90096   0.14749   0.40078   0.00000  Uiso   1.00
H1130  H     0.50456   0.48795   0.77777   0.00000  Uiso   1.00
H1131  H     0.54379   0.47102   0.75315   0.00000  Uiso   1.00
H1132  H     0.85639   0.42362   0.16626   0.00000  Uiso   1.00
H1133  H     0.90532   0.42174   0.15912   0.00000  Uiso   1.00
H1134  H     0.86124   0.49245   0.16872   0.00000  Uiso   1.00
H1135  H     0.90878   0.48879   0.15680   0.00000  Uiso   1.00
H1136  H     0.89239   0.45653   0.09437   0.00000  Uiso   1.00
H1137  H     0.87205   0.00104   0.09752   0.00000  Uiso   1.00
H1138  H     0.84458   0.46115   0.10646   0.00000  Uiso   1.00
H1139  H     0.50846   0.41068   0.73093   0.00000  Uiso   1.00
H1140  H     0.96505   0.20289   0.59864   0.00000  Uiso   1.00
H1141  H     0.88396   0.12544   0.44422   0.00000  Uiso   1.00
H1142  H     0.52697   0.36830   0.71675   0.00000  Uiso   1.00
H1143  H     0.56891   0.44072   0.70365   0.00000  Uiso   1.00
H1144  H     0.57711   0.39736   0.68141   0.00000  Uiso   1.00
H1145  H     0.51731   0.40084   0.64698   0.00000  Uiso   1.00
H1146  H     0.54620   0.43953   0.63599   0.00000  Uiso   1.00
H1147  H     0.50890   0.44451   0.66961   0.00000  Uiso   1.00
H1148  H     0.93371   0.12187   0.17346   0.00000  Uiso   1.00
H1149  H     0.93241   0.07334   0.18339   0.00000  Uiso   1.00
H1150  H     0.50122   0.12140   0.18360   0.00000  Uiso   1.00
H1151  H     0.99941   0.07277   0.19094   0.00000  Uiso   1.00
H1152  H     0.83030   0.16775   0.44448   0.00000  Uiso   1.00
H1153  H     0.97334   0.06500   0.12370   0.00000  Uiso   1.00
H1154  H     0.51703   0.08757   0.12292   0.00000  Uiso   1.00
H1155  H     0.97607   0.11375   0.11636   0.00000  Uiso   1.00
H1156  H     0.88461   0.49296   0.72897   0.00000  Uiso   1.00
H1157  H     0.87834   0.45213   0.70201   0.00000  Uiso   1.00
H1158  H     0.95174   0.48294   0.73142   0.00000  Uiso   1.00
H1159  H     0.94624   0.44066   0.70556   0.00000  Uiso   1.00
H1160  H     0.92188   0.47314   0.64786   0.00000  Uiso   1.00
H1161  H     0.96496   0.49291   0.66189   0.00000  Uiso   1.00
H1162  H     0.92327   0.01593   0.67388   0.00000  Uiso   1.00
H1163  H     0.83348   0.14225   0.39957   0.00000  Uiso   1.00
H1164  H     0.62889   0.06897   0.17093   0.00000  Uiso   1.00
H1165  H     0.57954   0.06955   0.17480   0.00000  Uiso   1.00
H1166  H     0.62745   0.00116   0.18073   0.00000  Uiso   1.00
H1167  H     0.57844   0.00290   0.18144   0.00000  Uiso   1.00
H1168  H     0.57784   0.02736   0.11365   0.00000  Uiso   1.00
H1169  H     0.60368   0.48570   0.11561   0.00000  Uiso   1.00
H1170  H     0.62717   0.02863   0.11297   0.00000  Uiso   1.00
H1171  H     0.94802   0.11751   0.69417   0.00000  Uiso   1.00
H1172  H     0.94649   0.06974   0.70783   0.00000  Uiso   1.00
H1173  H     0.51080   0.12248   0.72021   0.00000  Uiso   1.00
H1174  H     0.84765   0.18927   0.40063   0.00000  Uiso   1.00
H1175  H     0.50956   0.07509   0.73366   0.00000  Uiso   1.00
H1176  H     0.50069   0.05789   0.66345   0.00000  Uiso   1.00
H1177  H     0.54173   0.08420   0.67044   0.00000  Uiso   1.00
H1178  H     0.50196   0.10559   0.65001   0.00000  Uiso   1.00
H1179  H     0.52244   0.38062   0.17983   0.00000  Uiso   1.00
H1180  H     0.56805   0.36559   0.17330   0.00000  Uiso   1.00
H1181  H     0.55025   0.44714   0.17904   0.00000  Uiso   1.00
H1182  H     0.58988   0.42590   0.15875   0.00000  Uiso   1.00
H1183  H     0.54804   0.39811   0.10596   0.00000  Uiso   1.00
H1184  H     0.55096   0.44711   0.10510   0.00000  Uiso   1.00
H1185  H     0.99973   0.35617   0.56474   0.00000  Uiso   1.00
H1186  H     0.51158   0.42502   0.12567   0.00000  Uiso   1.00
H1187  H     0.88009   0.20921   0.80270   0.00000  Uiso   1.00
H1188  H     0.83680   0.18558   0.80698   0.00000  Uiso   1.00
H1189  H     0.84747   0.26421   0.77853   0.00000  Uiso   1.00
H1190  H     0.80463   0.24005   0.78335   0.00000  Uiso   1.00
H1191  H     0.81545   0.23291   0.85497   0.00000  Uiso   1.00
H1192  H     0.81582   0.28009   0.84046   0.00000  Uiso   1.00
H1193  H     0.85821   0.25722   0.85035   0.00000  Uiso   1.00
H1194  H     0.63312   0.27198   0.31855   0.00000  Uiso   1.00
H1195  H     0.61825   0.31742   0.32589   0.00000  Uiso   1.00
H1196  H     0.50530   0.36765   0.51345   0.00000  Uiso   1.00
H1197  H     0.69978   0.30158   0.31504   0.00000  Uiso   1.00
H1198  H     0.67847   0.33940   0.33871   0.00000  Uiso   1.00
H1199  H     0.65492   0.29405   0.39093   0.00000  Uiso   1.00
H1200  H     0.70378   0.29935   0.38897   0.00000  Uiso   1.00
H1201  H     0.68247   0.25990   0.36792   0.00000  Uiso   1.00
H1202  H     0.76116   0.34363   0.75653   0.00000  Uiso   1.00
H1203  H     0.80251   0.32475   0.77432   0.00000  Uiso   1.00
H1204  H     0.77927   0.30238   0.69184   0.00000  Uiso   1.00
H1205  H     0.80219   0.27691   0.72817   0.00000  Uiso   1.00
H1206  H     0.74456   0.27151   0.76710   0.00000  Uiso   1.00
H1207  H     0.55152   0.39703   0.58122   0.00000  Uiso   1.00
H1208  H     0.74111   0.25242   0.71861   0.00000  Uiso   1.00
H1209  H     0.72105   0.29569   0.72837   0.00000  Uiso   1.00
H1210  H     0.67749   0.11229   0.33304   0.00000  Uiso   1.00
H1211  H     0.67769   0.16162   0.33551   0.00000  Uiso   1.00
H1212  H     0.74521   0.11253   0.32690   0.00000  Uiso   1.00
H1213  H     0.74568   0.16130   0.32959   0.00000  Uiso   1.00
H1214  H     0.71774   0.15833   0.39647   0.00000  Uiso   1.00
H1215  H     0.76003   0.13368   0.39394   0.00000  Uiso   1.00
H1216  H     0.71745   0.10909   0.39368   0.00000  Uiso   1.00
H1217  H     0.65929   0.25829   0.76782   0.00000  Uiso   1.00
H1218  H     0.55801   0.40746   0.53011   0.00000  Uiso   1.00
H1219  H     0.61999   0.28078   0.78565   0.00000  Uiso   1.00
H1220  H     0.69758   0.31417   0.79025   0.00000  Uiso   1.00
H1221  H     0.65729   0.32975   0.81477   0.00000  Uiso   1.00
H1222  H     0.65413   0.27101   0.85216   0.00000  Uiso   1.00
H1223  H     0.69596   0.29589   0.86046   0.00000  Uiso   1.00
H1224  H     0.69588   0.25676   0.82883   0.00000  Uiso   1.00
H1225  H     0.86424   0.21499   0.32236   0.00000  Uiso   1.00
H1226  H     0.83820   0.17364   0.32097   0.00000  Uiso   1.00
H1227  H     0.81256   0.24850   0.29125   0.00000  Uiso   1.00
H1228  H     0.78671   0.20695   0.28901   0.00000  Uiso   1.00
H1229  H     0.99570   0.43432   0.52693   0.00000  Uiso   1.00
H1230  H     0.78909   0.20255   0.36245   0.00000  Uiso   1.00
H1231  H     0.76831   0.24417   0.34594   0.00000  Uiso   1.00
H1232  H     0.81447   0.24486   0.36386   0.00000  Uiso   1.00
H1233  H     0.74213   0.13199   0.76983   0.00000  Uiso   1.00
H1234  H     0.70113   0.13285   0.79767   0.00000  Uiso   1.00
H1235  H     0.73988   0.19914   0.76069   0.00000  Uiso   1.00
H1236  H     0.69733   0.20086   0.78676   0.00000  Uiso   1.00
H1237  H     0.72776   0.17722   0.84676   0.00000  Uiso   1.00
H1238  H     0.75038   0.21762   0.82902   0.00000  Uiso   1.00
H1239  H     0.77038   0.17368   0.82041   0.00000  Uiso   1.00
H1240  H     0.52318   0.45618   0.56379   0.00000  Uiso   1.00
H1241  H     0.81917   0.38286   0.33034   0.00000  Uiso   1.00
H1242  H     0.82317   0.33361   0.32916   0.00000  Uiso   1.00
H1243  H     0.75089   0.37516   0.32105   0.00000  Uiso   1.00
H1244  H     0.75715   0.32671   0.32562   0.00000  Uiso   1.00
H1245  H     0.78260   0.33487   0.39249   0.00000  Uiso   1.00
H1246  H     0.73834   0.35581   0.38878   0.00000  Uiso   1.00
H1247  H     0.77859   0.38382   0.38785   0.00000  Uiso   1.00
H1248  H     0.85268   0.25670   0.23297   0.00000  Uiso   1.00
H1249  H     0.87052   0.29394   0.20622   0.00000  Uiso   1.00
H1250  H     0.79131   0.29102   0.23683   0.00000  Uiso   1.00
H1251  H     0.70124   0.46833   0.40225   0.00000  Uiso   1.00
H1252  H     0.98870   0.42372   0.57815   0.00000  Uiso   1.00
H1253  H     0.81009   0.32256   0.20201   0.00000  Uiso   1.00
H1254  H     0.82069   0.27174   0.15487   0.00000  Uiso   1.00
H1255  H     0.77347   0.27439   0.16922   0.00000  Uiso   1.00
H1256  H     0.80197   0.23979   0.18993   0.00000  Uiso   1.00
H1257  H     0.62583   0.18546   0.67078   0.00000  Uiso   1.00
H1258  H     0.67454   0.18207   0.67908   0.00000  Uiso   1.00
H1259  H     0.62896   0.25212   0.68170   0.00000  Uiso   1.00
H1260  H     0.67715   0.24913   0.69114   0.00000  Uiso   1.00
H1261  H     0.68730   0.22566   0.62332   0.00000  Uiso   1.00
H1262  H     0.66525   0.26942   0.62319   0.00000  Uiso   1.00
H1263  H     0.86901   0.04541   0.41835   0.00000  Uiso   1.00
H1264  H     0.63890   0.22884   0.61380   0.00000  Uiso   1.00
H1265  H     0.80179   0.12790   0.19470   0.00000  Uiso   1.00
H1266  H     0.80456   0.17637   0.20402   0.00000  Uiso   1.00
H1267  H     0.73906   0.12598   0.22040   0.00000  Uiso   1.00
H1268  H     0.74115   0.17396   0.23080   0.00000  Uiso   1.00
H1269  H     0.75025   0.18743   0.15984   0.00000  Uiso   1.00
H1270  H     0.70891   0.16194   0.16823   0.00000  Uiso   1.00
H1271  H     0.74852   0.13916   0.14916   0.00000  Uiso   1.00
H1272  H     0.67801   0.38984   0.67021   0.00000  Uiso   1.00
H1273  H     0.67178   0.34110   0.66575   0.00000  Uiso   1.00
H1274  H     0.85150   0.00699   0.44422   0.00000  Uiso   1.00
H1275  H     0.74735   0.37550   0.67747   0.00000  Uiso   1.00
H1276  H     0.73544   0.33060   0.66001   0.00000  Uiso   1.00
H1277  H     0.71019   0.35682   0.59940   0.00000  Uiso   1.00
H1278  H     0.75668   0.37091   0.60632   0.00000  Uiso   1.00
H1279  H     0.72049   0.40238   0.61663   0.00000  Uiso   1.00
H1280  H     0.65276   0.23618   0.23919   0.00000  Uiso   1.00
H1281  H     0.67694   0.19549   0.22754   0.00000  Uiso   1.00
H1282  H     0.68935   0.23886   0.30349   0.00000  Uiso   1.00
H1283  H     0.71659   0.20289   0.28534   0.00000  Uiso   1.00
H1284  H     0.73312   0.24068   0.22644   0.00000  Uiso   1.00
H1285  H     0.89892   0.06791   0.48112   0.00000  Uiso   1.00
H1286  H     0.74610   0.26121   0.27246   0.00000  Uiso   1.00
H1287  H     0.70691   0.27756   0.24714   0.00000  Uiso   1.00
H1288  H     0.88950   0.32155   0.66698   0.00000  Uiso   1.00
H1289  H     0.84036   0.32542   0.66381   0.00000  Uiso   1.00
H1290  H     0.88285   0.25361   0.67224   0.00000  Uiso   1.00
H1291  H     0.83435   0.25809   0.66686   0.00000  Uiso   1.00
H1292  H     0.84348   0.28702   0.60108   0.00000  Uiso   1.00
H1293  H     0.86348   0.24235   0.60369   0.00000  Uiso   1.00
H1294  H     0.89229   0.28209   0.60653   0.00000  Uiso   1.00
H1295  H     0.74169   0.34511   0.22053   0.00000  Uiso   1.00
H1296  H     0.88426   0.02643   0.50454   0.00000  Uiso   1.00
H1297  H     0.71811   0.38575   0.20977   0.00000  Uiso   1.00
H1298  H     0.68975   0.30755   0.19349   0.00000  Uiso   1.00
H1299  H     0.66598   0.34857   0.18116   0.00000  Uiso   1.00
H1300  H     0.71442   0.36750   0.13624   0.00000  Uiso   1.00
H1301  H     0.69969   0.32178   0.12488   0.00000  Uiso   1.00
H1302  H     0.74211   0.32903   0.15014   0.00000  Uiso   1.00
H1303  H     0.79034   0.12901   0.67604   0.00000  Uiso   1.00
H1304  H     0.82943   0.15851   0.67803   0.00000  Uiso   1.00
H1305  H     0.75017   0.17959   0.69567   0.00000  Uiso   1.00
H1306  H     0.78915   0.20898   0.70251   0.00000  Uiso   1.00
H1307  H     0.91908   0.49005   0.45527   0.00000  Uiso   1.00
H1308  H     0.80406   0.20312   0.63109   0.00000  Uiso   1.00
H1309  H     0.75899   0.22091   0.63895   0.00000  Uiso   1.00
H1310  H     0.76465   0.17400   0.62472   0.00000  Uiso   1.00
H1311  H     0.94795   0.02134   0.48161   0.00000  Uiso   1.00
H1312  H     0.93431   0.03182   0.43223   0.00000  Uiso   1.00
H1313  H     0.69284   0.40213   0.54367   0.00000  Uiso   1.00
H1314  H     0.65479   0.40455   0.51003   0.00000  Uiso   1.00
H1315  H     0.79781   0.03452   0.59853   0.00000  Uiso   1.00
H1316  H     0.65267   0.40188   0.59999   0.00000  Uiso   1.00
H1317  H     0.61384   0.41268   0.57057   0.00000  Uiso   1.00
H1318  H     0.61793   0.35322   0.53659   0.00000  Uiso   1.00
H1319  H     0.61501   0.34692   0.58879   0.00000  Uiso   1.00
H1320  H     0.65809   0.34166   0.56408   0.00000  Uiso   1.00
H1321  H     0.59009   0.31369   0.42708   0.00000  Uiso   1.00
H1322  H     0.60010   0.32043   0.47840   0.00000  Uiso   1.00
H1323  H     0.58501   0.38327   0.42120   0.00000  Uiso   1.00
H1324  H     0.60130   0.38597   0.47077   0.00000  Uiso   1.00
H1325  H     0.65788   0.35073   0.44899   0.00000  Uiso   1.00
H1326  H     0.96570   0.20193   0.40152   0.00000  Uiso   1.00
H1327  H     0.65265   0.39459   0.42600   0.00000  Uiso   1.00
H1328  H     0.64095   0.35452   0.39921   0.00000  Uiso   1.00
H1329  H     0.98650   0.14225   0.55676   0.00000  Uiso   1.00
H1330  H     0.96199   0.12467   0.51460   0.00000  Uiso   1.00
H1331  H     0.93630   0.12313   0.60043   0.00000  Uiso   1.00
H1332  H     0.91009   0.10735   0.55924   0.00000  Uiso   1.00
H1333  H     0.95730   0.06124   0.54380   0.00000  Uiso   1.00
H1334  H     0.94157   0.05642   0.59353   0.00000  Uiso   1.00
H1335  H     0.98511   0.07746   0.58387   0.00000  Uiso   1.00
H1336  H     0.64368   0.00251   0.43343   0.00000  Uiso   1.00
H1337  H     0.53255   0.29806   0.59776   0.00000  Uiso   1.00
H1338  H     0.63411   0.00041   0.48546   0.00000  Uiso   1.00
H1339  H     0.59946   0.45086   0.42333   0.00000  Uiso   1.00
H1340  H     0.59012   0.45057   0.47509   0.00000  Uiso   1.00
H1341  H     0.56756   0.01439   0.47136   0.00000  Uiso   1.00
H1342  H     0.54296   0.48494   0.43843   0.00000  Uiso   1.00
H1343  H     0.57726   0.01544   0.41943   0.00000  Uiso   1.00
H1344  H     0.83133   0.10019   0.58129   0.00000  Uiso   1.00
H1345  H     0.78802   0.09497   0.55842   0.00000  Uiso   1.00
H1346  H     0.85774   0.12205   0.51620   0.00000  Uiso   1.00
H1347  H     0.81226   0.12093   0.49655   0.00000  Uiso   1.00
H1348  H     0.79705   0.03487   0.40124   0.00000  Uiso   1.00
H1349  H     0.79203   0.16487   0.54836   0.00000  Uiso   1.00
H1350  H     0.82841   0.18307   0.51869   0.00000  Uiso   1.00
H1351  H     0.83809   0.16648   0.56718   0.00000  Uiso   1.00
H1352  H     0.65260   0.44051   0.95874   0.00000  Uiso   1.00
H1353  H     0.65693   0.40154   0.99103   0.00000  Uiso   1.00
H1354  H     0.65176   0.40255   0.90122   0.00000  Uiso   1.00
H1355  H     0.66503   0.36296   0.92843   0.00000  Uiso   1.00
H1356  H     0.60692   0.36277   0.96454   0.00000  Uiso   1.00
H1357  H     0.59831   0.36311   0.91263   0.00000  Uiso   1.00
H1358  H     0.59287   0.40418   0.94096   0.00000  Uiso   1.00
H1359  H     0.70278   0.46712   0.59843   0.00000  Uiso   1.00
H1360  H     0.76085   0.10760   0.05510   0.00000  Uiso   1.00
H1361  H     0.78609   0.12577   0.01367   0.00000  Uiso   1.00
H1362  H     0.80904   0.12797   0.10033   0.00000  Uiso   1.00
H1363  H     0.83636   0.14410   0.06009   0.00000  Uiso   1.00
H1364  H     0.78902   0.18934   0.04249   0.00000  Uiso   1.00
H1365  H     0.80265   0.19449   0.09289   0.00000  Uiso   1.00
H1366  H     0.75993   0.17261   0.08140   0.00000  Uiso   1.00
H1367  H     0.60838   0.24689   0.93415   0.00000  Uiso   1.00
H1368  H     0.62012   0.25213   0.98537   0.00000  Uiso   1.00
H1369  H     0.64874   0.29948   0.91783   0.00000  Uiso   1.00
H1370  H     0.78387   0.04818   0.90140   0.00000  Uiso   1.00
H1371  H     0.65952   0.30520   0.96888   0.00000  Uiso   1.00
H1372  H     0.68689   0.24305   0.97065   0.00000  Uiso   1.00
H1373  H     0.70827   0.27138   0.93412   0.00000  Uiso   1.00
H1374  H     0.67597   0.23694   0.91940   0.00000  Uiso   1.00
H1375  H     0.91141   0.15494   0.08046   0.00000  Uiso   1.00
H1376  H     0.95596   0.15945   0.06031   0.00000  Uiso   1.00
H1377  H     0.88752   0.13435   0.01455   0.00000  Uiso   1.00
H1378  H     0.93335   0.13628   0.99584   0.00000  Uiso   1.00
H1379  H     0.95298   0.09098   0.04647   0.00000  Uiso   1.00
H1380  H     0.91727   0.07338   0.01578   0.00000  Uiso   1.00
O1381  O     0.75000   0.00000   0.25000   0.00000  Uiso   1.00
O1382  O     0.75000   0.46964   0.66245   0.00000  Uiso   1.00
O1383  O     0.80392   0.14440   0.73224   0.00000  Uiso   1.00
O1384  O     0.96963   0.25000   0.33755   0.00000  Uiso   1.00
O1385  O     0.53036   0.25000   0.66245   0.00000  Uiso   1.00
O1386  O     0.50000   0.21963   0.83755   0.00000  Uiso   1.00
O1387  O     0.50000   0.28036   0.16245   0.00000  Uiso   1.00
O1388  O     0.78036   0.00000   0.83755   0.00000  Uiso   1.00
O1389  O     0.71963   0.00000   0.16245   0.00000  Uiso   1.00
O1390  O     0.50000   0.28036   0.83755   0.00000  Uiso   1.00
O1391  O     0.50000   0.21963   0.16245   0.00000  Uiso   1.00
O1392  O     0.71963   0.00000   0.83755   0.00000  Uiso   1.00
O1393  O     0.75000  -0.00000   0.75000   0.00000  Uiso   1.00
O1394  O     0.78036   0.00000   0.16245   0.00000  Uiso   1.00
O1395  O     0.70724   0.07307   0.27302   0.00000  Uiso   1.00
O1396  O     0.79275   0.42692   0.72698   0.00000  Uiso   1.00
O1397  O     0.92692   0.20724   0.27302   0.00000  Uiso   1.00
O1398  O     0.57307   0.29276   0.72698   0.00000  Uiso   1.00
O1399  O     0.79275   0.42692   0.27302   0.00000  Uiso   1.00
O1400  O     0.70724   0.07307   0.72698   0.00000  Uiso   1.00
O1401  O     0.57307   0.29276   0.27302   0.00000  Uiso   1.00
O1402  O     0.92692   0.20724   0.72698   0.00000  Uiso   1.00
O1403  O     0.70724   0.42693   0.72698   0.00000  Uiso   1.00
O1404  O     0.50000   0.25000   0.25000   0.00000  Uiso   1.00
O1405  O     0.79275   0.07307   0.27302   0.00000  Uiso   1.00
O1406  O     0.92692   0.29275   0.72698   0.00000  Uiso   1.00
O1407  O     0.57307   0.20725   0.27302   0.00000  Uiso   1.00
O1408  O     0.79275   0.07307   0.72698   0.00000  Uiso   1.00
O1409  O     0.70724   0.42693   0.27302   0.00000  Uiso   1.00
O1410  O     0.57307   0.20725   0.72698   0.00000  Uiso   1.00
O1411  O     0.92692   0.29275   0.27302   0.00000  Uiso   1.00
O1412  O     0.95724   0.32307   0.77302   0.00000  Uiso   1.00
O1413  O     0.54275   0.17693   0.22698   0.00000  Uiso   1.00
O1414  O     0.67692   0.45725   0.77302   0.00000  Uiso   1.00
O1415  O     0.50000   0.25000   0.75000   0.00000  Uiso   1.00
O1416  O     0.82307   0.04275   0.22698   0.00000  Uiso   1.00
O1417  O     0.54275   0.17693   0.77302   0.00000  Uiso   1.00
O1418  O     0.95724   0.32307   0.22698   0.00000  Uiso   1.00
O1419  O     0.82307   0.04275   0.77302   0.00000  Uiso   1.00
O1420  O     0.67692   0.45725   0.22698   0.00000  Uiso   1.00
O1421  O     0.95724   0.17692   0.22698   0.00000  Uiso   1.00
O1422  O     0.54275   0.32308   0.77302   0.00000  Uiso   1.00
O1423  O     0.67692   0.04275   0.22698   0.00000  Uiso   1.00
O1424  O     0.82307   0.45724   0.77302   0.00000  Uiso   1.00
O1425  O     0.54275   0.32308   0.22698   0.00000  Uiso   1.00
O1426  O     0.75000   0.46964   0.33755   0.00000  Uiso   1.00
O1427  O     0.95724   0.17692   0.77302   0.00000  Uiso   1.00
O1428  O     0.82307   0.45724   0.22698   0.00000  Uiso   1.00
O1429  O     0.67692   0.04275   0.77302   0.00000  Uiso   1.00
O1430  O     0.94078   0.16884   0.45973   0.00000  Uiso   1.00
O1431  O     0.54716   0.33695   0.53939   0.00000  Uiso   1.00
O1432  O     0.83128   0.05931   0.45959   0.00000  Uiso   1.00
O1433  O     0.66441   0.45157   0.54175   0.00000  Uiso   1.00
O1434  O     0.54800   0.33612   0.45910   0.00000  Uiso   1.00
O1435  O     0.93932   0.17023   0.54099   0.00000  Uiso   1.00
O1436  O     0.66147   0.45558   0.46072   0.00000  Uiso   1.00
O1437  O     0.75000   0.03036   0.66245   0.00000  Uiso   1.00
O1438  O     0.83089   0.06018   0.53987   0.00000  Uiso   1.00
O1439  O     0.70297   0.41355   0.95846   0.00000  Uiso   1.00
O1440  O     0.80915   0.08077   0.04076   0.00000  Uiso   1.00
O1441  O     0.58893   0.29391   0.95997   0.00000  Uiso   1.00
O1442  O     0.91528   0.19595   0.04023   0.00000  Uiso   1.00
O1443  O     0.80855   0.08149   0.95949   0.00000  Uiso   1.00
O1444  O     0.70817   0.41017   0.03947   0.00000  Uiso   1.00
O1445  O     0.91311   0.20026   0.95995   0.00000  Uiso   1.00
O1446  O     0.58922   0.29305   0.04039   0.00000  Uiso   1.00
O1447  O     0.60411   0.44728   0.23956   0.00000  Uiso   1.00
O1448  O     0.53036   0.25000   0.33755   0.00000  Uiso   1.00
O1449  O     0.89438   0.05339   0.76642   0.00000  Uiso   1.00
O1450  O     0.55274   0.10504   0.23656   0.00000  Uiso   1.00
O1451  O     0.94523   0.39328   0.77307   0.00000  Uiso   1.00
O1452  O     0.89475   0.05187   0.24441   0.00000  Uiso   1.00
O1453  O     0.60688   0.44441   0.77628   0.00000  Uiso   1.00
O1454  O     0.94415   0.39134   0.21935   0.00000  Uiso   1.00
O1455  O     0.55677   0.11006   0.78239   0.00000  Uiso   1.00
O1456  O     0.60862   0.05572   0.77947   0.00000  Uiso   1.00
O1457  O     0.88863   0.44164   0.21307   0.00000  Uiso   1.00
O1458  O     0.55288   0.39574   0.76277   0.00000  Uiso   1.00
O1459  O     0.96963   0.25000   0.66245   0.00000  Uiso   1.00
O1460  O     0.94628   0.10615   0.23079   0.00000  Uiso   1.00
O1461  O     0.89492   0.44743   0.76175   0.00000  Uiso   1.00
O1462  O     0.60699   0.05502   0.22559   0.00000  Uiso   1.00
O1463  O     0.94806   0.10568   0.75440   0.00000  Uiso   1.00
O1464  O     0.55512   0.39352   0.22605   0.00000  Uiso   1.00
O1465  O     0.85436   0.19770   0.74992   0.00000  Uiso   1.00
O1466  O     0.64392   0.30479   0.27177   0.00000  Uiso   1.00
O1467  O     0.80487   0.35776   0.72285   0.00000  Uiso   1.00
O1468  O     0.69330   0.14001   0.28201   0.00000  Uiso   1.00
O1469  O     0.64575   0.30359   0.73655   0.00000  Uiso   1.00
O1470  O     0.75000   0.03036   0.33755   0.00000  Uiso   1.00
O1471  O     0.85572   0.19635   0.26639   0.00000  Uiso   1.00
O1472  O     0.69753   0.14481   0.73650   0.00000  Uiso   1.00
O1473  O     0.80588   0.35775   0.27734   0.00000  Uiso   1.00
O1474  O     0.85542   0.30334   0.26535   0.00000  Uiso   1.00
O1475  O     0.64345   0.19585   0.72783   0.00000  Uiso   1.00
O1476  O     0.80216   0.14422   0.25374   0.00000  Uiso   1.00
O1477  O     0.69259   0.35885   0.71917   0.00000  Uiso   1.00
O1478  O     0.64183   0.19473   0.27751   0.00000  Uiso   1.00
O1479  O     0.86022   0.30687   0.71718   0.00000  Uiso   1.00
O1480  O     0.69767   0.35376   0.25590   0.00000  Uiso   1.00
Zn1481 Zn    0.70659   0.00000   0.21735   0.00000  Uiso   1.00
Zn1482 Zn    0.54340   0.25000   0.28265   0.00000  Uiso   1.00
Zn1483 Zn    0.75000   0.45660   0.71735   0.00000  Uiso   1.00
Zn1484 Zn    0.75000   0.04340   0.28265   0.00000  Uiso   1.00
Zn1485 Zn    0.54340   0.25000   0.71735   0.00000  Uiso   1.00
Zn1486 Zn    0.95659   0.25000   0.28265   0.00000  Uiso   1.00
Zn1487 Zn    0.75000   0.04340   0.71735   0.00000  Uiso   1.00
Zn1488 Zn    0.75000   0.45660   0.28265   0.00000  Uiso   1.00
Zn1489 Zn    0.79340  -0.00000   0.78265   0.00000  Uiso   1.00
Zn1490 Zn    0.50000   0.20659   0.21735   0.00000  Uiso   1.00
Zn1491 Zn    0.50000   0.29341   0.78265   0.00000  Uiso   1.00
Zn1492 Zn    0.79340  -0.00000   0.21735   0.00000  Uiso   1.00
Zn1493 Zn    0.70659   0.00000   0.78265   0.00000  Uiso   1.00
Zn1494 Zn    0.50000   0.29341   0.21735   0.00000  Uiso   1.00
Zn1495 Zn    0.50000   0.20659   0.78265   0.00000  Uiso   1.00
Zn1496 Zn    0.95659   0.25000   0.71735   0.00000  Uiso   1.00
C1497  C     0.01797   0.77676   0.41794   0.00000  Uiso   1.00
C1498  C     0.23356   0.97155   0.08168   0.00000  Uiso   1.00
C1499  C     0.22211   0.98298   0.54120   0.00000  Uiso   1.00
C1500  C     0.01743   0.77764   0.45870   0.00000  Uiso   1.00
C1501  C     0.47919   0.72286   0.54110   0.00000  Uiso   1.00
C1502  C     0.22112   0.98408   0.45924   0.00000  Uiso   1.00
C1503  C     0.27696   0.52144   0.54107   0.00000  Uiso   1.00
C1504  C     0.23324   0.97181   0.95889   0.00000  Uiso   1.00
C1505  C     0.27069   0.52711   0.04105   0.00000  Uiso   1.00
C1506  C     0.02944   0.76509   0.95911   0.00000  Uiso   1.00
C1507  C     0.47173   0.73099   0.04127   0.00000  Uiso   1.00
C1508  C     0.27067   0.52731   0.95887   0.00000  Uiso   1.00
C1509  C     0.47154   0.73243   0.91820   0.00000  Uiso   1.00
C1510  C     0.23479   0.97059   0.04087   0.00000  Uiso   1.00
C1511  C     0.47114   0.73207   0.95909   0.00000  Uiso   1.00
C1512  C     0.02927   0.76532   0.04122   0.00000  Uiso   1.00
C1513  C     0.09840   0.84825   0.24962   0.00000  Uiso   1.00
C1514  C     0.40198   0.65216   0.75062   0.00000  Uiso   1.00
C1515  C     0.15135   0.59775   0.25130   0.00000  Uiso   1.00
C1516  C     0.34815   0.90196   0.74827   0.00000  Uiso   1.00
C1517  C     0.40184   0.65162   0.25022   0.00000  Uiso   1.00
C1518  C     0.09781   0.84800   0.75008   0.00000  Uiso   1.00
C1519  C     0.34782   0.90143   0.24868   0.00000  Uiso   1.00
C1520  C     0.02855   0.76571   0.08202   0.00000  Uiso   1.00
C1521  C     0.15221   0.59840   0.75184   0.00000  Uiso   1.00
C1522  C     0.09878   0.65235   0.75147   0.00000  Uiso   1.00
C1523  C     0.40181   0.84802   0.24833   0.00000  Uiso   1.00
C1524  C     0.15146   0.90198   0.74995   0.00000  Uiso   1.00
C1525  C     0.34819   0.59770   0.25024   0.00000  Uiso   1.00
C1526  C     0.40227   0.84869   0.74837   0.00000  Uiso   1.00
C1527  C     0.09783   0.65166   0.25168   0.00000  Uiso   1.00
C1528  C     0.34831   0.59819   0.74998   0.00000  Uiso   1.00
C1529  C     0.15215   0.90211   0.24961   0.00000  Uiso   1.00
C1530  C     0.49849   0.75003   0.47937   0.00000  Uiso   1.00
C1531  C     0.23186   0.97317   0.91814   0.00000  Uiso   1.00
C1532  C     0.49836   0.75023   0.52037   0.00000  Uiso   1.00
C1533  C     0.24939   0.50223   0.47959   0.00000  Uiso   1.00
C1534  C     0.24955   0.50217   0.52058   0.00000  Uiso   1.00
C1535  C     0.25202   0.99951   0.97944   0.00000  Uiso   1.00
C1536  C     0.25234   0.99920   0.02043   0.00000  Uiso   1.00
C1537  C     0.00031   0.74850   0.97965   0.00000  Uiso   1.00
C1538  C     0.00037   0.74837   0.02067   0.00000  Uiso   1.00
C1539  C     0.40458   0.68010   0.45343   0.00000  Uiso   1.00
C1540  C     0.38525   0.65170   0.42819   0.00000  Uiso   1.00
C1541  C     0.34675   0.66356   0.41765   0.00000  Uiso   1.00
C1542  C     0.27001   0.52674   0.08193   0.00000  Uiso   1.00
C1543  C     0.01986   0.86385   0.54179   0.00000  Uiso   1.00
C1544  C     0.03750   0.90003   0.55268   0.00000  Uiso   1.00
C1545  C     0.00941   0.93037   0.55555   0.00000  Uiso   1.00
C1546  C     0.35984   0.53605   0.44767   0.00000  Uiso   1.00
C1547  C     0.39193   0.53886   0.47609   0.00000  Uiso   1.00
C1548  C     0.42535   0.51926   0.46020   0.00000  Uiso   1.00
C1549  C     0.16495   0.91326   0.53915   0.00000  Uiso   1.00
C1550  C     0.13999   0.89776   0.57086   0.00000  Uiso   1.00
C1551  C     0.13240   0.85736   0.56466   0.00000  Uiso   1.00
C1552  C     0.08568   0.83194   0.45254   0.00000  Uiso   1.00
C1553  C     0.02849   0.76612   0.91827   0.00000  Uiso   1.00
C1554  C     0.10184   0.86940   0.44367   0.00000  Uiso   1.00
C1555  C     0.14082   0.86694   0.42869   0.00000  Uiso   1.00
C1556  C     0.45899   0.63744   0.54392   0.00000  Uiso   1.00
C1557  C     0.43815   0.61126   0.57061   0.00000  Uiso   1.00
C1558  C     0.45679   0.57433   0.57304   0.00000  Uiso   1.00
C1559  C     0.13592   0.98413   0.45796   0.00000  Uiso   1.00
C1560  C     0.09831   0.96799   0.45001   0.00000  Uiso   1.00
C1561  C     0.06984   0.99764   0.44447   0.00000  Uiso   1.00
C1562  C     0.31796   0.59435   0.55284   0.00000  Uiso   1.00
C1563  C     0.32842   0.62428   0.52373   0.00000  Uiso   1.00
C1564  C     0.47176   0.73199   0.08214   0.00000  Uiso   1.00
C1565  C     0.32124   0.66198   0.54065   0.00000  Uiso   1.00
C1566  C     0.16469   0.91287   0.96205   0.00000  Uiso   1.00
C1567  C     0.14915   0.88854   0.92990   0.00000  Uiso   1.00
C1568  C     0.10930   0.87917   0.93747   0.00000  Uiso   1.00
C1569  C     0.28859   0.61306   0.04309   0.00000  Uiso   1.00
C1570  C     0.30801   0.63970   0.07038   0.00000  Uiso   1.00
C1571  C     0.28859   0.67628   0.07180   0.00000  Uiso   1.00
C1572  C     0.11604   0.76688   0.95718   0.00000  Uiso   1.00
C1573  C     0.15204   0.78499   0.94608   0.00000  Uiso   1.00
C1574  C     0.18262   0.75725   0.94235   0.00000  Uiso   1.00
C1575  C     0.49960   0.74940   0.39797   0.00000  Uiso   1.00
C1576  C     0.42640   0.66105   0.05299   0.00000  Uiso   1.00
C1577  C     0.41670   0.63204   0.02259   0.00000  Uiso   1.00
C1578  C     0.42387   0.59391   0.03844   0.00000  Uiso   1.00
C1579  C     0.34467   0.57018   0.95267   0.00000  Uiso   1.00
C1580  C     0.36386   0.59868   0.92736   0.00000  Uiso   1.00
C1581  C     0.40224   0.58684   0.91635   0.00000  Uiso   1.00
C1582  C     0.23759   0.88546   0.04179   0.00000  Uiso   1.00
C1583  C     0.22308   0.84678   0.03672   0.00000  Uiso   1.00
C1584  C     0.25326   0.81867   0.04082   0.00000  Uiso   1.00
C1585  C     0.38428   0.72559   0.95930   0.00000  Uiso   1.00
C1586  C     0.49956   0.74997   0.60186   0.00000  Uiso   1.00
C1587  C     0.34988   0.70683   0.94426   0.00000  Uiso   1.00
C1588  C     0.31752   0.73273   0.94414   0.00000  Uiso   1.00
C1589  C     0.08613   0.83058   0.04830   0.00000  Uiso   1.00
C1590  C     0.12401   0.84522   0.05809   0.00000  Uiso   1.00
C1591  C     0.12267   0.88335   0.07543   0.00000  Uiso   1.00
C1592  C     0.10404   0.96487   0.27654   0.00000  Uiso   1.00
C1593  C     0.08027   0.94564   0.30757   0.00000  Uiso   1.00
C1594  C     0.07335   0.97037   0.34250   0.00000  Uiso   1.00
C1595  C     0.40600   0.55007   0.80584   0.00000  Uiso   1.00
C1596  C     0.44001   0.52633   0.80733   0.00000  Uiso   1.00
C1597  C     0.24985   0.50058   0.39813   0.00000  Uiso   1.00
C1598  C     0.45378   0.52117   0.84903   0.00000  Uiso   1.00
C1599  C     0.03505   0.60250   0.27341   0.00000  Uiso   1.00
C1600  C     0.02228   0.56341   0.28034   0.00000  Uiso   1.00
C1601  C     0.00624   0.55871   0.32121   0.00000  Uiso   1.00
C1602  C     0.44502   0.89710   0.81418   0.00000  Uiso   1.00
C1603  C     0.48421   0.89882   0.82867   0.00000  Uiso   1.00
C1604  C     0.48584   0.90183   0.87312   0.00000  Uiso   1.00
C1605  C     0.40294   0.54068   0.28298   0.00000  Uiso   1.00
C1606  C     0.40007   0.99939   0.28541   0.00000  Uiso   1.00
C1607  C     0.40972   0.98539   0.32609   0.00000  Uiso   1.00
C1608  C     0.47958   0.72343   0.58199   0.00000  Uiso   1.00
C1609  C     0.25056   0.50037   0.60199   0.00000  Uiso   1.00
C1610  C     0.11318   0.94786   0.81701   0.00000  Uiso   1.00
C1611  C     0.07863   0.93973   0.84055   0.00000  Uiso   1.00
C1612  C     0.07939   0.95906   0.88005   0.00000  Uiso   1.00
C1613  C     0.46233   0.91775   0.24246   0.00000  Uiso   1.00
C1614  C     0.47397   0.94977   0.21648   0.00000  Uiso   1.00
C1615  C     0.49971   0.97580   0.23747   0.00000  Uiso   1.00
C1616  C     0.05803   0.61319   0.82358   0.00000  Uiso   1.00
C1617  C     0.01903   0.61426   0.83929   0.00000  Uiso   1.00
C1618  C     0.01827   0.61699   0.88377   0.00000  Uiso   1.00
C1619  C     0.08342   0.53697   0.75540   0.00000  Uiso   1.00
C1620  C     0.25021   0.50056   0.89802   0.00000  Uiso   1.00
C1621  C     0.05172   0.52328   0.78066   0.00000  Uiso   1.00
C1622  C     0.02800   0.99582   0.75912   0.00000  Uiso   1.00
C1623  C     0.38277   0.93764   0.17243   0.00000  Uiso   1.00
C1624  C     0.38179   0.97540   0.15359   0.00000  Uiso   1.00
C1625  C     0.37210   0.97326   0.11028   0.00000  Uiso   1.00
C1626  C     0.03454   0.89620   0.72613   0.00000  Uiso   1.00
C1627  C     0.05554   0.91561   0.69284   0.00000  Uiso   1.00
C1628  C     0.03029   0.92565   0.65926   0.00000  Uiso   1.00
C1629  C     0.44683   0.59928   0.19006   0.00000  Uiso   1.00
C1630  C     0.48617   0.59609   0.17610   0.00000  Uiso   1.00
C1631  C     0.25072   0.99970   0.10188   0.00000  Uiso   1.00
C1632  C     0.48815   0.59023   0.13200   0.00000  Uiso   1.00
C1633  C     0.39568   0.96522   0.72487   0.00000  Uiso   1.00
C1634  C     0.43477   0.96829   0.70973   0.00000  Uiso   1.00
C1635  C     0.43622   0.98884   0.67094   0.00000  Uiso   1.00
C1636  C     0.10471   0.55532   0.18435   0.00000  Uiso   1.00
C1637  C     0.10333   0.51616   0.16976   0.00000  Uiso   1.00
C1638  C     0.10293   0.51449   0.12520   0.00000  Uiso   1.00
C1639  C     0.45791   0.59684   0.71561   0.00000  Uiso   1.00
C1640  C     0.49924   0.59543   0.71260   0.00000  Uiso   1.00
C1641  C     0.01155   0.58510   0.67150   0.00000  Uiso   1.00
C1642  C     0.49983   0.74973   0.89814   0.00000  Uiso   1.00
C1643  C     0.05129   0.88835   0.18512   0.00000  Uiso   1.00
C1644  C     0.05994   0.92326   0.16243   0.00000  Uiso   1.00
C1645  C     0.04158   0.92329   0.12233   0.00000  Uiso   1.00
C1646  C     0.35226   0.70661   0.79014   0.00000  Uiso   1.00
C1647  C     0.33267   0.74276   0.79505   0.00000  Uiso   1.00
C1648  C     0.33048   0.75385   0.83793   0.00000  Uiso   1.00
C1649  C     0.14060   0.80083   0.31290   0.00000  Uiso   1.00
C1650  C     0.17654   0.80961   0.33369   0.00000  Uiso   1.00
C1651  C     0.17951   0.78957   0.37277   0.00000  Uiso   1.00
C1652  C     0.28738   0.83157   0.74698   0.00000  Uiso   1.00
C1653  C     0.49979   0.74960   0.10207   0.00000  Uiso   1.00
C1654  C     0.27992   0.79654   0.72359   0.00000  Uiso   1.00
C1655  C     0.24443   0.77799   0.73538   0.00000  Uiso   1.00
C1656  C     0.19188   0.63750   0.32324   0.00000  Uiso   1.00
C1657  C     0.23080   0.63650   0.33906   0.00000  Uiso   1.00
C1658  C     0.23140   0.63426   0.38358   0.00000  Uiso   1.00
C1659  C     0.14756   0.78558   0.77331   0.00000  Uiso   1.00
C1660  C     0.17160   0.80523   0.80374   0.00000  Uiso   1.00
C1661  C     0.17984   0.78060   0.83845   0.00000  Uiso   1.00
C1662  C     0.34320   0.69997   0.30546   0.00000  Uiso   1.00
C1663  C     0.30792   0.72189   0.30568   0.00000  Uiso   1.00
C1664  C     0.45926   0.69598   0.47960   0.00000  Uiso   1.00
C1665  C     0.29419   0.72871   0.34713   0.00000  Uiso   1.00
C1666  C     0.21583   0.64644   0.77301   0.00000  Uiso   1.00
C1667  C     0.22347   0.68603   0.78399   0.00000  Uiso   1.00
C1668  C     0.24429   0.68868   0.82246   0.00000  Uiso   1.00
C1669  C     0.30700   0.85722   0.31862   0.00000  Uiso   1.00
C1670  C     0.26821   0.85366   0.33420   0.00000  Uiso   1.00
C1671  C     0.26700   0.85724   0.37862   0.00000  Uiso   1.00
C1672  C     0.34972   0.78635   0.22860   0.00000  Uiso   1.00
C1673  C     0.31142   0.79413   0.21290   0.00000  Uiso   1.00
C1674  C     0.30139   0.76838   0.17963   0.00000  Uiso   1.00
C1675  C     0.03304   0.80715   0.51995   0.00000  Uiso   1.00
C1676  C     0.14943   0.69719   0.68702   0.00000  Uiso   1.00
C1677  C     0.15417   0.73685   0.67466   0.00000  Uiso   1.00
C1678  C     0.16188   0.74027   0.63098   0.00000  Uiso   1.00
C1679  C     0.29243   0.65030   0.21427   0.00000  Uiso   1.00
C1680  C     0.25113   0.65235   0.21111   0.00000  Uiso   1.00
C1681  C     0.23908   0.66076   0.16942   0.00000  Uiso   1.00
C1682  C     0.18960   0.86280   0.67812   0.00000  Uiso   1.00
C1683  C     0.22745   0.85959   0.65994   0.00000  Uiso   1.00
C1684  C     0.22858   0.87336   0.61794   0.00000  Uiso   1.00
C1685  C     0.16686   0.71246   0.25231   0.00000  Uiso   1.00
C1686  C     0.30476   0.53970   0.47937   0.00000  Uiso   1.00
C1687  C     0.19931   0.72593   0.27640   0.00000  Uiso   1.00
C1688  C     0.22279   0.75294   0.25392   0.00000  Uiso   1.00
C1689  C     0.36309   0.80903   0.67602   0.00000  Uiso   1.00
C1690  C     0.36101   0.77055   0.65920   0.00000  Uiso   1.00
C1691  C     0.36534   0.77065   0.61484   0.00000  Uiso   1.00
C1692  C     0.21400   0.85692   0.21828   0.00000  Uiso   1.00
C1693  C     0.19337   0.83655   0.18559   0.00000  Uiso   1.00
C1694  C     0.21380   0.83894   0.14685   0.00000  Uiso   1.00
C1695  C     0.30236   0.65264   0.69169   0.00000  Uiso   1.00
C1696  C     0.27815   0.68578   0.68536   0.00000  Uiso   1.00
C1697  C     0.19342   0.96603   0.52101   0.00000  Uiso   1.00
C1698  C     0.27644   0.69653   0.64230   0.00000  Uiso   1.00
C1699  C     0.03459   0.80617   0.47900   0.00000  Uiso   1.00
C1700  C     0.22217   0.98271   0.41845   0.00000  Uiso   1.00
C1701  C     0.46002   0.69553   0.52072   0.00000  Uiso   1.00
C1702  C     0.19197   0.96830   0.48005   0.00000  Uiso   1.00
C1703  C     0.30362   0.54145   0.52034   0.00000  Uiso   1.00
C1704  C     0.21697   0.94274   0.97918   0.00000  Uiso   1.00
C1705  C     0.28930   0.55481   0.02056   0.00000  Uiso   1.00
C1706  C     0.05927   0.77969   0.97972   0.00000  Uiso   1.00
C1707  C     0.44356   0.71319   0.02068   0.00000  Uiso   1.00
C1708  C     0.29026   0.55423   0.97945   0.00000  Uiso   1.00
C1709  C     0.21949   0.94123   0.02013   0.00000  Uiso   1.00
C1710  C     0.44219   0.71563   0.97973   0.00000  Uiso   1.00
C1711  C     0.27702   0.52035   0.58196   0.00000  Uiso   1.00
C1712  C     0.05861   0.78099   0.02071   0.00000  Uiso   1.00
C1713  C     0.24999   0.50007   0.35582   0.00000  Uiso   1.00
C1714  C     0.25040   0.50006   0.64423   0.00000  Uiso   1.00
C1715  C     0.49993   0.74957   0.35576   0.00000  Uiso   1.00
C1716  C     0.49995   0.74994   0.64417   0.00000  Uiso   1.00
C1717  C     0.49987   0.74996   0.85582   0.00000  Uiso   1.00
C1718  C     0.49977   0.74995   0.14426   0.00000  Uiso   1.00
C1719  C     0.25002   0.50038   0.85578   0.00000  Uiso   1.00
C1720  C     0.25010   0.99995   0.14418   0.00000  Uiso   1.00
C1721  C     0.17976   0.56993   0.25029   0.00000  Uiso   1.00
C1722  C     0.48001   0.72268   0.41803   0.00000  Uiso   1.00
C1723  C     0.31990   0.92980   0.74991   0.00000  Uiso   1.00
C1724  C     0.42991   0.67990   0.25003   0.00000  Uiso   1.00
C1725  C     0.06996   0.81997   0.75002   0.00000  Uiso   1.00
C1726  C     0.31995   0.92977   0.24968   0.00000  Uiso   1.00
C1727  C     0.17994   0.57005   0.75026   0.00000  Uiso   1.00
C1728  C     0.07014   0.82010   0.24993   0.00000  Uiso   1.00
C1729  C     0.43000   0.68006   0.75011   0.00000  Uiso   1.00
C1730  C     0.17976   0.93004   0.74987   0.00000  Uiso   1.00
C1731  C     0.32011   0.56983   0.25016   0.00000  Uiso   1.00
C1732  C     0.43009   0.82027   0.74961   0.00000  Uiso   1.00
C1733  C     0.01800   0.77727   0.58154   0.00000  Uiso   1.00
C1734  C     0.07003   0.67994   0.25027   0.00000  Uiso   1.00
C1735  C     0.32014   0.57005   0.74992   0.00000  Uiso   1.00
C1736  C     0.17997   0.93013   0.25006   0.00000  Uiso   1.00
C1737  C     0.07029   0.68010   0.75035   0.00000  Uiso   1.00
C1738  C     0.43001   0.82013   0.24982   0.00000  Uiso   1.00
C1739  C     0.11554   0.91152   0.24292   0.00000  Uiso   1.00
C1740  C     0.38470   0.58899   0.75850   0.00000  Uiso   1.00
C1741  C     0.08860   0.61565   0.24172   0.00000  Uiso   1.00
C1742  C     0.41047   0.88425   0.76095   0.00000  Uiso   1.00
C1743  C     0.38476   0.58804   0.24544   0.00000  Uiso   1.00
C1744  C     0.27652   0.52042   0.41797   0.00000  Uiso   1.00
C1745  C     0.11619   0.90986   0.76392   0.00000  Uiso   1.00
C1746  C     0.40997   0.88327   0.23441   0.00000  Uiso   1.00
C1747  C     0.09081   0.61768   0.76707   0.00000  Uiso   1.00
C1748  C     0.11666   0.58995   0.76463   0.00000  Uiso   1.00
C1749  C     0.38193   0.90874   0.23134   0.00000  Uiso   1.00
C1750  C     0.08858   0.88426   0.75882   0.00000  Uiso   1.00
C1751  C     0.41111   0.61530   0.24137   0.00000  Uiso   1.00
C1752  C     0.38439   0.91148   0.75705   0.00000  Uiso   1.00
C1753  C     0.11591   0.58964   0.23813   0.00000  Uiso   1.00
C1754  C     0.41182   0.61556   0.75448   0.00000  Uiso   1.00
C1755  C     0.22337   0.98176   0.58195   0.00000  Uiso   1.00
C1756  C     0.08989   0.88402   0.23766   0.00000  Uiso   1.00
C1757  C     0.36527   0.66184   0.74716   0.00000  Uiso   1.00
C1758  C     0.13434   0.83971   0.26090   0.00000  Uiso   1.00
C1759  C     0.33953   0.86619   0.73629   0.00000  Uiso   1.00
C1760  C     0.15927   0.63240   0.26680   0.00000  Uiso   1.00
C1761  C     0.13406   0.83910   0.74107   0.00000  Uiso   1.00
C1762  C     0.36544   0.66071   0.25886   0.00000  Uiso   1.00
C1763  C     0.16158   0.63447   0.74204   0.00000  Uiso   1.00
C1764  C     0.34019   0.86649   0.26352   0.00000  Uiso   1.00
C1765  C     0.36599   0.83907   0.25938   0.00000  Uiso   1.00
C1766  C     0.26979   0.52729   0.91799   0.00000  Uiso   1.00
C1767  C     0.13431   0.66066   0.73853   0.00000  Uiso   1.00
C1768  C     0.33836   0.63421   0.25462   0.00000  Uiso   1.00
C1769  C     0.15925   0.86694   0.73562   0.00000  Uiso   1.00
C1770  C     0.13345   0.66016   0.26405   0.00000  Uiso   1.00
C1771  C     0.36752   0.84064   0.73309   0.00000  Uiso   1.00
C1772  C     0.16179   0.86545   0.25537   0.00000  Uiso   1.00
C1773  C     0.33908   0.63466   0.74202   0.00000  Uiso   1.00
C1774  C     0.47927   0.72259   0.45892   0.00000  Uiso   1.00
C1775  C     0.01688   0.77823   0.54073   0.00000  Uiso   1.00
C1776  C     0.27715   0.52085   0.45887   0.00000  Uiso   1.00
H1777  H     0.03194   0.79770   0.40133   0.00000  Uiso   1.00
H1778  H     0.21968   0.95030   0.09796   0.00000  Uiso   1.00
H1779  H     0.40667   0.58855   0.06456   0.00000  Uiso   1.00
H1780  H     0.34527   0.54361   0.93700   0.00000  Uiso   1.00
H1781  H     0.35956   0.56753   0.98085   0.00000  Uiso   1.00
H1782  H     0.34792   0.60313   0.90016   0.00000  Uiso   1.00
H1783  H     0.36541   0.62477   0.94355   0.00000  Uiso   1.00
H1784  H     0.41907   0.58305   0.94295   0.00000  Uiso   1.00
H1785  H     0.41519   0.60800   0.89772   0.00000  Uiso   1.00
H1786  H     0.40118   0.56097   0.89973   0.00000  Uiso   1.00
H1787  H     0.25045   0.88811   0.07107   0.00000  Uiso   1.00
H1788  H     0.25914   0.89000   0.01915   0.00000  Uiso   1.00
H1789  H     0.44975   0.71972   0.90171   0.00000  Uiso   1.00
H1790  H     0.20200   0.84133   0.05914   0.00000  Uiso   1.00
H1791  H     0.21038   0.84409   0.00737   0.00000  Uiso   1.00
H1792  H     0.27448   0.82311   0.01815   0.00000  Uiso   1.00
H1793  H     0.24167   0.79096   0.03703   0.00000  Uiso   1.00
H1794  H     0.26587   0.82046   0.07027   0.00000  Uiso   1.00
H1795  H     0.39127   0.74862   0.93945   0.00000  Uiso   1.00
H1796  H     0.37837   0.73650   0.98906   0.00000  Uiso   1.00
H1797  H     0.35465   0.69669   0.91408   0.00000  Uiso   1.00
H1798  H     0.34328   0.68330   0.96344   0.00000  Uiso   1.00
H1799  H     0.31108   0.74153   0.97443   0.00000  Uiso   1.00
H1800  H     0.05050   0.77796   0.09861   0.00000  Uiso   1.00
H1801  H     0.29332   0.71868   0.93182   0.00000  Uiso   1.00
H1802  H     0.32360   0.75707   0.92600   0.00000  Uiso   1.00
H1803  H     0.06775   0.83480   0.07373   0.00000  Uiso   1.00
H1804  H     0.07531   0.84613   0.02287   0.00000  Uiso   1.00
H1805  H     0.13734   0.82686   0.07954   0.00000  Uiso   1.00
H1806  H     0.14066   0.84566   0.03097   0.00000  Uiso   1.00
H1807  H     0.10769   0.90211   0.05577   0.00000  Uiso   1.00
H1808  H     0.15072   0.89382   0.07959   0.00000  Uiso   1.00
H1809  H     0.10942   0.88242   0.10454   0.00000  Uiso   1.00
H1810  H     0.09311   0.99262   0.27171   0.00000  Uiso   1.00
H1811  H     0.21736   0.95249   0.90171   0.00000  Uiso   1.00
H1812  H     0.13205   0.96867   0.28798   0.00000  Uiso   1.00
H1813  H     0.05378   0.93730   0.29492   0.00000  Uiso   1.00
H1814  H     0.09430   0.92075   0.31809   0.00000  Uiso   1.00
H1815  H     0.09956   0.97886   0.35589   0.00000  Uiso   1.00
H1816  H     0.05690   0.95555   0.36467   0.00000  Uiso   1.00
H1817  H     0.05811   0.99490   0.33325   0.00000  Uiso   1.00
H1818  H     0.38394   0.53667   0.82288   0.00000  Uiso   1.00
H1819  H     0.41231   0.57649   0.82054   0.00000  Uiso   1.00
H1820  H     0.43366   0.99921   0.79496   0.00000  Uiso   1.00
H1821  H     0.46181   0.53915   0.78945   0.00000  Uiso   1.00
H1822  H     0.28379   0.54780   0.09851   0.00000  Uiso   1.00
H1823  H     0.46040   0.54783   0.86249   0.00000  Uiso   1.00
H1824  H     0.47879   0.50432   0.84863   0.00000  Uiso   1.00
H1825  H     0.43287   0.50703   0.86699   0.00000  Uiso   1.00
H1826  H     0.01086   0.62052   0.27285   0.00000  Uiso   1.00
H1827  H     0.05204   0.61135   0.29883   0.00000  Uiso   1.00
H1828  H     0.00120   0.55621   0.25844   0.00000  Uiso   1.00
H1829  H     0.04561   0.54456   0.27686   0.00000  Uiso   1.00
H1830  H     0.02739   0.56389   0.34374   0.00000  Uiso   1.00
H1831  H     0.49606   0.53045   0.32479   0.00000  Uiso   1.00
H1832  H     0.48327   0.57780   0.32568   0.00000  Uiso   1.00
H1833  H     0.05027   0.77901   0.90186   0.00000  Uiso   1.00
H1834  H     0.43125   0.87352   0.82864   0.00000  Uiso   1.00
H1835  H     0.43095   0.92267   0.82267   0.00000  Uiso   1.00
H1836  H     0.49887   0.87390   0.81940   0.00000  Uiso   1.00
H1837  H     0.49784   0.92279   0.81536   0.00000  Uiso   1.00
H1838  H     0.47367   0.92790   0.88286   0.00000  Uiso   1.00
H1839  H     0.01460   0.90086   0.88285   0.00000  Uiso   1.00
H1840  H     0.47102   0.87879   0.88696   0.00000  Uiso   1.00
H1841  H     0.38383   0.55227   0.30512   0.00000  Uiso   1.00
H1842  H     0.43116   0.54922   0.29033   0.00000  Uiso   1.00
H1843  H     0.37184   0.99084   0.27817   0.00000  Uiso   1.00
H1844  H     0.44986   0.71958   0.09876   0.00000  Uiso   1.00
H1845  H     0.41883   0.98730   0.26377   0.00000  Uiso   1.00
H1846  H     0.43823   0.99273   0.33350   0.00000  Uiso   1.00
H1847  H     0.40697   0.95532   0.32674   0.00000  Uiso   1.00
H1848  H     0.39109   0.99711   0.34832   0.00000  Uiso   1.00
H1849  H     0.12160   0.97651   0.82223   0.00000  Uiso   1.00
H1850  H     0.13594   0.93063   0.82807   0.00000  Uiso   1.00
H1851  H     0.05440   0.94902   0.82419   0.00000  Uiso   1.00
H1852  H     0.07615   0.90990   0.84517   0.00000  Uiso   1.00
H1853  H     0.10490   0.95274   0.89593   0.00000  Uiso   1.00
H1854  H     0.05581   0.95030   0.89805   0.00000  Uiso   1.00
H1855  H     0.40380   0.70677   0.43790   0.00000  Uiso   1.00
H1856  H     0.07776   0.98896   0.87581   0.00000  Uiso   1.00
H1857  H     0.48701   0.90481   0.25487   0.00000  Uiso   1.00
H1858  H     0.44621   0.92806   0.26777   0.00000  Uiso   1.00
H1859  H     0.48733   0.93933   0.18977   0.00000  Uiso   1.00
H1860  H     0.44997   0.96542   0.20696   0.00000  Uiso   1.00
H1861  H     0.48772   0.98499   0.26557   0.00000  Uiso   1.00
H1862  H     0.00489   0.99989   0.21864   0.00000  Uiso   1.00
H1863  H     0.02605   0.96238   0.24303   0.00000  Uiso   1.00
H1864  H     0.07229   0.63859   0.83296   0.00000  Uiso   1.00
H1865  H     0.07228   0.58933   0.83635   0.00000  Uiso   1.00
H1866  H     0.38987   0.68252   0.48178   0.00000  Uiso   1.00
H1867  H     0.00461   0.63806   0.82675   0.00000  Uiso   1.00
H1868  H     0.00420   0.58933   0.83016   0.00000  Uiso   1.00
H1869  H     0.03196   0.59311   0.89705   0.00000  Uiso   1.00
H1870  H     0.48961   0.61760   0.89405   0.00000  Uiso   1.00
H1871  H     0.03211   0.64232   0.89352   0.00000  Uiso   1.00
H1872  H     0.09771   0.51327   0.74248   0.00000  Uiso   1.00
H1873  H     0.07253   0.55328   0.73053   0.00000  Uiso   1.00
H1874  H     0.06251   0.51066   0.80766   0.00000  Uiso   1.00
H1875  H     0.03438   0.54625   0.78969   0.00000  Uiso   1.00
H1876  H     0.01778   0.50738   0.73123   0.00000  Uiso   1.00
H1877  H     0.40096   0.64749   0.40078   0.00000  Uiso   1.00
H1878  H     0.00456   0.98795   0.77777   0.00000  Uiso   1.00
H1879  H     0.04379   0.97102   0.75315   0.00000  Uiso   1.00
H1880  H     0.35639   0.92362   0.16626   0.00000  Uiso   1.00
H1881  H     0.40532   0.92174   0.15912   0.00000  Uiso   1.00
H1882  H     0.36124   0.99245   0.16872   0.00000  Uiso   1.00
H1883  H     0.40878   0.98879   0.15680   0.00000  Uiso   1.00
H1884  H     0.39239   0.95653   0.09437   0.00000  Uiso   1.00
H1885  H     0.37205   0.50104   0.09752   0.00000  Uiso   1.00
H1886  H     0.34458   0.96115   0.10646   0.00000  Uiso   1.00
H1887  H     0.00846   0.91068   0.73093   0.00000  Uiso   1.00
H1888  H     0.46505   0.70289   0.59864   0.00000  Uiso   1.00
H1889  H     0.38396   0.62544   0.44422   0.00000  Uiso   1.00
H1890  H     0.02697   0.86830   0.71675   0.00000  Uiso   1.00
H1891  H     0.06891   0.94072   0.70365   0.00000  Uiso   1.00
H1892  H     0.07711   0.89736   0.68141   0.00000  Uiso   1.00
H1893  H     0.01731   0.90084   0.64698   0.00000  Uiso   1.00
H1894  H     0.04620   0.93953   0.63599   0.00000  Uiso   1.00
H1895  H     0.00890   0.94451   0.66961   0.00000  Uiso   1.00
H1896  H     0.43371   0.62187   0.17346   0.00000  Uiso   1.00
H1897  H     0.43241   0.57334   0.18339   0.00000  Uiso   1.00
H1898  H     0.00122   0.62140   0.18360   0.00000  Uiso   1.00
H1899  H     0.49941   0.57277   0.19094   0.00000  Uiso   1.00
H1900  H     0.33030   0.66775   0.44448   0.00000  Uiso   1.00
H1901  H     0.47334   0.56500   0.12370   0.00000  Uiso   1.00
H1902  H     0.01703   0.58757   0.12292   0.00000  Uiso   1.00
H1903  H     0.47607   0.61375   0.11636   0.00000  Uiso   1.00
H1904  H     0.38461   0.99296   0.72897   0.00000  Uiso   1.00
H1905  H     0.37834   0.95213   0.70201   0.00000  Uiso   1.00
H1906  H     0.45174   0.98294   0.73142   0.00000  Uiso   1.00
H1907  H     0.44624   0.94066   0.70556   0.00000  Uiso   1.00
H1908  H     0.42188   0.97314   0.64786   0.00000  Uiso   1.00
H1909  H     0.46496   0.99291   0.66189   0.00000  Uiso   1.00
H1910  H     0.42327   0.51593   0.67388   0.00000  Uiso   1.00
H1911  H     0.33348   0.64225   0.39957   0.00000  Uiso   1.00
H1912  H     0.12889   0.56897   0.17093   0.00000  Uiso   1.00
H1913  H     0.07954   0.56955   0.17480   0.00000  Uiso   1.00
H1914  H     0.12745   0.50116   0.18073   0.00000  Uiso   1.00
H1915  H     0.07844   0.50290   0.18144   0.00000  Uiso   1.00
H1916  H     0.07784   0.52736   0.11365   0.00000  Uiso   1.00
H1917  H     0.10368   0.98570   0.11561   0.00000  Uiso   1.00
H1918  H     0.12717   0.52863   0.11297   0.00000  Uiso   1.00
H1919  H     0.44802   0.61751   0.69417   0.00000  Uiso   1.00
H1920  H     0.44649   0.56974   0.70783   0.00000  Uiso   1.00
H1921  H     0.01080   0.62248   0.72021   0.00000  Uiso   1.00
H1922  H     0.34765   0.68927   0.40063   0.00000  Uiso   1.00
H1923  H     0.00956   0.57509   0.73366   0.00000  Uiso   1.00
H1924  H     0.00069   0.55789   0.66345   0.00000  Uiso   1.00
H1925  H     0.04173   0.58420   0.67044   0.00000  Uiso   1.00
H1926  H     0.00196   0.60559   0.65001   0.00000  Uiso   1.00
H1927  H     0.02244   0.88062   0.17983   0.00000  Uiso   1.00
H1928  H     0.06805   0.86559   0.17330   0.00000  Uiso   1.00
H1929  H     0.05025   0.94714   0.17904   0.00000  Uiso   1.00
H1930  H     0.08988   0.92590   0.15875   0.00000  Uiso   1.00
H1931  H     0.04804   0.89811   0.10596   0.00000  Uiso   1.00
H1932  H     0.05096   0.94711   0.10510   0.00000  Uiso   1.00
H1933  H     0.49973   0.85617   0.56474   0.00000  Uiso   1.00
H1934  H     0.01158   0.92502   0.12567   0.00000  Uiso   1.00
H1935  H     0.38009   0.70921   0.80270   0.00000  Uiso   1.00
H1936  H     0.33680   0.68558   0.80698   0.00000  Uiso   1.00
H1937  H     0.34747   0.76421   0.77853   0.00000  Uiso   1.00
H1938  H     0.30463   0.74005   0.78335   0.00000  Uiso   1.00
H1939  H     0.31545   0.73291   0.85497   0.00000  Uiso   1.00
H1940  H     0.31582   0.78009   0.84046   0.00000  Uiso   1.00
H1941  H     0.35821   0.75722   0.85035   0.00000  Uiso   1.00
H1942  H     0.13312   0.77198   0.31855   0.00000  Uiso   1.00
H1943  H     0.11825   0.81742   0.32589   0.00000  Uiso   1.00
H1944  H     0.00530   0.86765   0.51345   0.00000  Uiso   1.00
H1945  H     0.19978   0.80158   0.31504   0.00000  Uiso   1.00
H1946  H     0.17847   0.83940   0.33871   0.00000  Uiso   1.00
H1947  H     0.15492   0.79405   0.39093   0.00000  Uiso   1.00
H1948  H     0.20378   0.79935   0.38897   0.00000  Uiso   1.00
H1949  H     0.18247   0.75990   0.36792   0.00000  Uiso   1.00
H1950  H     0.26116   0.84363   0.75653   0.00000  Uiso   1.00
H1951  H     0.30251   0.82475   0.77432   0.00000  Uiso   1.00
H1952  H     0.27927   0.80238   0.69184   0.00000  Uiso   1.00
H1953  H     0.30219   0.77691   0.72817   0.00000  Uiso   1.00
H1954  H     0.24456   0.77151   0.76710   0.00000  Uiso   1.00
H1955  H     0.05152   0.89703   0.58122   0.00000  Uiso   1.00
H1956  H     0.24111   0.75242   0.71861   0.00000  Uiso   1.00
H1957  H     0.22105   0.79569   0.72837   0.00000  Uiso   1.00
H1958  H     0.17749   0.61229   0.33304   0.00000  Uiso   1.00
H1959  H     0.17769   0.66162   0.33551   0.00000  Uiso   1.00
H1960  H     0.24521   0.61253   0.32690   0.00000  Uiso   1.00
H1961  H     0.24568   0.66130   0.32959   0.00000  Uiso   1.00
H1962  H     0.21774   0.65833   0.39647   0.00000  Uiso   1.00
H1963  H     0.26003   0.63368   0.39394   0.00000  Uiso   1.00
H1964  H     0.21745   0.60909   0.39368   0.00000  Uiso   1.00
H1965  H     0.15929   0.75829   0.76782   0.00000  Uiso   1.00
H1966  H     0.05801   0.90746   0.53011   0.00000  Uiso   1.00
H1967  H     0.11999   0.78078   0.78565   0.00000  Uiso   1.00
H1968  H     0.19758   0.81417   0.79025   0.00000  Uiso   1.00
H1969  H     0.15729   0.82975   0.81477   0.00000  Uiso   1.00
H1970  H     0.15413   0.77101   0.85216   0.00000  Uiso   1.00
H1971  H     0.19596   0.79589   0.86046   0.00000  Uiso   1.00
H1972  H     0.19588   0.75676   0.82883   0.00000  Uiso   1.00
H1973  H     0.36424   0.71499   0.32236   0.00000  Uiso   1.00
H1974  H     0.33820   0.67364   0.32097   0.00000  Uiso   1.00
H1975  H     0.31256   0.74850   0.29125   0.00000  Uiso   1.00
H1976  H     0.28671   0.70695   0.28901   0.00000  Uiso   1.00
H1977  H     0.49570   0.93432   0.52693   0.00000  Uiso   1.00
H1978  H     0.28909   0.70255   0.36245   0.00000  Uiso   1.00
H1979  H     0.26831   0.74417   0.34594   0.00000  Uiso   1.00
H1980  H     0.31447   0.74486   0.36386   0.00000  Uiso   1.00
H1981  H     0.24213   0.63199   0.76983   0.00000  Uiso   1.00
H1982  H     0.20113   0.63285   0.79767   0.00000  Uiso   1.00
H1983  H     0.23988   0.69914   0.76069   0.00000  Uiso   1.00
H1984  H     0.19733   0.70086   0.78676   0.00000  Uiso   1.00
H1985  H     0.22776   0.67722   0.84676   0.00000  Uiso   1.00
H1986  H     0.25038   0.71762   0.82902   0.00000  Uiso   1.00
H1987  H     0.27038   0.67368   0.82041   0.00000  Uiso   1.00
H1988  H     0.02318   0.95618   0.56379   0.00000  Uiso   1.00
H1989  H     0.31917   0.88286   0.33034   0.00000  Uiso   1.00
H1990  H     0.32317   0.83361   0.32916   0.00000  Uiso   1.00
H1991  H     0.25089   0.87516   0.32105   0.00000  Uiso   1.00
H1992  H     0.25715   0.82671   0.32562   0.00000  Uiso   1.00
H1993  H     0.28260   0.83487   0.39249   0.00000  Uiso   1.00
H1994  H     0.23834   0.85581   0.38878   0.00000  Uiso   1.00
H1995  H     0.27859   0.88382   0.38785   0.00000  Uiso   1.00
H1996  H     0.35268   0.75670   0.23297   0.00000  Uiso   1.00
H1997  H     0.37052   0.79394   0.20622   0.00000  Uiso   1.00
H1998  H     0.29131   0.79102   0.23683   0.00000  Uiso   1.00
H1999  H     0.20124   0.96833   0.40225   0.00000  Uiso   1.00
H2000  H     0.48870   0.92372   0.57815   0.00000  Uiso   1.00
H2001  H     0.31009   0.82256   0.20201   0.00000  Uiso   1.00
H2002  H     0.32069   0.77174   0.15487   0.00000  Uiso   1.00
H2003  H     0.27347   0.77439   0.16922   0.00000  Uiso   1.00
H2004  H     0.30197   0.73979   0.18993   0.00000  Uiso   1.00
H2005  H     0.12583   0.68546   0.67078   0.00000  Uiso   1.00
H2006  H     0.17454   0.68207   0.67908   0.00000  Uiso   1.00
H2007  H     0.12896   0.75212   0.68170   0.00000  Uiso   1.00
H2008  H     0.17715   0.74913   0.69114   0.00000  Uiso   1.00
H2009  H     0.18730   0.72566   0.62332   0.00000  Uiso   1.00
H2010  H     0.16525   0.76942   0.62319   0.00000  Uiso   1.00
H2011  H     0.36901   0.54541   0.41835   0.00000  Uiso   1.00
H2012  H     0.13890   0.72884   0.61380   0.00000  Uiso   1.00
H2013  H     0.30179   0.62790   0.19470   0.00000  Uiso   1.00
H2014  H     0.30456   0.67637   0.20402   0.00000  Uiso   1.00
H2015  H     0.23906   0.62598   0.22040   0.00000  Uiso   1.00
H2016  H     0.24115   0.67396   0.23080   0.00000  Uiso   1.00
H2017  H     0.25025   0.68743   0.15984   0.00000  Uiso   1.00
H2018  H     0.20891   0.66194   0.16823   0.00000  Uiso   1.00
H2019  H     0.24852   0.63916   0.14916   0.00000  Uiso   1.00
H2020  H     0.17801   0.88984   0.67021   0.00000  Uiso   1.00
H2021  H     0.17178   0.84110   0.66575   0.00000  Uiso   1.00
H2022  H     0.35150   0.50699   0.44422   0.00000  Uiso   1.00
H2023  H     0.24735   0.87550   0.67747   0.00000  Uiso   1.00
H2024  H     0.23544   0.83060   0.66001   0.00000  Uiso   1.00
H2025  H     0.21019   0.85682   0.59940   0.00000  Uiso   1.00
H2026  H     0.25668   0.87091   0.60632   0.00000  Uiso   1.00
H2027  H     0.22049   0.90238   0.61663   0.00000  Uiso   1.00
H2028  H     0.15276   0.73618   0.23919   0.00000  Uiso   1.00
H2029  H     0.17694   0.69549   0.22754   0.00000  Uiso   1.00
H2030  H     0.18935   0.73886   0.30349   0.00000  Uiso   1.00
H2031  H     0.21659   0.70289   0.28534   0.00000  Uiso   1.00
H2032  H     0.23312   0.74068   0.22644   0.00000  Uiso   1.00
H2033  H     0.39892   0.56791   0.48112   0.00000  Uiso   1.00
H2034  H     0.24610   0.76121   0.27246   0.00000  Uiso   1.00
H2035  H     0.20691   0.77756   0.24714   0.00000  Uiso   1.00
H2036  H     0.38950   0.82155   0.66698   0.00000  Uiso   1.00
H2037  H     0.34036   0.82542   0.66381   0.00000  Uiso   1.00
H2038  H     0.38285   0.75361   0.67224   0.00000  Uiso   1.00
H2039  H     0.33435   0.75809   0.66686   0.00000  Uiso   1.00
H2040  H     0.34348   0.78702   0.60108   0.00000  Uiso   1.00
H2041  H     0.36348   0.74235   0.60369   0.00000  Uiso   1.00
H2042  H     0.39229   0.78209   0.60653   0.00000  Uiso   1.00
H2043  H     0.24169   0.84511   0.22053   0.00000  Uiso   1.00
H2044  H     0.38426   0.52643   0.50454   0.00000  Uiso   1.00
H2045  H     0.21811   0.88575   0.20977   0.00000  Uiso   1.00
H2046  H     0.18975   0.80755   0.19349   0.00000  Uiso   1.00
H2047  H     0.16598   0.84857   0.18116   0.00000  Uiso   1.00
H2048  H     0.21442   0.86750   0.13624   0.00000  Uiso   1.00
H2049  H     0.19969   0.82178   0.12488   0.00000  Uiso   1.00
H2050  H     0.24211   0.82903   0.15014   0.00000  Uiso   1.00
H2051  H     0.29034   0.62901   0.67604   0.00000  Uiso   1.00
H2052  H     0.32943   0.65851   0.67803   0.00000  Uiso   1.00
H2053  H     0.25017   0.67959   0.69567   0.00000  Uiso   1.00
H2054  H     0.28915   0.70898   0.70251   0.00000  Uiso   1.00
H2055  H     0.41908   0.99005   0.45527   0.00000  Uiso   1.00
H2056  H     0.30406   0.70312   0.63109   0.00000  Uiso   1.00
H2057  H     0.25899   0.72091   0.63895   0.00000  Uiso   1.00
H2058  H     0.26465   0.67400   0.62472   0.00000  Uiso   1.00
H2059  H     0.44795   0.52134   0.48161   0.00000  Uiso   1.00
H2060  H     0.43431   0.53182   0.43223   0.00000  Uiso   1.00
H2061  H     0.19284   0.90213   0.54367   0.00000  Uiso   1.00
H2062  H     0.15479   0.90455   0.51003   0.00000  Uiso   1.00
H2063  H     0.29781   0.53452   0.59853   0.00000  Uiso   1.00
H2064  H     0.15267   0.90188   0.59999   0.00000  Uiso   1.00
H2065  H     0.11384   0.91268   0.57057   0.00000  Uiso   1.00
H2066  H     0.11793   0.85322   0.53659   0.00000  Uiso   1.00
H2067  H     0.11501   0.84692   0.58879   0.00000  Uiso   1.00
H2068  H     0.15809   0.84166   0.56408   0.00000  Uiso   1.00
H2069  H     0.09009   0.81369   0.42708   0.00000  Uiso   1.00
H2070  H     0.10010   0.82043   0.47840   0.00000  Uiso   1.00
H2071  H     0.08501   0.88327   0.42120   0.00000  Uiso   1.00
H2072  H     0.10130   0.88597   0.47077   0.00000  Uiso   1.00
H2073  H     0.15788   0.85073   0.44899   0.00000  Uiso   1.00
H2074  H     0.46570   0.70193   0.40152   0.00000  Uiso   1.00
H2075  H     0.15265   0.89459   0.42600   0.00000  Uiso   1.00
H2076  H     0.14095   0.85452   0.39921   0.00000  Uiso   1.00
H2077  H     0.48650   0.64225   0.55676   0.00000  Uiso   1.00
H2078  H     0.46199   0.62467   0.51460   0.00000  Uiso   1.00
H2079  H     0.43630   0.62313   0.60043   0.00000  Uiso   1.00
H2080  H     0.41009   0.60735   0.55924   0.00000  Uiso   1.00
H2081  H     0.45730   0.56124   0.54380   0.00000  Uiso   1.00
H2082  H     0.44157   0.55642   0.59353   0.00000  Uiso   1.00
H2083  H     0.48511   0.57746   0.58387   0.00000  Uiso   1.00
H2084  H     0.14368   0.50251   0.43343   0.00000  Uiso   1.00
H2085  H     0.03255   0.79806   0.59776   0.00000  Uiso   1.00
H2086  H     0.13411   0.50041   0.48546   0.00000  Uiso   1.00
H2087  H     0.09946   0.95086   0.42333   0.00000  Uiso   1.00
H2088  H     0.09012   0.95057   0.47509   0.00000  Uiso   1.00
H2089  H     0.06756   0.51439   0.47136   0.00000  Uiso   1.00
H2090  H     0.04296   0.98494   0.43843   0.00000  Uiso   1.00
H2091  H     0.07726   0.51544   0.41943   0.00000  Uiso   1.00
H2092  H     0.33133   0.60019   0.58129   0.00000  Uiso   1.00
H2093  H     0.28802   0.59497   0.55842   0.00000  Uiso   1.00
H2094  H     0.35774   0.62205   0.51620   0.00000  Uiso   1.00
H2095  H     0.31226   0.62093   0.49655   0.00000  Uiso   1.00
H2096  H     0.29705   0.53487   0.40124   0.00000  Uiso   1.00
H2097  H     0.29203   0.66487   0.54836   0.00000  Uiso   1.00
H2098  H     0.32841   0.68307   0.51869   0.00000  Uiso   1.00
H2099  H     0.33809   0.66648   0.56718   0.00000  Uiso   1.00
H2100  H     0.15260   0.94051   0.95874   0.00000  Uiso   1.00
H2101  H     0.15693   0.90154   0.99103   0.00000  Uiso   1.00
H2102  H     0.15176   0.90255   0.90122   0.00000  Uiso   1.00
H2103  H     0.16503   0.86296   0.92843   0.00000  Uiso   1.00
H2104  H     0.10692   0.86277   0.96454   0.00000  Uiso   1.00
H2105  H     0.09831   0.86311   0.91263   0.00000  Uiso   1.00
H2106  H     0.09287   0.90418   0.94096   0.00000  Uiso   1.00
H2107  H     0.20278   0.96712   0.59843   0.00000  Uiso   1.00
H2108  H     0.26085   0.60760   0.05510   0.00000  Uiso   1.00
H2109  H     0.28609   0.62577   0.01367   0.00000  Uiso   1.00
H2110  H     0.30904   0.62797   0.10033   0.00000  Uiso   1.00
H2111  H     0.33636   0.64410   0.06009   0.00000  Uiso   1.00
H2112  H     0.28902   0.68934   0.04249   0.00000  Uiso   1.00
H2113  H     0.30265   0.69449   0.09289   0.00000  Uiso   1.00
H2114  H     0.25993   0.67261   0.08140   0.00000  Uiso   1.00
H2115  H     0.10838   0.74689   0.93415   0.00000  Uiso   1.00
H2116  H     0.12012   0.75213   0.98537   0.00000  Uiso   1.00
H2117  H     0.14874   0.79948   0.91783   0.00000  Uiso   1.00
H2118  H     0.28387   0.54818   0.90140   0.00000  Uiso   1.00
H2119  H     0.15952   0.80520   0.96888   0.00000  Uiso   1.00
H2120  H     0.18689   0.74305   0.97065   0.00000  Uiso   1.00
H2121  H     0.20827   0.77138   0.93412   0.00000  Uiso   1.00
H2122  H     0.17597   0.73694   0.91940   0.00000  Uiso   1.00
H2123  H     0.41141   0.65494   0.08046   0.00000  Uiso   1.00
H2124  H     0.45596   0.65945   0.06031   0.00000  Uiso   1.00
H2125  H     0.38752   0.63435   0.01455   0.00000  Uiso   1.00
H2126  H     0.43335   0.63628   0.99584   0.00000  Uiso   1.00
H2127  H     0.45298   0.59098   0.04647   0.00000  Uiso   1.00
H2128  H     0.41727   0.57338   0.01578   0.00000  Uiso   1.00
O2129  O     0.25000   0.50000   0.25000   0.00000  Uiso   1.00
O2130  O     0.25000   0.96964   0.66245   0.00000  Uiso   1.00
O2131  O     0.30392   0.64440   0.73224   0.00000  Uiso   1.00
O2132  O     0.46963   0.75000   0.33755   0.00000  Uiso   1.00
O2133  O     0.03036   0.75000   0.66245   0.00000  Uiso   1.00
O2134  O    -0.00000   0.71963   0.83755   0.00000  Uiso   1.00
O2135  O    -0.00000   0.78036   0.16245   0.00000  Uiso   1.00
O2136  O     0.28036   0.50000   0.83755   0.00000  Uiso   1.00
O2137  O     0.21963   0.50000   0.16245   0.00000  Uiso   1.00
O2138  O    -0.00000   0.78036   0.83755   0.00000  Uiso   1.00
O2139  O    -0.00000   0.71963   0.16245   0.00000  Uiso   1.00
O2140  O     0.21963   0.50000   0.83755   0.00000  Uiso   1.00
O2141  O     0.25000   0.50000   0.75000   0.00000  Uiso   1.00
O2142  O     0.28036   0.50000   0.16245   0.00000  Uiso   1.00
O2143  O     0.20724   0.57307   0.27302   0.00000  Uiso   1.00
O2144  O     0.29275   0.92692   0.72698   0.00000  Uiso   1.00
O2145  O     0.42692   0.70724   0.27302   0.00000  Uiso   1.00
O2146  O     0.07307   0.79276   0.72698   0.00000  Uiso   1.00
O2147  O     0.29275   0.92692   0.27302   0.00000  Uiso   1.00
O2148  O     0.20724   0.57307   0.72698   0.00000  Uiso   1.00
O2149  O     0.07307   0.79276   0.27302   0.00000  Uiso   1.00
O2150  O     0.42692   0.70724   0.72698   0.00000  Uiso   1.00
O2151  O     0.20724   0.92693   0.72698   0.00000  Uiso   1.00
O2152  O     0.00000   0.75000   0.25000   0.00000  Uiso   1.00
O2153  O     0.29275   0.57307   0.27302   0.00000  Uiso   1.00
O2154  O     0.42692   0.79275   0.72698   0.00000  Uiso   1.00
O2155  O     0.07307   0.70725   0.27302   0.00000  Uiso   1.00
O2156  O     0.29275   0.57307   0.72698   0.00000  Uiso   1.00
O2157  O     0.20724   0.92693   0.27302   0.00000  Uiso   1.00
O2158  O     0.07307   0.70725   0.72698   0.00000  Uiso   1.00
O2159  O     0.42692   0.79275   0.27302   0.00000  Uiso   1.00
O2160  O     0.45724   0.82307   0.77302   0.00000  Uiso   1.00
O2161  O     0.04275   0.67693   0.22698   0.00000  Uiso   1.00
O2162  O     0.17692   0.95725   0.77302   0.00000  Uiso   1.00
O2163  O    -0.00000   0.75000   0.75000   0.00000  Uiso   1.00
O2164  O     0.32307   0.54275   0.22698   0.00000  Uiso   1.00
O2165  O     0.04275   0.67693   0.77302   0.00000  Uiso   1.00
O2166  O     0.45724   0.82307   0.22698   0.00000  Uiso   1.00
O2167  O     0.32307   0.54275   0.77302   0.00000  Uiso   1.00
O2168  O     0.17692   0.95725   0.22698   0.00000  Uiso   1.00
O2169  O     0.45724   0.67692   0.22698   0.00000  Uiso   1.00
O2170  O     0.04275   0.82308   0.77302   0.00000  Uiso   1.00
O2171  O     0.17692   0.54275   0.22698   0.00000  Uiso   1.00
O2172  O     0.32307   0.95724   0.77302   0.00000  Uiso   1.00
O2173  O     0.04275   0.82308   0.22698   0.00000  Uiso   1.00
O2174  O     0.25000   0.96964   0.33755   0.00000  Uiso   1.00
O2175  O     0.45724   0.67692   0.77302   0.00000  Uiso   1.00
O2176  O     0.32307   0.95724   0.22698   0.00000  Uiso   1.00
O2177  O     0.17692   0.54275   0.77302   0.00000  Uiso   1.00
O2178  O     0.44078   0.66884   0.45973   0.00000  Uiso   1.00
O2179  O     0.04716   0.83695   0.53939   0.00000  Uiso   1.00
O2180  O     0.33128   0.55931   0.45959   0.00000  Uiso   1.00
O2181  O     0.16441   0.95157   0.54175   0.00000  Uiso   1.00
O2182  O     0.04800   0.83612   0.45910   0.00000  Uiso   1.00
O2183  O     0.43932   0.67023   0.54099   0.00000  Uiso   1.00
O2184  O     0.16147   0.95558   0.46072   0.00000  Uiso   1.00
O2185  O     0.25000   0.53036   0.66245   0.00000  Uiso   1.00
O2186  O     0.33089   0.56018   0.53987   0.00000  Uiso   1.00
O2187  O     0.20297   0.91355   0.95846   0.00000  Uiso   1.00
O2188  O     0.30915   0.58077   0.04076   0.00000  Uiso   1.00
O2189  O     0.08893   0.79391   0.95997   0.00000  Uiso   1.00
O2190  O     0.41528   0.69595   0.04023   0.00000  Uiso   1.00
O2191  O     0.30855   0.58149   0.95949   0.00000  Uiso   1.00
O2192  O     0.20817   0.91017   0.03947   0.00000  Uiso   1.00
O2193  O     0.41311   0.70026   0.95995   0.00000  Uiso   1.00
O2194  O     0.08922   0.79305   0.04039   0.00000  Uiso   1.00
O2195  O     0.10411   0.94728   0.23956   0.00000  Uiso   1.00
O2196  O     0.03036   0.75000   0.33755   0.00000  Uiso   1.00
O2197  O     0.39438   0.55339   0.76642   0.00000  Uiso   1.00
O2198  O     0.05274   0.60504   0.23656   0.00000  Uiso   1.00
O2199  O     0.44523   0.89328   0.77307   0.00000  Uiso   1.00
O2200  O     0.39475   0.55187   0.24441   0.00000  Uiso   1.00
O2201  O     0.10688   0.94441   0.77628   0.00000  Uiso   1.00
O2202  O     0.44415   0.89134   0.21935   0.00000  Uiso   1.00
O2203  O     0.05677   0.61006   0.78239   0.00000  Uiso   1.00
O2204  O     0.10862   0.55572   0.77947   0.00000  Uiso   1.00
O2205  O     0.38863   0.94164   0.21307   0.00000  Uiso   1.00
O2206  O     0.05288   0.89574   0.76277   0.00000  Uiso   1.00
O2207  O     0.46963   0.75000   0.66245   0.00000  Uiso   1.00
O2208  O     0.44628   0.60615   0.23079   0.00000  Uiso   1.00
O2209  O     0.39492   0.94743   0.76175   0.00000  Uiso   1.00
O2210  O     0.10699   0.55502   0.22559   0.00000  Uiso   1.00
O2211  O     0.44806   0.60568   0.75440   0.00000  Uiso   1.00
O2212  O     0.05512   0.89352   0.22605   0.00000  Uiso   1.00
O2213  O     0.35436   0.69770   0.74992   0.00000  Uiso   1.00
O2214  O     0.14392   0.80479   0.27177   0.00000  Uiso   1.00
O2215  O     0.30487   0.85776   0.72285   0.00000  Uiso   1.00
O2216  O     0.19330   0.64001   0.28201   0.00000  Uiso   1.00
O2217  O     0.14575   0.80359   0.73655   0.00000  Uiso   1.00
O2218  O     0.25000   0.53036   0.33755   0.00000  Uiso   1.00
O2219  O     0.35572   0.69635   0.26639   0.00000  Uiso   1.00
O2220  O     0.19753   0.64481   0.73650   0.00000  Uiso   1.00
O2221  O     0.30588   0.85775   0.27734   0.00000  Uiso   1.00
O2222  O     0.35542   0.80334   0.26535   0.00000  Uiso   1.00
O2223  O     0.14345   0.69585   0.72783   0.00000  Uiso   1.00
O2224  O     0.30216   0.64422   0.25374   0.00000  Uiso   1.00
O2225  O     0.19259   0.85885   0.71917   0.00000  Uiso   1.00
O2226  O     0.14183   0.69473   0.27751   0.00000  Uiso   1.00
O2227  O     0.36022   0.80687   0.71718   0.00000  Uiso   1.00
O2228  O     0.19767   0.85376   0.25590   0.00000  Uiso   1.00
Zn2229 Zn    0.20659   0.50000   0.21735   0.00000  Uiso   1.00
Zn2230 Zn    0.04340   0.75000   0.28265   0.00000  Uiso   1.00
Zn2231 Zn    0.25000   0.95660   0.71735   0.00000  Uiso   1.00
Zn2232 Zn    0.25000   0.54340   0.28265   0.00000  Uiso   1.00
Zn2233 Zn    0.04340   0.75000   0.71735   0.00000  Uiso   1.00
Zn2234 Zn    0.45659   0.75000   0.28265   0.00000  Uiso   1.00
Zn2235 Zn    0.25000   0.54340   0.71735   0.00000  Uiso   1.00
Zn2236 Zn    0.25000   0.95660   0.28265   0.00000  Uiso   1.00
Zn2237 Zn    0.29340   0.50000   0.78265   0.00000  Uiso   1.00
Zn2238 Zn   -0.00000   0.70659   0.21735   0.00000  Uiso   1.00
Zn2239 Zn    0.00000   0.79341   0.78265   0.00000  Uiso   1.00
Zn2240 Zn    0.29340   0.50000   0.21735   0.00000  Uiso   1.00
Zn2241 Zn    0.20659   0.50000   0.78265   0.00000  Uiso   1.00
Zn2242 Zn    0.00000   0.79341   0.21735   0.00000  Uiso   1.00
Zn2243 Zn   -0.00000   0.70659   0.78265   0.00000  Uiso   1.00
Zn2244 Zn    0.45659   0.75000   0.71735   0.00000  Uiso   1.00
C2245  C     0.51797   0.77676   0.41794   0.00000  Uiso   1.00
C2246  C     0.73356   0.97155   0.08168   0.00000  Uiso   1.00
C2247  C     0.72211   0.98298   0.54120   0.00000  Uiso   1.00
C2248  C     0.51743   0.77764   0.45870   0.00000  Uiso   1.00
C2249  C     0.97919   0.72286   0.54110   0.00000  Uiso   1.00
C2250  C     0.72112   0.98408   0.45924   0.00000  Uiso   1.00
C2251  C     0.77696   0.52144   0.54107   0.00000  Uiso   1.00
C2252  C     0.73324   0.97181   0.95889   0.00000  Uiso   1.00
C2253  C     0.77069   0.52711   0.04105   0.00000  Uiso   1.00
C2254  C     0.52944   0.76509   0.95911   0.00000  Uiso   1.00
C2255  C     0.97173   0.73099   0.04127   0.00000  Uiso   1.00
C2256  C     0.77067   0.52731   0.95887   0.00000  Uiso   1.00
C2257  C     0.97154   0.73243   0.91820   0.00000  Uiso   1.00
C2258  C     0.73479   0.97059   0.04087   0.00000  Uiso   1.00
C2259  C     0.97114   0.73207   0.95909   0.00000  Uiso   1.00
C2260  C     0.52927   0.76532   0.04122   0.00000  Uiso   1.00
C2261  C     0.59840   0.84825   0.24962   0.00000  Uiso   1.00
C2262  C     0.90198   0.65216   0.75062   0.00000  Uiso   1.00
C2263  C     0.65135   0.59775   0.25130   0.00000  Uiso   1.00
C2264  C     0.84815   0.90196   0.74827   0.00000  Uiso   1.00
C2265  C     0.90184   0.65162   0.25022   0.00000  Uiso   1.00
C2266  C     0.59781   0.84800   0.75008   0.00000  Uiso   1.00
C2267  C     0.84782   0.90143   0.24868   0.00000  Uiso   1.00
C2268  C     0.52855   0.76571   0.08202   0.00000  Uiso   1.00
C2269  C     0.65221   0.59840   0.75184   0.00000  Uiso   1.00
C2270  C     0.59878   0.65235   0.75147   0.00000  Uiso   1.00
C2271  C     0.90181   0.84802   0.24833   0.00000  Uiso   1.00
C2272  C     0.65146   0.90198   0.74995   0.00000  Uiso   1.00
C2273  C     0.84819   0.59770   0.25024   0.00000  Uiso   1.00
C2274  C     0.90227   0.84869   0.74837   0.00000  Uiso   1.00
C2275  C     0.59783   0.65166   0.25168   0.00000  Uiso   1.00
C2276  C     0.84831   0.59819   0.74998   0.00000  Uiso   1.00
C2277  C     0.65215   0.90211   0.24961   0.00000  Uiso   1.00
C2278  C     0.99849   0.75003   0.47937   0.00000  Uiso   1.00
C2279  C     0.73186   0.97317   0.91814   0.00000  Uiso   1.00
C2280  C     0.99836   0.75023   0.52037   0.00000  Uiso   1.00
C2281  C     0.74939   0.50223   0.47959   0.00000  Uiso   1.00
C2282  C     0.74955   0.50217   0.52058   0.00000  Uiso   1.00
C2283  C     0.75202   0.99951   0.97944   0.00000  Uiso   1.00
C2284  C     0.75234   0.99920   0.02043   0.00000  Uiso   1.00
C2285  C     0.50031   0.74850   0.97965   0.00000  Uiso   1.00
C2286  C     0.50037   0.74837   0.02067   0.00000  Uiso   1.00
C2287  C     0.90458   0.68010   0.45343   0.00000  Uiso   1.00
C2288  C     0.88525   0.65170   0.42819   0.00000  Uiso   1.00
C2289  C     0.84675   0.66356   0.41765   0.00000  Uiso   1.00
C2290  C     0.77001   0.52674   0.08193   0.00000  Uiso   1.00
C2291  C     0.51986   0.86385   0.54179   0.00000  Uiso   1.00
C2292  C     0.53750   0.90003   0.55268   0.00000  Uiso   1.00
C2293  C     0.50941   0.93037   0.55555   0.00000  Uiso   1.00
C2294  C     0.85984   0.53605   0.44767   0.00000  Uiso   1.00
C2295  C     0.89193   0.53886   0.47609   0.00000  Uiso   1.00
C2296  C     0.92535   0.51926   0.46020   0.00000  Uiso   1.00
C2297  C     0.66495   0.91326   0.53915   0.00000  Uiso   1.00
C2298  C     0.63999   0.89776   0.57086   0.00000  Uiso   1.00
C2299  C     0.63240   0.85736   0.56466   0.00000  Uiso   1.00
C2300  C     0.58568   0.83194   0.45254   0.00000  Uiso   1.00
C2301  C     0.52849   0.76612   0.91827   0.00000  Uiso   1.00
C2302  C     0.60184   0.86940   0.44367   0.00000  Uiso   1.00
C2303  C     0.64082   0.86694   0.42869   0.00000  Uiso   1.00
C2304  C     0.95899   0.63744   0.54392   0.00000  Uiso   1.00
C2305  C     0.93815   0.61126   0.57061   0.00000  Uiso   1.00
C2306  C     0.95679   0.57433   0.57304   0.00000  Uiso   1.00
C2307  C     0.63592   0.98413   0.45796   0.00000  Uiso   1.00
C2308  C     0.59831   0.96799   0.45001   0.00000  Uiso   1.00
C2309  C     0.56984   0.99764   0.44447   0.00000  Uiso   1.00
C2310  C     0.81796   0.59435   0.55284   0.00000  Uiso   1.00
C2311  C     0.82842   0.62428   0.52373   0.00000  Uiso   1.00
C2312  C     0.97176   0.73199   0.08214   0.00000  Uiso   1.00
C2313  C     0.82124   0.66198   0.54065   0.00000  Uiso   1.00
C2314  C     0.66469   0.91287   0.96205   0.00000  Uiso   1.00
C2315  C     0.64915   0.88854   0.92990   0.00000  Uiso   1.00
C2316  C     0.60930   0.87917   0.93747   0.00000  Uiso   1.00
C2317  C     0.78859   0.61306   0.04309   0.00000  Uiso   1.00
C2318  C     0.80801   0.63970   0.07038   0.00000  Uiso   1.00
C2319  C     0.78859   0.67628   0.07180   0.00000  Uiso   1.00
C2320  C     0.61604   0.76688   0.95718   0.00000  Uiso   1.00
C2321  C     0.65204   0.78499   0.94608   0.00000  Uiso   1.00
C2322  C     0.68262   0.75725   0.94235   0.00000  Uiso   1.00
C2323  C     0.99960   0.74940   0.39797   0.00000  Uiso   1.00
C2324  C     0.92640   0.66105   0.05299   0.00000  Uiso   1.00
C2325  C     0.91670   0.63204   0.02259   0.00000  Uiso   1.00
C2326  C     0.92387   0.59391   0.03844   0.00000  Uiso   1.00
C2327  C     0.84467   0.57018   0.95267   0.00000  Uiso   1.00
C2328  C     0.86386   0.59868   0.92736   0.00000  Uiso   1.00
C2329  C     0.90224   0.58684   0.91635   0.00000  Uiso   1.00
C2330  C     0.73759   0.88546   0.04179   0.00000  Uiso   1.00
C2331  C     0.72308   0.84678   0.03672   0.00000  Uiso   1.00
C2332  C     0.75326   0.81867   0.04082   0.00000  Uiso   1.00
C2333  C     0.88428   0.72559   0.95930   0.00000  Uiso   1.00
C2334  C     0.99956   0.74997   0.60186   0.00000  Uiso   1.00
C2335  C     0.84988   0.70683   0.94426   0.00000  Uiso   1.00
C2336  C     0.81752   0.73273   0.94414   0.00000  Uiso   1.00
C2337  C     0.58613   0.83058   0.04830   0.00000  Uiso   1.00
C2338  C     0.62401   0.84522   0.05809   0.00000  Uiso   1.00
C2339  C     0.62267   0.88335   0.07543   0.00000  Uiso   1.00
C2340  C     0.60404   0.96487   0.27654   0.00000  Uiso   1.00
C2341  C     0.58027   0.94564   0.30757   0.00000  Uiso   1.00
C2342  C     0.57335   0.97037   0.34250   0.00000  Uiso   1.00
C2343  C     0.90600   0.55007   0.80584   0.00000  Uiso   1.00
C2344  C     0.94001   0.52633   0.80733   0.00000  Uiso   1.00
C2345  C     0.74985   0.50058   0.39813   0.00000  Uiso   1.00
C2346  C     0.95378   0.52117   0.84903   0.00000  Uiso   1.00
C2347  C     0.53505   0.60250   0.27341   0.00000  Uiso   1.00
C2348  C     0.52228   0.56341   0.28034   0.00000  Uiso   1.00
C2349  C     0.50624   0.55871   0.32121   0.00000  Uiso   1.00
C2350  C     0.94502   0.89710   0.81418   0.00000  Uiso   1.00
C2351  C     0.98421   0.89882   0.82867   0.00000  Uiso   1.00
C2352  C     0.98584   0.90183   0.87312   0.00000  Uiso   1.00
C2353  C     0.90294   0.54068   0.28298   0.00000  Uiso   1.00
C2354  C     0.90007   0.99939   0.28541   0.00000  Uiso   1.00
C2355  C     0.90972   0.98539   0.32609   0.00000  Uiso   1.00
C2356  C     0.97958   0.72343   0.58199   0.00000  Uiso   1.00
C2357  C     0.75056   0.50037   0.60199   0.00000  Uiso   1.00
C2358  C     0.61318   0.94786   0.81701   0.00000  Uiso   1.00
C2359  C     0.57863   0.93973   0.84055   0.00000  Uiso   1.00
C2360  C     0.57939   0.95906   0.88005   0.00000  Uiso   1.00
C2361  C     0.96233   0.91775   0.24246   0.00000  Uiso   1.00
C2362  C     0.97397   0.94977   0.21648   0.00000  Uiso   1.00
C2363  C     0.99971   0.97580   0.23747   0.00000  Uiso   1.00
C2364  C     0.55803   0.61319   0.82358   0.00000  Uiso   1.00
C2365  C     0.51903   0.61426   0.83929   0.00000  Uiso   1.00
C2366  C     0.51827   0.61699   0.88377   0.00000  Uiso   1.00
C2367  C     0.58342   0.53697   0.75540   0.00000  Uiso   1.00
C2368  C     0.75021   0.50056   0.89802   0.00000  Uiso   1.00
C2369  C     0.55172   0.52328   0.78066   0.00000  Uiso   1.00
C2370  C     0.52800   0.99582   0.75912   0.00000  Uiso   1.00
C2371  C     0.88277   0.93764   0.17243   0.00000  Uiso   1.00
C2372  C     0.88179   0.97540   0.15359   0.00000  Uiso   1.00
C2373  C     0.87210   0.97326   0.11028   0.00000  Uiso   1.00
C2374  C     0.53454   0.89620   0.72613   0.00000  Uiso   1.00
C2375  C     0.55554   0.91561   0.69284   0.00000  Uiso   1.00
C2376  C     0.53029   0.92565   0.65926   0.00000  Uiso   1.00
C2377  C     0.94683   0.59928   0.19006   0.00000  Uiso   1.00
C2378  C     0.98617   0.59609   0.17610   0.00000  Uiso   1.00
C2379  C     0.75072   0.99970   0.10188   0.00000  Uiso   1.00
C2380  C     0.98815   0.59023   0.13200   0.00000  Uiso   1.00
C2381  C     0.89568   0.96522   0.72487   0.00000  Uiso   1.00
C2382  C     0.93477   0.96829   0.70973   0.00000  Uiso   1.00
C2383  C     0.93622   0.98884   0.67094   0.00000  Uiso   1.00
C2384  C     0.60471   0.55532   0.18435   0.00000  Uiso   1.00
C2385  C     0.60333   0.51616   0.16976   0.00000  Uiso   1.00
C2386  C     0.60293   0.51449   0.12520   0.00000  Uiso   1.00
C2387  C     0.95791   0.59684   0.71561   0.00000  Uiso   1.00
C2388  C     0.99924   0.59543   0.71260   0.00000  Uiso   1.00
C2389  C     0.51155   0.58510   0.67150   0.00000  Uiso   1.00
C2390  C     0.99983   0.74973   0.89814   0.00000  Uiso   1.00
C2391  C     0.55129   0.88835   0.18512   0.00000  Uiso   1.00
C2392  C     0.55994   0.92326   0.16243   0.00000  Uiso   1.00
C2393  C     0.54158   0.92329   0.12233   0.00000  Uiso   1.00
C2394  C     0.85226   0.70661   0.79014   0.00000  Uiso   1.00
C2395  C     0.83267   0.74276   0.79505   0.00000  Uiso   1.00
C2396  C     0.83048   0.75385   0.83793   0.00000  Uiso   1.00
C2397  C     0.64060   0.80083   0.31290   0.00000  Uiso   1.00
C2398  C     0.67654   0.80961   0.33369   0.00000  Uiso   1.00
C2399  C     0.67951   0.78957   0.37277   0.00000  Uiso   1.00
C2400  C     0.78738   0.83157   0.74698   0.00000  Uiso   1.00
C2401  C     0.99979   0.74960   0.10207   0.00000  Uiso   1.00
C2402  C     0.77992   0.79654   0.72359   0.00000  Uiso   1.00
C2403  C     0.74443   0.77799   0.73538   0.00000  Uiso   1.00
C2404  C     0.69188   0.63750   0.32324   0.00000  Uiso   1.00
C2405  C     0.73080   0.63650   0.33906   0.00000  Uiso   1.00
C2406  C     0.73140   0.63426   0.38358   0.00000  Uiso   1.00
C2407  C     0.64756   0.78558   0.77331   0.00000  Uiso   1.00
C2408  C     0.67160   0.80523   0.80374   0.00000  Uiso   1.00
C2409  C     0.67984   0.78060   0.83845   0.00000  Uiso   1.00
C2410  C     0.84320   0.69997   0.30546   0.00000  Uiso   1.00
C2411  C     0.80792   0.72189   0.30568   0.00000  Uiso   1.00
C2412  C     0.95926   0.69598   0.47960   0.00000  Uiso   1.00
C2413  C     0.79419   0.72871   0.34713   0.00000  Uiso   1.00
C2414  C     0.71583   0.64644   0.77301   0.00000  Uiso   1.00
C2415  C     0.72347   0.68603   0.78399   0.00000  Uiso   1.00
C2416  C     0.74429   0.68868   0.82246   0.00000  Uiso   1.00
C2417  C     0.80700   0.85722   0.31862   0.00000  Uiso   1.00
C2418  C     0.76821   0.85366   0.33420   0.00000  Uiso   1.00
C2419  C     0.76700   0.85724   0.37862   0.00000  Uiso   1.00
C2420  C     0.84972   0.78635   0.22860   0.00000  Uiso   1.00
C2421  C     0.81142   0.79413   0.21290   0.00000  Uiso   1.00
C2422  C     0.80139   0.76838   0.17963   0.00000  Uiso   1.00
C2423  C     0.53304   0.80715   0.51995   0.00000  Uiso   1.00
C2424  C     0.64943   0.69719   0.68702   0.00000  Uiso   1.00
C2425  C     0.65417   0.73685   0.67466   0.00000  Uiso   1.00
C2426  C     0.66188   0.74027   0.63098   0.00000  Uiso   1.00
C2427  C     0.79243   0.65030   0.21427   0.00000  Uiso   1.00
C2428  C     0.75113   0.65235   0.21111   0.00000  Uiso   1.00
C2429  C     0.73908   0.66076   0.16942   0.00000  Uiso   1.00
C2430  C     0.68960   0.86280   0.67812   0.00000  Uiso   1.00
C2431  C     0.72745   0.85959   0.65994   0.00000  Uiso   1.00
C2432  C     0.72858   0.87336   0.61794   0.00000  Uiso   1.00
C2433  C     0.66686   0.71246   0.25231   0.00000  Uiso   1.00
C2434  C     0.80476   0.53970   0.47937   0.00000  Uiso   1.00
C2435  C     0.69931   0.72593   0.27640   0.00000  Uiso   1.00
C2436  C     0.72279   0.75294   0.25392   0.00000  Uiso   1.00
C2437  C     0.86309   0.80903   0.67602   0.00000  Uiso   1.00
C2438  C     0.86101   0.77055   0.65920   0.00000  Uiso   1.00
C2439  C     0.86534   0.77065   0.61484   0.00000  Uiso   1.00
C2440  C     0.71400   0.85692   0.21828   0.00000  Uiso   1.00
C2441  C     0.69337   0.83655   0.18559   0.00000  Uiso   1.00
C2442  C     0.71380   0.83894   0.14685   0.00000  Uiso   1.00
C2443  C     0.80236   0.65264   0.69169   0.00000  Uiso   1.00
C2444  C     0.77815   0.68578   0.68536   0.00000  Uiso   1.00
C2445  C     0.69342   0.96603   0.52101   0.00000  Uiso   1.00
C2446  C     0.77644   0.69653   0.64230   0.00000  Uiso   1.00
C2447  C     0.53459   0.80617   0.47900   0.00000  Uiso   1.00
C2448  C     0.72217   0.98271   0.41845   0.00000  Uiso   1.00
C2449  C     0.96002   0.69553   0.52072   0.00000  Uiso   1.00
C2450  C     0.69197   0.96830   0.48005   0.00000  Uiso   1.00
C2451  C     0.80362   0.54145   0.52034   0.00000  Uiso   1.00
C2452  C     0.71697   0.94274   0.97918   0.00000  Uiso   1.00
C2453  C     0.78930   0.55481   0.02056   0.00000  Uiso   1.00
C2454  C     0.55927   0.77969   0.97972   0.00000  Uiso   1.00
C2455  C     0.94356   0.71319   0.02068   0.00000  Uiso   1.00
C2456  C     0.79026   0.55423   0.97945   0.00000  Uiso   1.00
C2457  C     0.71949   0.94123   0.02013   0.00000  Uiso   1.00
C2458  C     0.94219   0.71563   0.97973   0.00000  Uiso   1.00
C2459  C     0.77702   0.52035   0.58196   0.00000  Uiso   1.00
C2460  C     0.55861   0.78099   0.02071   0.00000  Uiso   1.00
C2461  C     0.74999   0.50007   0.35582   0.00000  Uiso   1.00
C2462  C     0.75040   0.50006   0.64423   0.00000  Uiso   1.00
C2463  C     0.99993   0.74957   0.35576   0.00000  Uiso   1.00
C2464  C     0.99995   0.74994   0.64417   0.00000  Uiso   1.00
C2465  C     0.99987   0.74996   0.85582   0.00000  Uiso   1.00
C2466  C     0.99977   0.74995   0.14426   0.00000  Uiso   1.00
C2467  C     0.75002   0.50038   0.85578   0.00000  Uiso   1.00
C2468  C     0.75010   0.99995   0.14418   0.00000  Uiso   1.00
C2469  C     0.67976   0.56993   0.25029   0.00000  Uiso   1.00
C2470  C     0.98001   0.72268   0.41803   0.00000  Uiso   1.00
C2471  C     0.81990   0.92980   0.74991   0.00000  Uiso   1.00
C2472  C     0.92991   0.67990   0.25003   0.00000  Uiso   1.00
C2473  C     0.56996   0.81997   0.75002   0.00000  Uiso   1.00
C2474  C     0.81995   0.92977   0.24968   0.00000  Uiso   1.00
C2475  C     0.67994   0.57005   0.75026   0.00000  Uiso   1.00
C2476  C     0.57014   0.82010   0.24993   0.00000  Uiso   1.00
C2477  C     0.93000   0.68006   0.75011   0.00000  Uiso   1.00
C2478  C     0.67976   0.93004   0.74987   0.00000  Uiso   1.00
C2479  C     0.82011   0.56983   0.25016   0.00000  Uiso   1.00
C2480  C     0.93009   0.82027   0.74961   0.00000  Uiso   1.00
C2481  C     0.51800   0.77727   0.58154   0.00000  Uiso   1.00
C2482  C     0.57003   0.67994   0.25027   0.00000  Uiso   1.00
C2483  C     0.82014   0.57005   0.74992   0.00000  Uiso   1.00
C2484  C     0.67997   0.93013   0.25006   0.00000  Uiso   1.00
C2485  C     0.57029   0.68010   0.75035   0.00000  Uiso   1.00
C2486  C     0.93001   0.82013   0.24982   0.00000  Uiso   1.00
C2487  C     0.61554   0.91152   0.24292   0.00000  Uiso   1.00
C2488  C     0.88470   0.58899   0.75850   0.00000  Uiso   1.00
C2489  C     0.58860   0.61565   0.24172   0.00000  Uiso   1.00
C2490  C     0.91047   0.88425   0.76095   0.00000  Uiso   1.00
C2491  C     0.88476   0.58804   0.24544   0.00000  Uiso   1.00
C2492  C     0.77652   0.52042   0.41797   0.00000  Uiso   1.00
C2493  C     0.61619   0.90986   0.76392   0.00000  Uiso   1.00
C2494  C     0.90997   0.88327   0.23441   0.00000  Uiso   1.00
C2495  C     0.59081   0.61768   0.76707   0.00000  Uiso   1.00
C2496  C     0.61666   0.58995   0.76463   0.00000  Uiso   1.00
C2497  C     0.88193   0.90874   0.23134   0.00000  Uiso   1.00
C2498  C     0.58858   0.88426   0.75882   0.00000  Uiso   1.00
C2499  C     0.91111   0.61530   0.24137   0.00000  Uiso   1.00
C2500  C     0.88439   0.91148   0.75705   0.00000  Uiso   1.00
C2501  C     0.61591   0.58964   0.23813   0.00000  Uiso   1.00
C2502  C     0.91182   0.61556   0.75448   0.00000  Uiso   1.00
C2503  C     0.72337   0.98176   0.58195   0.00000  Uiso   1.00
C2504  C     0.58989   0.88402   0.23766   0.00000  Uiso   1.00
C2505  C     0.86527   0.66184   0.74716   0.00000  Uiso   1.00
C2506  C     0.63434   0.83971   0.26090   0.00000  Uiso   1.00
C2507  C     0.83953   0.86619   0.73629   0.00000  Uiso   1.00
C2508  C     0.65927   0.63240   0.26680   0.00000  Uiso   1.00
C2509  C     0.63406   0.83910   0.74107   0.00000  Uiso   1.00
C2510  C     0.86544   0.66071   0.25886   0.00000  Uiso   1.00
C2511  C     0.66158   0.63447   0.74204   0.00000  Uiso   1.00
C2512  C     0.84019   0.86649   0.26352   0.00000  Uiso   1.00
C2513  C     0.86599   0.83907   0.25938   0.00000  Uiso   1.00
C2514  C     0.76979   0.52729   0.91799   0.00000  Uiso   1.00
C2515  C     0.63431   0.66066   0.73853   0.00000  Uiso   1.00
C2516  C     0.83836   0.63421   0.25462   0.00000  Uiso   1.00
C2517  C     0.65925   0.86694   0.73562   0.00000  Uiso   1.00
C2518  C     0.63345   0.66016   0.26405   0.00000  Uiso   1.00
C2519  C     0.86752   0.84064   0.73309   0.00000  Uiso   1.00
C2520  C     0.66179   0.86545   0.25537   0.00000  Uiso   1.00
C2521  C     0.83908   0.63466   0.74202   0.00000  Uiso   1.00
C2522  C     0.97927   0.72259   0.45892   0.00000  Uiso   1.00
C2523  C     0.51688   0.77823   0.54073   0.00000  Uiso   1.00
C2524  C     0.77715   0.52085   0.45887   0.00000  Uiso   1.00
H2525  H     0.53194   0.79770   0.40133   0.00000  Uiso   1.00
H2526  H     0.71968   0.95030   0.09796   0.00000  Uiso   1.00
H2527  H     0.90667   0.58855   0.06456   0.00000  Uiso   1.00
H2528  H     0.84527   0.54361   0.93700   0.00000  Uiso   1.00
H2529  H     0.85956   0.56753   0.98085   0.00000  Uiso   1.00
H2530  H     0.84792   0.60313   0.90016   0.00000  Uiso   1.00
H2531  H     0.86541   0.62477   0.94355   0.00000  Uiso   1.00
H2532  H     0.91907   0.58305   0.94295   0.00000  Uiso   1.00
H2533  H     0.91519   0.60800   0.89772   0.00000  Uiso   1.00
H2534  H     0.90118   0.56097   0.89973   0.00000  Uiso   1.00
H2535  H     0.75045   0.88811   0.07107   0.00000  Uiso   1.00
H2536  H     0.75914   0.89000   0.01915   0.00000  Uiso   1.00
H2537  H     0.94975   0.71972   0.90171   0.00000  Uiso   1.00
H2538  H     0.70200   0.84133   0.05914   0.00000  Uiso   1.00
H2539  H     0.71038   0.84409   0.00737   0.00000  Uiso   1.00
H2540  H     0.77448   0.82311   0.01815   0.00000  Uiso   1.00
H2541  H     0.74167   0.79096   0.03703   0.00000  Uiso   1.00
H2542  H     0.76587   0.82046   0.07027   0.00000  Uiso   1.00
H2543  H     0.89127   0.74862   0.93945   0.00000  Uiso   1.00
H2544  H     0.87837   0.73650   0.98906   0.00000  Uiso   1.00
H2545  H     0.85465   0.69669   0.91408   0.00000  Uiso   1.00
H2546  H     0.84328   0.68330   0.96344   0.00000  Uiso   1.00
H2547  H     0.81108   0.74153   0.97443   0.00000  Uiso   1.00
H2548  H     0.55050   0.77796   0.09861   0.00000  Uiso   1.00
H2549  H     0.79332   0.71868   0.93182   0.00000  Uiso   1.00
H2550  H     0.82360   0.75707   0.92600   0.00000  Uiso   1.00
H2551  H     0.56775   0.83480   0.07373   0.00000  Uiso   1.00
H2552  H     0.57531   0.84613   0.02287   0.00000  Uiso   1.00
H2553  H     0.63734   0.82686   0.07954   0.00000  Uiso   1.00
H2554  H     0.64066   0.84566   0.03097   0.00000  Uiso   1.00
H2555  H     0.60769   0.90211   0.05577   0.00000  Uiso   1.00
H2556  H     0.65072   0.89382   0.07959   0.00000  Uiso   1.00
H2557  H     0.60942   0.88242   0.10454   0.00000  Uiso   1.00
H2558  H     0.59311   0.99262   0.27171   0.00000  Uiso   1.00
H2559  H     0.71736   0.95249   0.90171   0.00000  Uiso   1.00
H2560  H     0.63205   0.96867   0.28798   0.00000  Uiso   1.00
H2561  H     0.55378   0.93730   0.29492   0.00000  Uiso   1.00
H2562  H     0.59430   0.92075   0.31809   0.00000  Uiso   1.00
H2563  H     0.59956   0.97886   0.35589   0.00000  Uiso   1.00
H2564  H     0.55690   0.95555   0.36467   0.00000  Uiso   1.00
H2565  H     0.55811   0.99490   0.33325   0.00000  Uiso   1.00
H2566  H     0.88394   0.53667   0.82288   0.00000  Uiso   1.00
H2567  H     0.91231   0.57649   0.82054   0.00000  Uiso   1.00
H2568  H     0.93366   0.99921   0.79496   0.00000  Uiso   1.00
H2569  H     0.96181   0.53915   0.78945   0.00000  Uiso   1.00
H2570  H     0.78379   0.54780   0.09851   0.00000  Uiso   1.00
H2571  H     0.96040   0.54783   0.86249   0.00000  Uiso   1.00
H2572  H     0.97879   0.50432   0.84863   0.00000  Uiso   1.00
H2573  H     0.93287   0.50703   0.86699   0.00000  Uiso   1.00
H2574  H     0.51086   0.62052   0.27285   0.00000  Uiso   1.00
H2575  H     0.55204   0.61135   0.29883   0.00000  Uiso   1.00
H2576  H     0.50120   0.55621   0.25844   0.00000  Uiso   1.00
H2577  H     0.54561   0.54456   0.27686   0.00000  Uiso   1.00
H2578  H     0.52739   0.56389   0.34374   0.00000  Uiso   1.00
H2579  H     0.99606   0.53045   0.32479   0.00000  Uiso   1.00
H2580  H     0.98327   0.57780   0.32568   0.00000  Uiso   1.00
H2581  H     0.55027   0.77901   0.90186   0.00000  Uiso   1.00
H2582  H     0.93125   0.87352   0.82864   0.00000  Uiso   1.00
H2583  H     0.93095   0.92267   0.82267   0.00000  Uiso   1.00
H2584  H     0.99887   0.87390   0.81940   0.00000  Uiso   1.00
H2585  H     0.99784   0.92279   0.81536   0.00000  Uiso   1.00
H2586  H     0.97367   0.92790   0.88286   0.00000  Uiso   1.00
H2587  H     0.51460   0.90086   0.88285   0.00000  Uiso   1.00
H2588  H     0.97102   0.87879   0.88696   0.00000  Uiso   1.00
H2589  H     0.88383   0.55227   0.30512   0.00000  Uiso   1.00
H2590  H     0.93116   0.54922   0.29033   0.00000  Uiso   1.00
H2591  H     0.87184   0.99084   0.27817   0.00000  Uiso   1.00
H2592  H     0.94986   0.71958   0.09876   0.00000  Uiso   1.00
H2593  H     0.91883   0.98730   0.26377   0.00000  Uiso   1.00
H2594  H     0.93823   0.99273   0.33350   0.00000  Uiso   1.00
H2595  H     0.90697   0.95532   0.32674   0.00000  Uiso   1.00
H2596  H     0.89109   0.99711   0.34832   0.00000  Uiso   1.00
H2597  H     0.62160   0.97651   0.82223   0.00000  Uiso   1.00
H2598  H     0.63594   0.93063   0.82807   0.00000  Uiso   1.00
H2599  H     0.55440   0.94902   0.82419   0.00000  Uiso   1.00
H2600  H     0.57615   0.90990   0.84517   0.00000  Uiso   1.00
H2601  H     0.60490   0.95274   0.89593   0.00000  Uiso   1.00
H2602  H     0.55581   0.95030   0.89805   0.00000  Uiso   1.00
H2603  H     0.90380   0.70677   0.43790   0.00000  Uiso   1.00
H2604  H     0.57776   0.98896   0.87581   0.00000  Uiso   1.00
H2605  H     0.98701   0.90481   0.25487   0.00000  Uiso   1.00
H2606  H     0.94621   0.92806   0.26777   0.00000  Uiso   1.00
H2607  H     0.98733   0.93933   0.18977   0.00000  Uiso   1.00
H2608  H     0.94997   0.96542   0.20696   0.00000  Uiso   1.00
H2609  H     0.98772   0.98499   0.26557   0.00000  Uiso   1.00
H2610  H     0.50489   0.99989   0.21864   0.00000  Uiso   1.00
H2611  H     0.52605   0.96238   0.24303   0.00000  Uiso   1.00
H2612  H     0.57229   0.63859   0.83296   0.00000  Uiso   1.00
H2613  H     0.57228   0.58933   0.83635   0.00000  Uiso   1.00
H2614  H     0.88987   0.68252   0.48178   0.00000  Uiso   1.00
H2615  H     0.50461   0.63806   0.82675   0.00000  Uiso   1.00
H2616  H     0.50420   0.58933   0.83016   0.00000  Uiso   1.00
H2617  H     0.53196   0.59311   0.89705   0.00000  Uiso   1.00
H2618  H     0.98961   0.61760   0.89405   0.00000  Uiso   1.00
H2619  H     0.53211   0.64232   0.89352   0.00000  Uiso   1.00
H2620  H     0.59771   0.51327   0.74248   0.00000  Uiso   1.00
H2621  H     0.57253   0.55328   0.73053   0.00000  Uiso   1.00
H2622  H     0.56251   0.51066   0.80766   0.00000  Uiso   1.00
H2623  H     0.53438   0.54625   0.78969   0.00000  Uiso   1.00
H2624  H     0.51778   0.50738   0.73123   0.00000  Uiso   1.00
H2625  H     0.90096   0.64749   0.40078   0.00000  Uiso   1.00
H2626  H     0.50456   0.98795   0.77777   0.00000  Uiso   1.00
H2627  H     0.54379   0.97102   0.75315   0.00000  Uiso   1.00
H2628  H     0.85639   0.92362   0.16626   0.00000  Uiso   1.00
H2629  H     0.90532   0.92174   0.15912   0.00000  Uiso   1.00
H2630  H     0.86124   0.99245   0.16872   0.00000  Uiso   1.00
H2631  H     0.90878   0.98879   0.15680   0.00000  Uiso   1.00
H2632  H     0.89239   0.95653   0.09437   0.00000  Uiso   1.00
H2633  H     0.87205   0.50104   0.09752   0.00000  Uiso   1.00
H2634  H     0.84458   0.96115   0.10646   0.00000  Uiso   1.00
H2635  H     0.50846   0.91068   0.73093   0.00000  Uiso   1.00
H2636  H     0.96505   0.70289   0.59864   0.00000  Uiso   1.00
H2637  H     0.88396   0.62544   0.44422   0.00000  Uiso   1.00
H2638  H     0.52697   0.86830   0.71675   0.00000  Uiso   1.00
H2639  H     0.56891   0.94072   0.70365   0.00000  Uiso   1.00
H2640  H     0.57711   0.89736   0.68141   0.00000  Uiso   1.00
H2641  H     0.51731   0.90084   0.64698   0.00000  Uiso   1.00
H2642  H     0.54620   0.93953   0.63599   0.00000  Uiso   1.00
H2643  H     0.50890   0.94451   0.66961   0.00000  Uiso   1.00
H2644  H     0.93371   0.62187   0.17346   0.00000  Uiso   1.00
H2645  H     0.93241   0.57334   0.18339   0.00000  Uiso   1.00
H2646  H     0.50122   0.62140   0.18360   0.00000  Uiso   1.00
H2647  H     0.99941   0.57277   0.19094   0.00000  Uiso   1.00
H2648  H     0.83030   0.66775   0.44448   0.00000  Uiso   1.00
H2649  H     0.97334   0.56500   0.12370   0.00000  Uiso   1.00
H2650  H     0.51703   0.58757   0.12292   0.00000  Uiso   1.00
H2651  H     0.97607   0.61375   0.11636   0.00000  Uiso   1.00
H2652  H     0.88461   0.99296   0.72897   0.00000  Uiso   1.00
H2653  H     0.87834   0.95213   0.70201   0.00000  Uiso   1.00
H2654  H     0.95174   0.98294   0.73142   0.00000  Uiso   1.00
H2655  H     0.94624   0.94066   0.70556   0.00000  Uiso   1.00
H2656  H     0.92188   0.97314   0.64786   0.00000  Uiso   1.00
H2657  H     0.96496   0.99291   0.66189   0.00000  Uiso   1.00
H2658  H     0.92327   0.51593   0.67388   0.00000  Uiso   1.00
H2659  H     0.83348   0.64225   0.39957   0.00000  Uiso   1.00
H2660  H     0.62889   0.56897   0.17093   0.00000  Uiso   1.00
H2661  H     0.57954   0.56955   0.17480   0.00000  Uiso   1.00
H2662  H     0.62745   0.50116   0.18073   0.00000  Uiso   1.00
H2663  H     0.57844   0.50290   0.18144   0.00000  Uiso   1.00
H2664  H     0.57784   0.52736   0.11365   0.00000  Uiso   1.00
H2665  H     0.60368   0.98570   0.11561   0.00000  Uiso   1.00
H2666  H     0.62717   0.52863   0.11297   0.00000  Uiso   1.00
H2667  H     0.94802   0.61751   0.69417   0.00000  Uiso   1.00
H2668  H     0.94649   0.56974   0.70783   0.00000  Uiso   1.00
H2669  H     0.51080   0.62248   0.72021   0.00000  Uiso   1.00
H2670  H     0.84765   0.68927   0.40063   0.00000  Uiso   1.00
H2671  H     0.50956   0.57509   0.73366   0.00000  Uiso   1.00
H2672  H     0.50069   0.55789   0.66345   0.00000  Uiso   1.00
H2673  H     0.54173   0.58420   0.67044   0.00000  Uiso   1.00
H2674  H     0.50196   0.60559   0.65001   0.00000  Uiso   1.00
H2675  H     0.52244   0.88062   0.17983   0.00000  Uiso   1.00
H2676  H     0.56805   0.86559   0.17330   0.00000  Uiso   1.00
H2677  H     0.55025   0.94714   0.17904   0.00000  Uiso   1.00
H2678  H     0.58988   0.92590   0.15875   0.00000  Uiso   1.00
H2679  H     0.54804   0.89811   0.10596   0.00000  Uiso   1.00
H2680  H     0.55096   0.94711   0.10510   0.00000  Uiso   1.00
H2681  H     0.99973   0.85617   0.56474   0.00000  Uiso   1.00
H2682  H     0.51158   0.92502   0.12567   0.00000  Uiso   1.00
H2683  H     0.88009   0.70921   0.80270   0.00000  Uiso   1.00
H2684  H     0.83680   0.68558   0.80698   0.00000  Uiso   1.00
H2685  H     0.84747   0.76421   0.77853   0.00000  Uiso   1.00
H2686  H     0.80463   0.74005   0.78335   0.00000  Uiso   1.00
H2687  H     0.81545   0.73291   0.85497   0.00000  Uiso   1.00
H2688  H     0.81582   0.78009   0.84046   0.00000  Uiso   1.00
H2689  H     0.85821   0.75722   0.85035   0.00000  Uiso   1.00
H2690  H     0.63312   0.77198   0.31855   0.00000  Uiso   1.00
H2691  H     0.61825   0.81742   0.32589   0.00000  Uiso   1.00
H2692  H     0.50530   0.86765   0.51345   0.00000  Uiso   1.00
H2693  H     0.69978   0.80158   0.31504   0.00000  Uiso   1.00
H2694  H     0.67847   0.83940   0.33871   0.00000  Uiso   1.00
H2695  H     0.65492   0.79405   0.39093   0.00000  Uiso   1.00
H2696  H     0.70378   0.79935   0.38897   0.00000  Uiso   1.00
H2697  H     0.68247   0.75990   0.36792   0.00000  Uiso   1.00
H2698  H     0.76116   0.84363   0.75653   0.00000  Uiso   1.00
H2699  H     0.80251   0.82475   0.77432   0.00000  Uiso   1.00
H2700  H     0.77927   0.80238   0.69184   0.00000  Uiso   1.00
H2701  H     0.80219   0.77691   0.72817   0.00000  Uiso   1.00
H2702  H     0.74456   0.77151   0.76710   0.00000  Uiso   1.00
H2703  H     0.55152   0.89703   0.58122   0.00000  Uiso   1.00
H2704  H     0.74111   0.75242   0.71861   0.00000  Uiso   1.00
H2705  H     0.72105   0.79569   0.72837   0.00000  Uiso   1.00
H2706  H     0.67749   0.61229   0.33304   0.00000  Uiso   1.00
H2707  H     0.67769   0.66162   0.33551   0.00000  Uiso   1.00
H2708  H     0.74521   0.61253   0.32690   0.00000  Uiso   1.00
H2709  H     0.74568   0.66130   0.32959   0.00000  Uiso   1.00
H2710  H     0.71774   0.65833   0.39647   0.00000  Uiso   1.00
H2711  H     0.76003   0.63368   0.39394   0.00000  Uiso   1.00
H2712  H     0.71745   0.60909   0.39368   0.00000  Uiso   1.00
H2713  H     0.65929   0.75829   0.76782   0.00000  Uiso   1.00
H2714  H     0.55801   0.90746   0.53011   0.00000  Uiso   1.00
H2715  H     0.61999   0.78078   0.78565   0.00000  Uiso   1.00
H2716  H     0.69758   0.81417   0.79025   0.00000  Uiso   1.00
H2717  H     0.65729   0.82975   0.81477   0.00000  Uiso   1.00
H2718  H     0.65413   0.77101   0.85216   0.00000  Uiso   1.00
H2719  H     0.69596   0.79589   0.86046   0.00000  Uiso   1.00
H2720  H     0.69588   0.75676   0.82883   0.00000  Uiso   1.00
H2721  H     0.86424   0.71499   0.32236   0.00000  Uiso   1.00
H2722  H     0.83820   0.67364   0.32097   0.00000  Uiso   1.00
H2723  H     0.81256   0.74850   0.29125   0.00000  Uiso   1.00
H2724  H     0.78671   0.70695   0.28901   0.00000  Uiso   1.00
H2725  H     0.99570   0.93432   0.52693   0.00000  Uiso   1.00
H2726  H     0.78909   0.70255   0.36245   0.00000  Uiso   1.00
H2727  H     0.76831   0.74417   0.34594   0.00000  Uiso   1.00
H2728  H     0.81447   0.74486   0.36386   0.00000  Uiso   1.00
H2729  H     0.74213   0.63199   0.76983   0.00000  Uiso   1.00
H2730  H     0.70113   0.63285   0.79767   0.00000  Uiso   1.00
H2731  H     0.73988   0.69914   0.76069   0.00000  Uiso   1.00
H2732  H     0.69733   0.70086   0.78676   0.00000  Uiso   1.00
H2733  H     0.72776   0.67722   0.84676   0.00000  Uiso   1.00
H2734  H     0.75038   0.71762   0.82902   0.00000  Uiso   1.00
H2735  H     0.77038   0.67368   0.82041   0.00000  Uiso   1.00
H2736  H     0.52318   0.95618   0.56379   0.00000  Uiso   1.00
H2737  H     0.81917   0.88286   0.33034   0.00000  Uiso   1.00
H2738  H     0.82317   0.83361   0.32916   0.00000  Uiso   1.00
H2739  H     0.75089   0.87516   0.32105   0.00000  Uiso   1.00
H2740  H     0.75715   0.82671   0.32562   0.00000  Uiso   1.00
H2741  H     0.78260   0.83487   0.39249   0.00000  Uiso   1.00
H2742  H     0.73834   0.85581   0.38878   0.00000  Uiso   1.00
H2743  H     0.77859   0.88382   0.38785   0.00000  Uiso   1.00
H2744  H     0.85268   0.75670   0.23297   0.00000  Uiso   1.00
H2745  H     0.87052   0.79394   0.20622   0.00000  Uiso   1.00
H2746  H     0.79131   0.79102   0.23683   0.00000  Uiso   1.00
H2747  H     0.70124   0.96833   0.40225   0.00000  Uiso   1.00
H2748  H     0.98870   0.92372   0.57815   0.00000  Uiso   1.00
H2749  H     0.81009   0.82256   0.20201   0.00000  Uiso   1.00
H2750  H     0.82069   0.77174   0.15487   0.00000  Uiso   1.00
H2751  H     0.77347   0.77439   0.16922   0.00000  Uiso   1.00
H2752  H     0.80197   0.73979   0.18993   0.00000  Uiso   1.00
H2753  H     0.62583   0.68546   0.67078   0.00000  Uiso   1.00
H2754  H     0.67454   0.68207   0.67908   0.00000  Uiso   1.00
H2755  H     0.62896   0.75212   0.68170   0.00000  Uiso   1.00
H2756  H     0.67715   0.74913   0.69114   0.00000  Uiso   1.00
H2757  H     0.68730   0.72566   0.62332   0.00000  Uiso   1.00
H2758  H     0.66525   0.76942   0.62319   0.00000  Uiso   1.00
H2759  H     0.86901   0.54541   0.41835   0.00000  Uiso   1.00
H2760  H     0.63890   0.72884   0.61380   0.00000  Uiso   1.00
H2761  H     0.80179   0.62790   0.19470   0.00000  Uiso   1.00
H2762  H     0.80456   0.67637   0.20402   0.00000  Uiso   1.00
H2763  H     0.73906   0.62598   0.22040   0.00000  Uiso   1.00
H2764  H     0.74115   0.67396   0.23080   0.00000  Uiso   1.00
H2765  H     0.75025   0.68743   0.15984   0.00000  Uiso   1.00
H2766  H     0.70891   0.66194   0.16823   0.00000  Uiso   1.00
H2767  H     0.74852   0.63916   0.14916   0.00000  Uiso   1.00
H2768  H     0.67801   0.88984   0.67021   0.00000  Uiso   1.00
H2769  H     0.67178   0.84110   0.66575   0.00000  Uiso   1.00
H2770  H     0.85150   0.50699   0.44422   0.00000  Uiso   1.00
H2771  H     0.74735   0.87550   0.67747   0.00000  Uiso   1.00
H2772  H     0.73544   0.83060   0.66001   0.00000  Uiso   1.00
H2773  H     0.71019   0.85682   0.59940   0.00000  Uiso   1.00
H2774  H     0.75668   0.87091   0.60632   0.00000  Uiso   1.00
H2775  H     0.72049   0.90238   0.61663   0.00000  Uiso   1.00
H2776  H     0.65276   0.73618   0.23919   0.00000  Uiso   1.00
H2777  H     0.67694   0.69549   0.22754   0.00000  Uiso   1.00
H2778  H     0.68935   0.73886   0.30349   0.00000  Uiso   1.00
H2779  H     0.71659   0.70289   0.28534   0.00000  Uiso   1.00
H2780  H     0.73312   0.74068   0.22644   0.00000  Uiso   1.00
H2781  H     0.89892   0.56791   0.48112   0.00000  Uiso   1.00
H2782  H     0.74610   0.76121   0.27246   0.00000  Uiso   1.00
H2783  H     0.70691   0.77756   0.24714   0.00000  Uiso   1.00
H2784  H     0.88950   0.82155   0.66698   0.00000  Uiso   1.00
H2785  H     0.84036   0.82542   0.66381   0.00000  Uiso   1.00
H2786  H     0.88285   0.75361   0.67224   0.00000  Uiso   1.00
H2787  H     0.83435   0.75809   0.66686   0.00000  Uiso   1.00
H2788  H     0.84348   0.78702   0.60108   0.00000  Uiso   1.00
H2789  H     0.86348   0.74235   0.60369   0.00000  Uiso   1.00
H2790  H     0.89229   0.78209   0.60653   0.00000  Uiso   1.00
H2791  H     0.74169   0.84511   0.22053   0.00000  Uiso   1.00
H2792  H     0.88426   0.52643   0.50454   0.00000  Uiso   1.00
H2793  H     0.71811   0.88575   0.20977   0.00000  Uiso   1.00
H2794  H     0.68975   0.80755   0.19349   0.00000  Uiso   1.00
H2795  H     0.66598   0.84857   0.18116   0.00000  Uiso   1.00
H2796  H     0.71442   0.86750   0.13624   0.00000  Uiso   1.00
H2797  H     0.69969   0.82178   0.12488   0.00000  Uiso   1.00
H2798  H     0.74211   0.82903   0.15014   0.00000  Uiso   1.00
H2799  H     0.79034   0.62901   0.67604   0.00000  Uiso   1.00
H2800  H     0.82943   0.65851   0.67803   0.00000  Uiso   1.00
H2801  H     0.75017   0.67959   0.69567   0.00000  Uiso   1.00
H2802  H     0.78915   0.70898   0.70251   0.00000  Uiso   1.00
H2803  H     0.91908   0.99005   0.45527   0.00000  Uiso   1.00
H2804  H     0.80406   0.70312   0.63109   0.00000  Uiso   1.00
H2805  H     0.75899   0.72091   0.63895   0.00000  Uiso   1.00
H2806  H     0.76465   0.67400   0.62472   0.00000  Uiso   1.00
H2807  H     0.94795   0.52134   0.48161   0.00000  Uiso   1.00
H2808  H     0.93431   0.53182   0.43223   0.00000  Uiso   1.00
H2809  H     0.69284   0.90213   0.54367   0.00000  Uiso   1.00
H2810  H     0.65479   0.90455   0.51003   0.00000  Uiso   1.00
H2811  H     0.79781   0.53452   0.59853   0.00000  Uiso   1.00
H2812  H     0.65267   0.90188   0.59999   0.00000  Uiso   1.00
H2813  H     0.61384   0.91268   0.57057   0.00000  Uiso   1.00
H2814  H     0.61793   0.85322   0.53659   0.00000  Uiso   1.00
H2815  H     0.61501   0.84692   0.58879   0.00000  Uiso   1.00
H2816  H     0.65809   0.84166   0.56408   0.00000  Uiso   1.00
H2817  H     0.59009   0.81369   0.42708   0.00000  Uiso   1.00
H2818  H     0.60010   0.82043   0.47840   0.00000  Uiso   1.00
H2819  H     0.58501   0.88327   0.42120   0.00000  Uiso   1.00
H2820  H     0.60130   0.88597   0.47077   0.00000  Uiso   1.00
H2821  H     0.65788   0.85073   0.44899   0.00000  Uiso   1.00
H2822  H     0.96570   0.70193   0.40152   0.00000  Uiso   1.00
H2823  H     0.65265   0.89459   0.42600   0.00000  Uiso   1.00
H2824  H     0.64095   0.85452   0.39921   0.00000  Uiso   1.00
H2825  H     0.98650   0.64225   0.55676   0.00000  Uiso   1.00
H2826  H     0.96199   0.62467   0.51460   0.00000  Uiso   1.00
H2827  H     0.93630   0.62313   0.60043   0.00000  Uiso   1.00
H2828  H     0.91009   0.60735   0.55924   0.00000  Uiso   1.00
H2829  H     0.95730   0.56124   0.54380   0.00000  Uiso   1.00
H2830  H     0.94157   0.55642   0.59353   0.00000  Uiso   1.00
H2831  H     0.98511   0.57746   0.58387   0.00000  Uiso   1.00
H2832  H     0.64368   0.50251   0.43343   0.00000  Uiso   1.00
H2833  H     0.53255   0.79806   0.59776   0.00000  Uiso   1.00
H2834  H     0.63411   0.50041   0.48546   0.00000  Uiso   1.00
H2835  H     0.59946   0.95086   0.42333   0.00000  Uiso   1.00
H2836  H     0.59012   0.95057   0.47509   0.00000  Uiso   1.00
H2837  H     0.56756   0.51439   0.47136   0.00000  Uiso   1.00
H2838  H     0.54296   0.98494   0.43843   0.00000  Uiso   1.00
H2839  H     0.57726   0.51544   0.41943   0.00000  Uiso   1.00
H2840  H     0.83133   0.60019   0.58129   0.00000  Uiso   1.00
H2841  H     0.78802   0.59497   0.55842   0.00000  Uiso   1.00
H2842  H     0.85774   0.62205   0.51620   0.00000  Uiso   1.00
H2843  H     0.81226   0.62093   0.49655   0.00000  Uiso   1.00
H2844  H     0.79705   0.53487   0.40124   0.00000  Uiso   1.00
H2845  H     0.79203   0.66487   0.54836   0.00000  Uiso   1.00
H2846  H     0.82841   0.68307   0.51869   0.00000  Uiso   1.00
H2847  H     0.83809   0.66648   0.56718   0.00000  Uiso   1.00
H2848  H     0.65260   0.94051   0.95874   0.00000  Uiso   1.00
H2849  H     0.65693   0.90154   0.99103   0.00000  Uiso   1.00
H2850  H     0.65176   0.90255   0.90122   0.00000  Uiso   1.00
H2851  H     0.66503   0.86296   0.92843   0.00000  Uiso   1.00
H2852  H     0.60692   0.86277   0.96454   0.00000  Uiso   1.00
H2853  H     0.59831   0.86311   0.91263   0.00000  Uiso   1.00
H2854  H     0.59287   0.90418   0.94096   0.00000  Uiso   1.00
H2855  H     0.70278   0.96712   0.59843   0.00000  Uiso   1.00
H2856  H     0.76085   0.60760   0.05510   0.00000  Uiso   1.00
H2857  H     0.78609   0.62577   0.01367   0.00000  Uiso   1.00
H2858  H     0.80904   0.62797   0.10033   0.00000  Uiso   1.00
H2859  H     0.83636   0.64410   0.06009   0.00000  Uiso   1.00
H2860  H     0.78902   0.68934   0.04249   0.00000  Uiso   1.00
H2861  H     0.80265   0.69449   0.09289   0.00000  Uiso   1.00
H2862  H     0.75993   0.67261   0.08140   0.00000  Uiso   1.00
H2863  H     0.60838   0.74689   0.93415   0.00000  Uiso   1.00
H2864  H     0.62012   0.75213   0.98537   0.00000  Uiso   1.00
H2865  H     0.64874   0.79948   0.91783   0.00000  Uiso   1.00
H2866  H     0.78387   0.54818   0.90140   0.00000  Uiso   1.00
H2867  H     0.65952   0.80520   0.96888   0.00000  Uiso   1.00
H2868  H     0.68689   0.74305   0.97065   0.00000  Uiso   1.00
H2869  H     0.70827   0.77138   0.93412   0.00000  Uiso   1.00
H2870  H     0.67597   0.73694   0.91940   0.00000  Uiso   1.00
H2871  H     0.91141   0.65494   0.08046   0.00000  Uiso   1.00
H2872  H     0.95596   0.65945   0.06031   0.00000  Uiso   1.00
H2873  H     0.88752   0.63435   0.01455   0.00000  Uiso   1.00
H2874  H     0.93335   0.63628   0.99584   0.00000  Uiso   1.00
H2875  H     0.95298   0.59098   0.04647   0.00000  Uiso   1.00
H2876  H     0.91727   0.57338   0.01578   0.00000  Uiso   1.00
O2877  O     0.75000   0.50000   0.25000   0.00000  Uiso   1.00
O2878  O     0.75000   0.96964   0.66245   0.00000  Uiso   1.00
O2879  O     0.80392   0.64440   0.73224   0.00000  Uiso   1.00
O2880  O     0.96963   0.75000   0.33755   0.00000  Uiso   1.00
O2881  O     0.53036   0.75000   0.66245   0.00000  Uiso   1.00
O2882  O     0.50000   0.71963   0.83755   0.00000  Uiso   1.00
O2883  O     0.50000   0.78036   0.16245   0.00000  Uiso   1.00
O2884  O     0.78036   0.50000   0.83755   0.00000  Uiso   1.00
O2885  O     0.71963   0.50000   0.16245   0.00000  Uiso   1.00
O2886  O     0.50000   0.78036   0.83755   0.00000  Uiso   1.00
O2887  O     0.50000   0.71963   0.16245   0.00000  Uiso   1.00
O2888  O     0.71963   0.50000   0.83755   0.00000  Uiso   1.00
O2889  O     0.75000   0.50000   0.75000   0.00000  Uiso   1.00
O2890  O     0.78036   0.50000   0.16245   0.00000  Uiso   1.00
O2891  O     0.70724   0.57307   0.27302   0.00000  Uiso   1.00
O2892  O     0.79275   0.92692   0.72698   0.00000  Uiso   1.00
O2893  O     0.92692   0.70724   0.27302   0.00000  Uiso   1.00
O2894  O     0.57307   0.79276   0.72698   0.00000  Uiso   1.00
O2895  O     0.79275   0.92692   0.27302   0.00000  Uiso   1.00
O2896  O     0.70724   0.57307   0.72698   0.00000  Uiso   1.00
O2897  O     0.57307   0.79276   0.27302   0.00000  Uiso   1.00
O2898  O     0.92692   0.70724   0.72698   0.00000  Uiso   1.00
O2899  O     0.70724   0.92693   0.72698   0.00000  Uiso   1.00
O2900  O     0.50000   0.75000   0.25000   0.00000  Uiso   1.00
O2901  O     0.79275   0.57307   0.27302   0.00000  Uiso   1.00
O2902  O     0.92692   0.79275   0.72698   0.00000  Uiso   1.00
O2903  O     0.57307   0.70725   0.27302   0.00000  Uiso   1.00
O2904  O     0.79275   0.57307   0.72698   0.00000  Uiso   1.00
O2905  O     0.70724   0.92693   0.27302   0.00000  Uiso   1.00
O2906  O     0.57307   0.70725   0.72698   0.00000  Uiso   1.00
O2907  O     0.92692   0.79275   0.27302   0.00000  Uiso   1.00
O2908  O     0.95724   0.82307   0.77302   0.00000  Uiso   1.00
O2909  O     0.54275   0.67693   0.22698   0.00000  Uiso   1.00
O2910  O     0.67692   0.95725   0.77302   0.00000  Uiso   1.00
O2911  O     0.50000   0.75000   0.75000   0.00000  Uiso   1.00
O2912  O     0.82307   0.54275   0.22698   0.00000  Uiso   1.00
O2913  O     0.54275   0.67693   0.77302   0.00000  Uiso   1.00
O2914  O     0.95724   0.82307   0.22698   0.00000  Uiso   1.00
O2915  O     0.82307   0.54275   0.77302   0.00000  Uiso   1.00
O2916  O     0.67692   0.95725   0.22698   0.00000  Uiso   1.00
O2917  O     0.95724   0.67692   0.22698   0.00000  Uiso   1.00
O2918  O     0.54275   0.82308   0.77302   0.00000  Uiso   1.00
O2919  O     0.67692   0.54275   0.22698   0.00000  Uiso   1.00
O2920  O     0.82307   0.95724   0.77302   0.00000  Uiso   1.00
O2921  O     0.54275   0.82308   0.22698   0.00000  Uiso   1.00
O2922  O     0.75000   0.96964   0.33755   0.00000  Uiso   1.00
O2923  O     0.95724   0.67692   0.77302   0.00000  Uiso   1.00
O2924  O     0.82307   0.95724   0.22698   0.00000  Uiso   1.00
O2925  O     0.67692   0.54275   0.77302   0.00000  Uiso   1.00
O2926  O     0.94078   0.66884   0.45973   0.00000  Uiso   1.00
O2927  O     0.54716   0.83695   0.53939   0.00000  Uiso   1.00
O2928  O     0.83128   0.55931   0.45959   0.00000  Uiso   1.00
O2929  O     0.66441   0.95157   0.54175   0.00000  Uiso   1.00
O2930  O     0.54800   0.83612   0.45910   0.00000  Uiso   1.00
O2931  O     0.93932   0.67023   0.54099   0.00000  Uiso   1.00
O2932  O     0.66147   0.95558   0.46072   0.00000  Uiso   1.00
O2933  O     0.75000   0.53036   0.66245   0.00000  Uiso   1.00
O2934  O     0.83089   0.56018   0.53987   0.00000  Uiso   1.00
O2935  O     0.70297   0.91355   0.95846   0.00000  Uiso   1.00
O2936  O     0.80915   0.58077   0.04076   0.00000  Uiso   1.00
O2937  O     0.58893   0.79391   0.95997   0.00000  Uiso   1.00
O2938  O     0.91528   0.69595   0.04023   0.00000  Uiso   1.00
O2939  O     0.80855   0.58149   0.95949   0.00000  Uiso   1.00
O2940  O     0.70817   0.91017   0.03947   0.00000  Uiso   1.00
O2941  O     0.91311   0.70026   0.95995   0.00000  Uiso   1.00
O2942  O     0.58922   0.79305   0.04039   0.00000  Uiso   1.00
O2943  O     0.60411   0.94728   0.23956   0.00000  Uiso   1.00
O2944  O     0.53036   0.75000   0.33755   0.00000  Uiso   1.00
O2945  O     0.89438   0.55339   0.76642   0.00000  Uiso   1.00
O2946  O     0.55274   0.60504   0.23656   0.00000  Uiso   1.00
O2947  O     0.94523   0.89328   0.77307   0.00000  Uiso   1.00
O2948  O     0.89475   0.55187   0.24441   0.00000  Uiso   1.00
O2949  O     0.60688   0.94441   0.77628   0.00000  Uiso   1.00
O2950  O     0.94415   0.89134   0.21935   0.00000  Uiso   1.00
O2951  O     0.55677   0.61006   0.78239   0.00000  Uiso   1.00
O2952  O     0.60862   0.55572   0.77947   0.00000  Uiso   1.00
O2953  O     0.88863   0.94164   0.21307   0.00000  Uiso   1.00
O2954  O     0.55288   0.89574   0.76277   0.00000  Uiso   1.00
O2955  O     0.96963   0.75000   0.66245   0.00000  Uiso   1.00
O2956  O     0.94628   0.60615   0.23079   0.00000  Uiso   1.00
O2957  O     0.89492   0.94743   0.76175   0.00000  Uiso   1.00
O2958  O     0.60699   0.55502   0.22559   0.00000  Uiso   1.00
O2959  O     0.94806   0.60568   0.75440   0.00000  Uiso   1.00
O2960  O     0.55512   0.89352   0.22605   0.00000  Uiso   1.00
O2961  O     0.85436   0.69770   0.74992   0.00000  Uiso   1.00
O2962  O     0.64392   0.80479   0.27177   0.00000  Uiso   1.00
O2963  O     0.80487   0.85776   0.72285   0.00000  Uiso   1.00
O2964  O     0.69330   0.64001   0.28201   0.00000  Uiso   1.00
O2965  O     0.64575   0.80359   0.73655   0.00000  Uiso   1.00
O2966  O     0.75000   0.53036   0.33755   0.00000  Uiso   1.00
O2967  O     0.85572   0.69635   0.26639   0.00000  Uiso   1.00
O2968  O     0.69753   0.64481   0.73650   0.00000  Uiso   1.00
O2969  O     0.80588   0.85775   0.27734   0.00000  Uiso   1.00
O2970  O     0.85542   0.80334   0.26535   0.00000  Uiso   1.00
O2971  O     0.64345   0.69585   0.72783   0.00000  Uiso   1.00
O2972  O     0.80216   0.64422   0.25374   0.00000  Uiso   1.00
O2973  O     0.69259   0.85885   0.71917   0.00000  Uiso   1.00
O2974  O     0.64183   0.69473   0.27751   0.00000  Uiso   1.00
O2975  O     0.86022   0.80687   0.71718   0.00000  Uiso   1.00
O2976  O     0.69767   0.85376   0.25590   0.00000  Uiso   1.00
Zn2977 Zn    0.70659   0.50000   0.21735   0.00000  Uiso   1.00
Zn2978 Zn    0.54340   0.75000   0.28265   0.00000  Uiso   1.00
Zn2979 Zn    0.75000   0.95660   0.71735   0.00000  Uiso   1.00
Zn2980 Zn    0.75000   0.54340   0.28265   0.00000  Uiso   1.00
Zn2981 Zn    0.54340   0.75000   0.71735   0.00000  Uiso   1.00
Zn2982 Zn    0.95659   0.75000   0.28265   0.00000  Uiso   1.00
Zn2983 Zn    0.75000   0.54340   0.71735   0.00000  Uiso   1.00
Zn2984 Zn    0.75000   0.95660   0.28265   0.00000  Uiso   1.00
Zn2985 Zn    0.79340   0.50000   0.78265   0.00000  Uiso   1.00
Zn2986 Zn    0.50000   0.70659   0.21735   0.00000  Uiso   1.00
Zn2987 Zn    0.50000   0.79341   0.78265   0.00000  Uiso   1.00
Zn2988 Zn    0.79340   0.50000   0.21735   0.00000  Uiso   1.00
Zn2989 Zn    0.70659   0.50000   0.78265   0.00000  Uiso   1.00
Zn2990 Zn    0.50000   0.79341   0.21735   0.00000  Uiso   1.00
Zn2991 Zn    0.50000   0.70659   0.78265   0.00000  Uiso   1.00
Zn2992 Zn    0.95659   0.75000   0.71735   0.00000  Uiso   1.00
loop_
_geom_bond_atom_site_label_1
_geom_bond_atom_site_label_2
_geom_bond_distance
_geom_bond_site_symmetry_2
_ccdc_geom_bond_type
C1     H281    1.084   .     S
C1     C4      1.395   .     A
C1     C827    1.390   1_455 S
C2     C14     1.397   .     A
C2     C135    1.394   .     A
C2     H282    1.085   .     S
C3     C259    1.395   .     A
C3     C201    1.405   .     A
C3     C1534   1.416   .     S
C4     C203    1.406   .     A
C4     C782    1.417   1_455 S
C5     C36     1.416   .     A
C5     C112    1.399   .     A
C5     C205    1.410   .     A
C6     C204    1.397   .     A
C6     C206    1.408   .     A
C6     C1533   1.416   .     S
C7     C207    1.413   .     A
C7     C215    1.399   .     A
C7     C38     1.416   .     A
C8     C35     1.396   .     A
C8     C208    1.405   .     A
C8     C39     1.416   .     A
C9     C46     1.398   .     A
C9     C209    1.410   .     A
C9     C1536   1.415   1_545 S
C10    C41     1.416   .     A
C10    C210    1.409   .     A
C10    C57     1.398   .     A
C11    C68     1.398   .     A
C11    C211    1.412   .     A
C11    C790    1.416   .     S
C12    C212    1.411   .     A
C12    C270    1.399   .     A
C12    C1535   1.415   1_545 S
C13    H293    1.084   .     S
C13    C146    1.396   .     A
C13    C15     1.399   .     A
C14    C213    1.408   .     A
C14    C40     1.416   .     A
C15    C214    1.410   .     A
C15    C789    1.416   .     S
C16    C216    1.407   .     A
C16    C42     1.417   .     A
C16    C24     1.396   .     A
C17    C260    1.413   .     A
C17    C262    1.413   .     A
C17    C232    1.464   .     S
C18    C261    1.401   .     A
C18    C258    1.401   .     A
C18    C233    1.451   .     S
C19    C257    1.409   .     A
C19    C264    1.410   .     A
C19    C225    1.465   .     S
C20    C227    1.462   .     S
C20    C256    1.409   .     A
C20    C263    1.413   .     A
C21    C266    1.411   .     A
C21    C255    1.413   .     A
C21    C228    1.462   .     S
C22    C265    1.407   .     A
C22    C229    1.450   .     S
C22    C254    1.410   .     A
C23    C253    1.411   .     A
C23    C268    1.408   .     A
C23    C230    1.465   .     S
C24    H304    1.083   .     S
C24    C905    1.390   1_455 S
C25    C267    1.410   .     A
C25    C231    1.462   .     S
C25    C252    1.410   .     A
C26    C241    1.466   .     S
C26    C251    1.411   .     A
C26    C271    1.411   .     A
C27    C242    1.462   .     S
C27    C269    1.407   .     A
C27    C250    1.412   .     A
C28    C273    1.409   .     A
C28    C234    1.462   .     S
C28    C249    1.412   .     A
C29    C235    1.451   .     S
C29    C247    1.401   .     A
C29    C272    1.400   .     A
C30    C246    1.409   .     A
C30    C275    1.411   .     A
C30    C236    1.466   .     S
C31    C238    1.462   .     S
C31    C274    1.410   .     A
C31    C245    1.408   .     A
C32    C277    1.411   .     A
C32    C244    1.411   .     A
C32    C239    1.461   .     S
C33    C276    1.409   .     A
C33    C243    1.409   .     A
C33    C240    1.449   .     S
C34    C36     1.403   .     A
C34    C278    1.416   .     A
C34    C752    1.417   .     S
C35    H315    1.085   .     S
C35    C1620   1.391   .     S
C36    C1027   1.416   .     S
C37    C38     1.402   .     A
C37    C280    1.416   .     A
C37    C1502   1.416   1_545 S
C38    C1499   1.416   1_545 S
C39    C1508   1.415   .     S
C39    C40     1.402   1_556 S
C40    C1505   1.415   .     S
C40    C39     1.402   1_554 S
C41    C763    1.416   1_455 S
C41    C42     1.403   1_556 S
C42    C759    1.416   1_455 S
C42    C41     1.403   1_554 S
C43    H359    1.116   .     S
C43    C44     1.529   .     S
C43    O682    1.412   .     S
C43    H370    1.114   .     S
C44    C45     1.525   .     S
C44    H381    1.112   .     S
C44    H393    1.111   .     S
C45    H404    1.110   .     S
C45    H426    1.110   .     S
C45    H415    1.111   .     S
C46    H326    1.084   .     S
C46    C1631   1.396   1_545 S
C47    O683    1.414   .     S
C47    H448    1.117   .     S
C47    C48     1.525   .     S
C47    H1185   1.114   1_455 S
C48    H470    1.112   .     S
C48    H459    1.110   .     S
C48    C49     1.526   .     S
C49    H492    1.110   .     S
C49    H1229   1.111   1_455 S
C49    H1252   1.111   1_455 S
C50    H515    1.111   .     S
C50    O684    1.417   .     S
C50    H526    1.117   .     S
C50    C51     1.532   .     S
C51    C52     1.526   .     S
C51    H548    1.110   .     S
C51    H537    1.112   .     S
C52    H563    1.110   .     S
C52    H564    1.111   .     S
C52    H2055   1.111   1_545 S
C53    H566    1.111   .     S
C53    O685    1.412   .     S
C53    C54     1.528   .     S
C53    H565    1.116   .     S
C54    C55     1.526   .     S
C54    H568    1.111   .     S
C54    H569    1.109   .     S
C55    H572    1.109   .     S
C55    H570    1.108   .     S
C55    H571    1.111   .     S
C56    H573    1.112   .     S
C56    O686    1.412   .     S
C56    H574    1.116   .     S
C56    C58     1.528   .     S
C57    H337    1.085   .     S
C57    C894    1.394   1_455 S
C58    H575    1.112   .     S
C58    H576    1.110   .     S
C58    C59     1.524   .     S
C59    H579    1.108   .     S
C59    H577    1.111   .     S
C59    H580    1.107   .     S
C60    H582    1.113   .     S
C60    O687    1.412   .     S
C60    C61     1.529   .     S
C60    H581    1.116   .     S
C61    H584    1.111   .     S
C61    C62     1.526   .     S
C61    H583    1.112   .     S
C62    H585    1.111   .     S
C62    H586    1.111   .     S
C62    H587    1.110   .     S
C63    O688    1.414   .     S
C63    C64     1.527   .     S
C63    H2084   1.113   .     S
C63    H2086   1.117   .     S
C64    H592    1.111   .     S
C64    C65     1.526   .     S
C64    H591    1.110   .     S
C65    H594    1.110   .     S
C65    H2089   1.111   .     S
C65    H2091   1.111   .     S
C66    C67     1.531   .     S
C66    O690    1.417   .     S
C66    H596    1.111   .     S
C66    H597    1.117   .     S
C67    H599    1.111   .     S
C67    C69     1.527   .     S
C67    H598    1.111   .     S
C68    H348    1.084   .     S
C68    C157    1.394   .     A
C69    H602    1.110   .     S
C69    H601    1.111   .     S
C69    H603    1.111   .     S
C70    O691    1.412   .     S
C70    H605    1.111   .     S
C70    H604    1.117   .     S
C70    C71     1.528   .     S
C71    C72     1.525   .     S
C71    H606    1.112   .     S
C71    H607    1.110   .     S
C72    H610    1.109   .     S
C72    H608    1.108   .     S
C72    H609    1.111   .     S
C73    H612    1.116   .     S
C73    O692    1.412   .     S
C73    C74     1.529   .     S
C73    H613    1.113   .     S
C74    H615    1.111   .     S
C74    H614    1.112   .     S
C74    C75     1.526   .     S
C75    H616    1.111   .     S
C75    H618    1.111   .     S
C75    H617    1.111   .     S
C76    C77     1.526   .     S
C76    H619    1.113   .     S
C76    H620    1.116   .     S
C76    O693    1.413   .     S
C77    H621    1.110   .     S
C77    H623    1.112   .     S
C77    C78     1.526   .     S
C78    H625    1.110   .     S
C78    H626    1.111   .     S
C78    H624    1.111   .     S
C79    C219    1.444   .     S
C79    C226    1.395   .     A
C79    C749    1.390   .     S
C80    O694    1.417   .     S
C80    H627    1.111   .     S
C80    H628    1.117   .     S
C80    C81     1.532   .     S
C81    H629    1.111   .     S
C81    C82     1.527   .     S
C81    H630    1.111   1_554 S
C82    H631    1.111   .     S
C82    H632    1.109   .     S
C82    H283    1.111   .     S
C83    H284    1.116   .     S
C83    C84     1.529   .     S
C83    O695    1.412   .     S
C83    H285    1.113   .     S
C84    C85     1.525   .     S
C84    H287    1.110   .     S
C84    H286    1.112   .     S
C85    H290    1.110   .     S
C85    H288    1.110   .     S
C85    H289    1.111   .     S
C86    O696    1.417   .     S
C86    H292    1.119   .     S
C86    H291    1.112   .     S
C86    C87     1.527   .     S
C87    C88     1.526   .     S
C87    H294    1.107   .     S
C87    H295    1.112   .     S
C88    H298    1.111   .     S
C88    H296    1.111   .     S
C88    H297    1.111   .     S
C89    H299    1.114   .     S
C89    O697    1.414   .     S
C89    C91     1.528   .     S
C89    H300    1.116   .     S
C90    C220    1.447   .     S
C90    C112    1.396   .     A
C90    C985    1.394   .     S
C91    H302    1.111   .     S
C91    C92     1.527   .     S
C91    H301    1.112   .     S
C92    H305    1.111   .     S
C92    H306    1.111   .     S
C92    H303    1.111   .     S
C93    O698    1.412   .     S
C93    H307    1.112   .     S
C93    C94     1.528   .     S
C93    H308    1.115   .     S
C94    H309    1.112   .     S
C94    C95     1.524   .     S
C94    H310    1.111   .     S
C95    H311    1.111   .     S
C95    H313    1.108   .     S
C95    H312    1.108   .     S
C96    O699    1.421   .     S
C96    H314    1.110   .     S
C96    H316    1.110   .     S
C96    C97     1.543   .     S
C97    H317    1.108   .     S
C97    C98     1.524   .     S
C97    H318    1.112   .     S
C98    H321    1.110   .     S
C98    H320    1.110   .     S
C98    H319    1.111   .     S
C99    O701    1.420   .     S
C99    H322    1.111   .     S
C99    C100    1.528   .     S
C99    H323    1.118   .     S
C100   H325    1.111   .     S
C100   C102    1.526   .     S
C100   H1820   1.108   1_545 S
C101   C248    1.396   .     A
C101   C217    1.447   .     S
C101   C1700   1.394   1_545 S
C102   H327    1.110   .     S
C102   H329    1.111   .     S
C102   H328    1.111   .     S
C103   H331    1.119   .     S
C103   H330    1.111   .     S
C103   O702    1.421   .     S
C103   C104    1.529   .     S
C104   C105    1.526   .     S
C104   H332    1.109   .     S
C104   H333    1.111   .     S
C105   H334    1.111   .     S
C105   H1083   1.110   1_455 S
C105   H1084   1.111   1_455 S
C106   C107    1.525   .     S
C106   O703    1.413   .     S
C106   H339    1.113   .     S
C106   H338    1.117   .     S
C107   C108    1.526   .     S
C107   H340    1.112   .     S
C107   H341    1.109   .     S
C108   H344    1.111   .     S
C108   H342    1.111   .     S
C108   H1091   1.109   .     S
C109   H345    1.118   .     S
C109   O704    1.415   .     S
C109   H346    1.111   .     S
C109   C1606   1.524   1_545 S
C110   C111    1.526   .     S
C110   H349    1.106   .     S
C110   H347    1.111   .     S
C110   C1605   1.524   .     S
C111   H352    1.111   .     S
C111   H350    1.110   .     S
C111   H351    1.110   .     S
C112   H392    1.084   .     S
C113   C218    1.445   .     S
C113   C215    1.395   .     A
C113   C1755   1.390   1_545 S
C114   C115    1.531   .     S
C114   H353    1.112   .     S
C114   H354    1.117   .     S
C114   O705    1.418   .     S
C115   H356    1.111   .     S
C115   C116    1.528   .     S
C115   H355    1.107   .     S
C116   H357    1.109   .     S
C116   H358    1.109   .     S
C116   H360    1.111   .     S
C117   O706    1.419   .     S
C117   C118    1.534   .     S
C117   H362    1.116   .     S
C117   H361    1.111   .     S
C118   H364    1.104   .     S
C118   C119    1.524   .     S
C118   H363    1.107   .     S
C119   H365    1.110   .     S
C119   H1114   1.110   .     S
C119   H1115   1.105   .     S
C120   O707    1.415   .     S
C120   H369    1.113   .     S
C120   C121    1.531   .     S
C120   H368    1.117   .     S
C121   H371    1.111   .     S
C121   C122    1.525   .     S
C121   H372    1.110   .     S
C122   H375    1.111   .     S
C122   H373    1.111   .     S
C122   H1122   1.111   1_455 S
C123   H377    1.116   .     S
C123   O708    1.417   .     S
C123   C125    1.533   .     S
C123   H376    1.111   .     S
C124   C270    1.395   .     A
C124   C223    1.445   .     S
C124   C1531   1.391   1_545 S
C125   H378    1.107   .     S
C125   H379    1.105   .     S
C125   C1622   1.523   1_545 S
C126   H383    1.102   .     S
C126   H382    1.109   .     S
C126   C1621   1.523   .     S
C126   H1876   1.111   .     S
C127   H384    1.117   .     S
C127   O709    1.414   .     S
C127   H385    1.113   .     S
C127   C128    1.531   .     S
C128   H386    1.111   .     S
C128   C129    1.526   .     S
C128   H387    1.111   .     S
C129   H388    1.111   .     S
C129   H390    1.111   .     S
C129   H1885   1.111   .     S
C130   C131    1.547   .     S
C130   O710    1.424   .     S
C130   H394    1.110   .     S
C130   H391    1.111   .     S
C131   H396    1.112   .     S
C131   H395    1.108   .     S
C131   C132    1.523   .     S
C132   H398    1.110   .     S
C132   H397    1.111   .     S
C132   H399    1.109   .     S
C133   H401    1.113   .     S
C133   O712    1.416   .     S
C133   C134    1.527   .     S
C133   H400    1.117   .     S
C134   H403    1.110   .     S
C134   C136    1.526   .     S
C134   H1150   1.111   .     S
C135   C224    1.447   .     S
C135   C1542   1.396   .     S
C136   H405    1.111   .     S
C136   H407    1.111   .     S
C136   H1154   1.110   .     S
C137   H408    1.109   .     S
C137   O713    1.421   .     S
C137   H409    1.117   .     S
C137   C138    1.530   .     S
C138   H410    1.108   .     S
C138   C139    1.527   .     S
C138   H411    1.111   .     S
C139   H412    1.111   .     S
C139   H413    1.110   .     S
C139   H1910   1.110   .     S
C140   C141    1.525   .     S
C140   H417    1.114   .     S
C140   H416    1.117   .     S
C140   O714    1.413   .     S
C141   H418    1.111   .     S
C141   H419    1.109   .     S
C141   C142    1.526   .     S
C142   H422    1.111   .     S
C142   H420    1.111   .     S
C142   H1917   1.109   1_545 S
C143   O715    1.414   .     S
C143   H423    1.118   .     S
C143   C144    1.523   .     S
C143   H424    1.113   .     S
C144   C893    1.525   .     S
C144   H1173   1.111   .     S
C144   H1175   1.107   .     S
C145   H429    1.110   .     S
C145   H430    1.111   .     S
C145   H428    1.111   .     S
C145   C892    1.525   1_455 S
C146   C221    1.448   .     S
C146   C805    1.394   .     S
C147   O716    1.420   .     S
C147   C148    1.532   .     S
C147   H432    1.117   .     S
C147   H431    1.111   .     S
C148   H433    1.106   .     S
C148   H434    1.111   .     S
C148   C149    1.529   .     S
C149   H435    1.109   .     S
C149   H438    1.110   .     S
C149   H436    1.109   .     S
C150   O717    1.417   .     S
C150   H439    1.113   .     S
C150   C151    1.524   .     S
C150   H440    1.117   .     S
C151   C152    1.525   .     S
C151   H441    1.110   .     S
C151   H442    1.110   .     S
C152   H444    1.110   .     S
C152   H445    1.111   .     S
C152   H443    1.110   .     S
C153   H447    1.117   .     S
C153   O718    1.419   .     S
C153   H446    1.111   .     S
C153   C154    1.534   .     S
C154   C155    1.530   .     S
C154   H449    1.107   .     S
C154   H450    1.111   .     S
C155   H451    1.109   .     S
C155   H452    1.109   .     S
C155   H453    1.110   .     S
C156   H454    1.111   .     S
C156   C158    1.541   .     S
C156   O719    1.419   .     S
C156   H455    1.117   .     S
C157   C222    1.443   .     S
C157   C772    1.390   .     S
C158   C159    1.523   .     S
C158   H456    1.107   .     S
C158   H457    1.104   .     S
C159   H460    1.108   .     S
C159   H458    1.110   .     S
C159   H461    1.106   .     S
C160   H463    1.113   .     S
C160   O720    1.414   .     S
C160   H462    1.117   .     S
C160   C161    1.530   .     S
C161   H465    1.110   .     S
C161   H464    1.111   .     S
C161   C162    1.525   .     S
C162   H468    1.111   .     S
C162   H466    1.111   .     S
C162   H467    1.111   .     S
C163   H469    1.110   .     S
C163   C164    1.544   .     S
C163   O721    1.422   .     S
C163   H471    1.110   .     S
C164   C165    1.524   .     S
C164   H473    1.112   .     S
C164   H472    1.109   .     S
C165   H474    1.111   .     S
C165   H476    1.109   .     S
C165   H475    1.110   .     S
C166   C167    1.530   .     S
C166   H477    1.111   .     S
C166   O723    1.420   .     S
C166   H478    1.118   .     S
C167   C169    1.526   .     S
C167   H480    1.110   .     S
C167   H479    1.108   .     S
C168   C278    1.411   .     A
C168   O682    1.384   .     S
C168   C205    1.407   .     A
C169   H484    1.111   .     S
C169   H483    1.111   .     S
C169   H482    1.110   .     S
C170   H486    1.118   .     S
C170   C171    1.529   .     S
C170   H485    1.110   .     S
C170   O724    1.420   .     S
C171   H488    1.111   .     S
C171   C172    1.526   .     S
C171   H487    1.108   .     S
C172   H491    1.111   .     S
C172   H490    1.110   .     S
C172   H489    1.111   .     S
C173   H494    1.114   .     S
C173   O725    1.413   .     S
C173   H493    1.117   .     S
C173   C174    1.526   .     S
C174   H496    1.110   .     S
C174   H495    1.112   .     S
C174   C175    1.526   .     S
C175   H499    1.111   .     S
C175   H497    1.111   .     S
C175   H498    1.110   .     S
C176   O726    1.420   .     S
C176   H500    1.106   .     S
C176   H501    1.116   .     S
C176   C177    1.535   .     S
C177   H505    1.111   .     S
C177   C178    1.526   .     S
C177   H502    1.108   .     S
C178   H507    1.109   .     S
C178   H508    1.109   .     S
C178   H506    1.111   .     S
C179   C203    1.402   .     A
C179   O683    1.382   .     S
C179   C279    1.408   .     A
C180   C181    1.528   .     S
C180   O727    1.414   .     S
C180   H509    1.116   .     S
C180   H510    1.113   .     S
C181   H511    1.111   .     S
C181   H512    1.111   .     S
C181   C182    1.525   .     S
C182   H516    1.111   .     S
C182   H514    1.111   .     S
C182   H513    1.111   .     S
C183   H518    1.112   .     S
C183   O728    1.415   .     S
C183   H517    1.117   .     S
C183   C184    1.524   .     S
C184   C185    1.525   .     S
C184   H520    1.106   .     S
C184   H519    1.111   .     S
C185   H523    1.111   .     S
C185   H521    1.111   .     S
C185   H522    1.110   .     S
C186   H525    1.114   .     S
C186   H524    1.116   .     S
C186   O729    1.416   .     S
C186   C187    1.528   .     S
C187   H527    1.111   .     S
C187   C188    1.523   .     S
C187   H528    1.107   .     S
C188   H530    1.110   .     S
C188   H529    1.107   .     S
C188   H531    1.110   .     S
C189   C191    1.531   .     S
C189   H533    1.117   .     S
C189   H532    1.111   .     S
C189   O730    1.417   .     S
C190   C280    1.414   .     A
C190   C207    1.403   .     A
C190   O684    1.386   .     S
C191   H534    1.105   .     S
C191   H535    1.104   .     S
C191   C192    1.521   .     S
C192   H539    1.104   .     S
C192   H538    1.108   .     S
C192   H536    1.110   .     S
C193   H540    1.116   .     S
C193   O731    1.414   .     S
C193   C194    1.530   .     S
C193   H541    1.113   .     S
C194   H542    1.112   .     S
C194   C195    1.526   .     S
C194   H543    1.111   .     S
C195   H545    1.111   .     S
C195   H544    1.111   .     S
C195   H546    1.111   .     S
C196   H547    1.111   .     S
C196   O732    1.424   .     S
C196   H549    1.109   .     S
C196   C197    1.544   .     S
C197   C198    1.525   .     S
C197   H551    1.111   .     S
C197   H550    1.108   .     S
C198   H552    1.111   .     S
C198   H554    1.110   .     S
C198   H553    1.109   .     S
C199   H556    1.119   .     S
C199   O635    1.420   .     S
C199   H555    1.111   .     S
C199   C200    1.527   .     S
C200   H557    1.109   .     S
C200   C202    1.526   .     S
C200   H558    1.111   .     S
C201   C206    1.404   .     A
C201   O685    1.384   .     S
C202   H560    1.111   .     S
C202   H562    1.111   .     S
C202   H561    1.110   .     S
C203   O686    1.383   .     S
C204   H503    1.085   .     S
C204   C1597   1.394   .     S
C205   O687    1.385   .     S
C206   O688    1.382   .     S
C207   O690    1.386   .     S
C208   O691    1.385   .     S
C208   C213    1.405   1_556 S
C209   O692    1.385   .     S
C209   C212    1.407   1_554 S
C210   O693    1.382   .     S
C210   C216    1.403   1_556 S
C211   O694    1.386   .     S
C211   C214    1.404   1_554 S
C212   O695    1.384   .     S
C212   C209    1.407   1_556 S
C213   O696    1.382   .     S
C213   C208    1.405   1_554 S
C214   O697    1.384   .     S
C214   C211    1.404   1_556 S
C215   H567    1.084   .     S
C216   O698    1.383   .     S
C216   C210    1.403   1_554 S
C217   O722    1.277   .     A
C217   O2174   1.282   1_545 S
C218   O689    1.278   .     A
C218   O2130   1.280   1_545 S
C219   O636    1.276   .     A
C219   O1448   1.280   .     S
C220   O711    1.277   .     A
C220   O1385   1.281   .     S
C221   O1390   1.281   .     A
C221   O1386   1.279   .     A
C222   O1391   1.276   .     A
C222   O1387   1.281   .     A
C223   O640    1.277   .     S
C223   O644    1.279   .     S
C224   O2137   1.282   .     A
C224   O2142   1.276   .     A
C225   O647    1.280   .     A
C225   O675    1.283   .     A
C226   H578    1.084   .     S
C226   C278    1.399   .     A
C227   O648    1.274   .     A
C227   O676    1.287   .     A
C228   O649    1.282   .     A
C228   O673    1.282   .     A
C229   O674    1.277   .     A
C229   O650    1.280   .     A
C230   O680    1.279   .     A
C230   O651    1.282   .     A
C231   O652    1.285   .     A
C231   O681    1.274   .     A
C232   O653    1.283   .     A
C232   O677    1.282   .     A
C233   O679    1.277   .     A
C233   O654    1.280   .     A
C234   O655    1.283   .     A
C234   O666    1.281   .     A
C235   O657    1.279   .     A
C235   O668    1.278   .     A
C236   O664    1.284   .     A
C236   O658    1.280   .     A
C237   H589    1.085   .     S
C237   C279    1.397   .     A
C237   C838    1.394   1_455 S
C238   O665    1.285   .     A
C238   O659    1.276   .     A
C239   O660    1.282   .     A
C239   O671    1.282   .     A
C240   O672    1.277   .     A
C240   O661    1.279   .     A
C241   O669    1.279   .     A
C241   O662    1.282   .     A
C242   O663    1.286   .     A
C242   O670    1.273   .     A
C243   O699    1.387   .     S
C243   C260    1.392   .     A
C244   C258    1.399   .     A
C244   O701    1.385   .     S
C245   O702    1.385   .     S
C245   C257    1.395   .     A
C246   O703    1.383   .     S
C246   C256    1.395   .     A
C247   O704    1.382   .     S
C247   C255    1.398   .     A
C248   H600    1.084   .     S
C248   C280    1.399   .     A
C249   C254    1.393   .     A
C249   O705    1.383   .     S
C250   C253    1.399   .     A
C250   O706    1.388   .     S
C251   C252    1.399   .     A
C251   O707    1.383   .     S
C252   O708    1.388   .     S
C253   O709    1.382   .     S
C254   O710    1.386   .     S
C255   O712    1.385   .     S
C256   O713    1.386   .     S
C257   O714    1.382   .     S
C258   O715    1.382   .     S
C259   H611    1.084   .     S
C259   C1609   1.390   .     S
C260   O716    1.384   .     S
C261   O717    1.383   .     S
C261   C277    1.396   .     A
C262   O718    1.383   .     S
C262   C276    1.393   .     A
C263   C275    1.400   .     A
C263   O719    1.389   .     S
C264   C274    1.400   .     A
C264   O720    1.383   .     S
C265   C273    1.390   .     A
C265   O721    1.385   .     S
C266   C272    1.398   .     A
C266   O723    1.384   .     S
C267   O724    1.386   .     S
C267   C271    1.398   .     A
C268   O725    1.383   .     S
C268   C269    1.394   .     A
C269   O726    1.384   .     S
C270   H622    1.084   .     S
C271   O727    1.385   .     S
C272   O728    1.382   .     S
C273   O729    1.382   .     S
C274   O730    1.386   .     S
C275   O731    1.382   .     S
C276   O732    1.389   .     S
C277   O635    1.384   .     S
C279   C784    1.416   1_455 S
H324   C1596   1.108   .     S
H335   C853    1.110   .     S
H336   C853    1.111   .     S
H343   C856    1.109   1_455 S
H366   C867    1.110   1_455 S
H367   C867    1.105   1_455 S
H374   C870    1.111   .     S
H380   C1622   1.111   1_545 S
H389   C1625   1.111   1_545 S
H402   C882    1.111   1_455 S
H406   C884    1.110   1_455 S
H414   C1635   1.110   1_545 S
H421   C1638   1.109   .     S
H425   C892    1.111   1_455 S
H427   C892    1.107   1_455 S
H437   C795    1.114   .     S
H481   C797    1.111   .     S
H504   C797    1.111   .     S
H559   C1548   1.111   .     S
H588   C1559   1.113   1_545 S
H590   C1559   1.117   1_545 S
H593   C1561   1.111   1_545 S
H595   C1561   1.111   1_545 S
H630   C81     1.111   1_556 S
O633   Zn733   1.948   .     S
O633   Zn2236  1.947   1_545 S
O633   Zn744   1.946   .     S
O633   Zn736   1.949   .     S
O634   Zn735   1.938   .     S
O634   C1714   1.280   .     S
O636   Zn738   1.938   .     S
O637   Zn737   1.938   .     S
O637   C968    1.281   1_455 S
O638   Zn747   1.939   .     S
O638   C969    1.279   1_455 A
O639   C970    1.281   1_455 A
O639   Zn746   1.939   .     S
O640   Zn741   1.938   .     S
O641   Zn733   1.938   .     S
O641   C1720   1.282   1_545 A
O642   C969    1.281   1_455 A
O642   Zn743   1.938   .     S
O643   C970    1.276   1_455 A
O643   Zn742   1.938   .     S
O644   Zn745   1.938   .     S
O645   Zn739   1.947   .     S
O645   Zn2231  1.949   1_545 S
O645   Zn741   1.948   .     S
O645   Zn745   1.946   .     S
O646   Zn744   1.938   .     S
O646   C1720   1.276   1_545 A
O647   Zn736   1.945   .     S
O648   Zn735   1.945   .     S
O649   Zn738   1.938   .     S
O650   Zn737   1.938   .     S
O651   Zn740   1.945   .     S
O652   Zn739   1.945   .     S
O653   Zn734   1.938   .     S
O654   Zn748   1.938   .     S
O655   Zn735   1.937   .     S
O656   Zn746   1.947   .     S
O656   Zn734   1.948   .     S
O656   Zn1486  1.946   1_455 S
O656   Zn742   1.949   .     S
O657   Zn736   1.937   .     S
O658   Zn748   1.945   .     S
O659   Zn734   1.945   .     S
O660   Zn739   1.938   .     S
O661   Zn740   1.938   .     S
O662   Zn737   1.945   .     S
O663   Zn738   1.945   .     S
O664   Zn1491  1.945   .     S
O665   Zn742   1.945   .     S
O666   Zn2241  1.938   .     S
O667   Zn1496  1.948   1_455 S
O667   Zn747   1.947   .     S
O667   Zn737   1.946   .     S
O667   Zn743   1.949   .     S
O668   Zn744   1.938   .     S
O669   Zn747   1.945   .     S
O670   Zn1494  1.945   .     S
O671   Zn741   1.938   .     S
O672   Zn2229  1.938   .     S
O673   Zn1490  1.937   .     S
O674   Zn743   1.937   .     S
O675   Zn733   1.945   .     S
O676   Zn2237  1.945   .     S
O677   Zn746   1.938   .     S
O678   Zn740   1.939   .     S
O678   C1713   1.282   .     S
O679   Zn1495  1.938   .     S
O680   Zn2240  1.945   .     S
O681   Zn745   1.945   .     S
O689   Zn739   1.939   .     S
O700   Zn734   1.938   .     S
O700   C967    1.280   1_455 S
O711   Zn748   1.938   .     S
O722   Zn736   1.938   .     S
Zn733  O2168   1.938   1_545 S
Zn735  O2141   1.949   .     S
Zn738  O1404   1.946   .     S
Zn740  O2129   1.947   .     S
Zn741  O2172   1.945   1_545 S
Zn742  O1421   1.937   1_455 S
Zn743  O1412   1.945   1_455 S
Zn744  O2176   1.945   1_545 S
Zn745  O2162   1.938   1_545 S
Zn746  O1418   1.945   1_455 S
Zn747  O1427   1.938   1_455 S
Zn748  O1415   1.948   .     S
C749   H1029   1.084   .     S
C749   C752    1.395   .     A
C750   C762    1.397   .     A
C750   C883    1.394   .     A
C750   H1030   1.085   .     S
C751   C1007   1.395   .     A
C751   C949    1.405   .     A
C751   C2282   1.416   .     S
C752   C951    1.406   .     A
C753   C784    1.416   .     A
C753   C860    1.399   .     A
C753   C953    1.410   .     A
C754   C952    1.397   .     A
C754   C954    1.408   .     A
C754   C2281   1.416   .     S
C755   C955    1.413   .     A
C755   C963    1.399   .     A
C755   C786    1.416   .     A
C756   C783    1.396   .     A
C756   C956    1.405   .     A
C756   C787    1.416   .     A
C757   C794    1.398   .     A
C757   C957    1.410   .     A
C757   C2284   1.415   1_545 S
C758   C789    1.416   .     A
C758   C958    1.409   .     A
C758   C805    1.398   .     A
C759   C816    1.398   .     A
C759   C959    1.412   .     A
C759   C42     1.416   1_655 S
C760   C960    1.411   .     A
C760   C1018   1.399   .     A
C760   C2283   1.415   1_545 S
C761   H1041   1.084   .     S
C761   C894    1.396   .     A
C761   C763    1.399   .     A
C762   C961    1.408   .     A
C762   C788    1.416   .     A
C763   C962    1.410   .     A
C763   C41     1.416   1_655 S
C764   C964    1.407   .     A
C764   C790    1.417   .     A
C764   C772    1.396   .     A
C765   C1008   1.413   .     A
C765   C1010   1.413   .     A
C765   C980    1.464   .     S
C766   C1009   1.401   .     A
C766   C1006   1.401   .     A
C766   C981    1.451   .     S
C767   C1005   1.409   .     A
C767   C1012   1.410   .     A
C767   C973    1.465   .     S
C768   C975    1.462   .     S
C768   C1004   1.409   .     A
C768   C1011   1.413   .     A
C769   C1014   1.411   .     A
C769   C1003   1.413   .     A
C769   C976    1.462   .     S
C770   C1013   1.407   .     A
C770   C977    1.450   .     S
C770   C1002   1.410   .     A
C771   C1001   1.411   .     A
C771   C1016   1.408   .     A
C771   C978    1.465   .     S
C772   H1052   1.083   .     S
C773   C1015   1.410   .     A
C773   C979    1.462   .     S
C773   C1000   1.410   .     A
C774   C989    1.466   .     S
C774   C999    1.411   .     A
C774   C1019   1.411   .     A
C775   C990    1.462   .     S
C775   C1017   1.407   .     A
C775   C998    1.412   .     A
C776   C1021   1.409   .     A
C776   C982    1.462   .     S
C776   C997    1.412   .     A
C777   C983    1.451   .     S
C777   C995    1.401   .     A
C777   C1020   1.400   .     A
C778   C994    1.409   .     A
C778   C1023   1.411   .     A
C778   C984    1.466   .     S
C779   C986    1.462   .     S
C779   C1022   1.410   .     A
C779   C993    1.408   .     A
C780   C1025   1.411   .     A
C780   C992    1.411   .     A
C780   C987    1.461   .     S
C781   C1024   1.409   .     A
C781   C991    1.409   .     A
C781   C988    1.449   .     S
C782   C784    1.403   .     A
C782   C1026   1.416   .     A
C782   C4      1.417   1_655 S
C783   H1063   1.085   .     S
C783   C2368   1.391   .     S
C784   C279    1.416   1_655 S
C785   C786    1.402   .     A
C785   C1028   1.416   .     A
C785   C2250   1.416   1_545 S
C786   C2247   1.416   1_545 S
C787   C2256   1.415   .     S
C787   C788    1.402   1_556 S
C788   C2253   1.415   .     S
C788   C787    1.402   1_554 S
C789   C790    1.403   1_556 S
C790   C789    1.403   1_554 S
C791   H1107   1.116   .     S
C791   C792    1.529   .     S
C791   O1430   1.412   .     S
C791   H1118   1.114   .     S
C792   C793    1.525   .     S
C792   H1129   1.112   .     S
C792   H1141   1.111   .     S
C793   H1152   1.110   .     S
C793   H1174   1.110   .     S
C793   H1163   1.111   .     S
C794   H1074   1.084   .     S
C794   C2379   1.396   1_545 S
C795   O1431   1.414   .     S
C795   H1196   1.117   .     S
C795   C796    1.525   .     S
C796   H1218   1.112   .     S
C796   H1207   1.110   .     S
C796   C797    1.526   .     S
C797   H1240   1.110   .     S
C798   H1263   1.111   .     S
C798   O1432   1.417   .     S
C798   H1274   1.117   .     S
C798   C799    1.532   .     S
C799   C800    1.526   .     S
C799   H1296   1.110   .     S
C799   H1285   1.112   .     S
C800   H1311   1.110   .     S
C800   H1312   1.111   .     S
C800   H2803   1.111   1_545 S
C801   H1314   1.111   .     S
C801   O1433   1.412   .     S
C801   C802    1.528   .     S
C801   H1313   1.116   .     S
C802   C803    1.526   .     S
C802   H1316   1.111   .     S
C802   H1317   1.109   .     S
C803   H1320   1.109   .     S
C803   H1318   1.108   .     S
C803   H1319   1.111   .     S
C804   H1321   1.112   .     S
C804   O1434   1.412   .     S
C804   H1322   1.116   .     S
C804   C806    1.528   .     S
C805   H1085   1.085   .     S
C806   H1323   1.112   .     S
C806   H1324   1.110   .     S
C806   C807    1.524   .     S
C807   H1327   1.108   .     S
C807   H1325   1.111   .     S
C807   H1328   1.107   .     S
C808   H1330   1.113   .     S
C808   O1435   1.412   .     S
C808   C809    1.529   .     S
C808   H1329   1.116   .     S
C809   H1332   1.111   .     S
C809   C810    1.526   .     S
C809   H1331   1.112   .     S
C810   H1333   1.111   .     S
C810   H1334   1.111   .     S
C810   H1335   1.110   .     S
C811   O1436   1.414   .     S
C811   C812    1.527   .     S
C811   H2832   1.113   .     S
C811   H2834   1.117   .     S
C812   H1340   1.111   .     S
C812   C813    1.526   .     S
C812   H1339   1.110   .     S
C813   H1342   1.110   .     S
C813   H2837   1.111   .     S
C813   H2839   1.111   .     S
C814   C815    1.531   .     S
C814   O1438   1.417   .     S
C814   H1344   1.111   .     S
C814   H1345   1.117   .     S
C815   H1347   1.111   .     S
C815   C817    1.527   .     S
C815   H1346   1.111   .     S
C816   H1096   1.084   .     S
C816   C905    1.394   .     A
C817   H1350   1.110   .     S
C817   H1349   1.111   .     S
C817   H1351   1.111   .     S
C818   O1439   1.412   .     S
C818   H1353   1.111   .     S
C818   H1352   1.117   .     S
C818   C819    1.528   .     S
C819   C820    1.525   .     S
C819   H1354   1.112   .     S
C819   H1355   1.110   .     S
C820   H1358   1.109   .     S
C820   H1356   1.108   .     S
C820   H1357   1.111   .     S
C821   H1360   1.116   .     S
C821   O1440   1.412   .     S
C821   C822    1.529   .     S
C821   H1361   1.113   .     S
C822   H1363   1.111   .     S
C822   H1362   1.112   .     S
C822   C823    1.526   .     S
C823   H1364   1.111   .     S
C823   H1366   1.111   .     S
C823   H1365   1.111   .     S
C824   C825    1.526   .     S
C824   H1367   1.113   .     S
C824   H1368   1.116   .     S
C824   O1441   1.413   .     S
C825   H1369   1.110   .     S
C825   H1371   1.112   .     S
C825   C826    1.526   .     S
C826   H1373   1.110   .     S
C826   H1374   1.111   .     S
C826   H1372   1.111   .     S
C827   C967    1.444   .     S
C827   C974    1.395   .     A
C827   C1      1.390   1_655 S
C828   O1442   1.417   .     S
C828   H1375   1.111   .     S
C828   H1376   1.117   .     S
C828   C829    1.532   .     S
C829   H1377   1.111   .     S
C829   C830    1.527   .     S
C829   H1378   1.111   1_554 S
C830   H1379   1.111   .     S
C830   H1380   1.109   .     S
C830   H1031   1.111   .     S
C831   H1032   1.116   .     S
C831   C832    1.529   .     S
C831   O1443   1.412   .     S
C831   H1033   1.113   .     S
C832   C833    1.525   .     S
C832   H1035   1.110   .     S
C832   H1034   1.112   .     S
C833   H1038   1.110   .     S
C833   H1036   1.110   .     S
C833   H1037   1.111   .     S
C834   O1444   1.417   .     S
C834   H1040   1.119   .     S
C834   H1039   1.112   .     S
C834   C835    1.527   .     S
C835   C836    1.526   .     S
C835   H1042   1.107   .     S
C835   H1043   1.112   .     S
C836   H1046   1.111   .     S
C836   H1044   1.111   .     S
C836   H1045   1.111   .     S
C837   H1047   1.114   .     S
C837   O1445   1.414   .     S
C837   C839    1.528   .     S
C837   H1048   1.116   .     S
C838   C968    1.447   .     S
C838   C860    1.396   .     A
C838   C237    1.394   1_655 S
C839   H1050   1.111   .     S
C839   C840    1.527   .     S
C839   H1049   1.112   .     S
C840   H1053   1.111   .     S
C840   H1054   1.111   .     S
C840   H1051   1.111   .     S
C841   O1446   1.412   .     S
C841   H1055   1.112   .     S
C841   C842    1.528   .     S
C841   H1056   1.115   .     S
C842   H1057   1.112   .     S
C842   C843    1.524   .     S
C842   H1058   1.111   .     S
C843   H1059   1.111   .     S
C843   H1061   1.108   .     S
C843   H1060   1.108   .     S
C844   O1447   1.421   .     S
C844   H1062   1.110   .     S
C844   H1064   1.110   .     S
C844   C845    1.543   .     S
C845   H1065   1.108   .     S
C845   C846    1.524   .     S
C845   H1066   1.112   .     S
C846   H1069   1.110   .     S
C846   H1068   1.110   .     S
C846   H1067   1.111   .     S
C847   O1449   1.420   .     S
C847   H1070   1.111   .     S
C847   C848    1.528   .     S
C847   H1071   1.118   .     S
C848   H1073   1.111   .     S
C848   C850    1.526   .     S
C848   H2568   1.108   1_545 S
C849   C996    1.396   .     A
C849   C965    1.447   .     S
C849   C2448   1.394   1_545 S
C850   H1075   1.110   .     S
C850   H1077   1.111   .     S
C850   H1076   1.111   .     S
C851   H1079   1.119   .     S
C851   H1078   1.111   .     S
C851   O1450   1.421   .     S
C851   C852    1.529   .     S
C852   C853    1.526   .     S
C852   H1080   1.109   .     S
C852   H1081   1.111   .     S
C853   H1082   1.111   .     S
C854   C855    1.525   .     S
C854   O1451   1.413   .     S
C854   H1087   1.113   .     S
C854   H1086   1.117   .     S
C855   C856    1.526   .     S
C855   H1088   1.112   .     S
C855   H1089   1.109   .     S
C856   H1092   1.111   .     S
C856   H1090   1.111   .     S
C856   H343    1.109   1_655 S
C857   H1093   1.118   .     S
C857   O1452   1.415   .     S
C857   H1094   1.111   .     S
C857   C2354   1.524   1_545 S
C858   C859    1.526   .     S
C858   H1097   1.106   .     S
C858   H1095   1.111   .     S
C858   C2353   1.524   .     S
C859   H1100   1.111   .     S
C859   H1098   1.110   .     S
C859   H1099   1.110   .     S
C860   H1140   1.084   .     S
C861   C966    1.445   .     S
C861   C963    1.395   .     A
C861   C2503   1.390   1_545 S
C862   C863    1.531   .     S
C862   H1101   1.112   .     S
C862   H1102   1.117   .     S
C862   O1453   1.418   .     S
C863   H1104   1.111   .     S
C863   C864    1.528   .     S
C863   H1103   1.107   .     S
C864   H1105   1.109   .     S
C864   H1106   1.109   .     S
C864   H1108   1.111   .     S
C865   O1454   1.419   .     S
C865   C866    1.534   .     S
C865   H1110   1.116   .     S
C865   H1109   1.111   .     S
C866   H1112   1.104   .     S
C866   C867    1.524   .     S
C866   H1111   1.107   .     S
C867   H1113   1.110   .     S
C867   H366    1.110   1_655 S
C867   H367    1.105   1_655 S
C868   O1455   1.415   .     S
C868   H1117   1.113   .     S
C868   C869    1.531   .     S
C868   H1116   1.117   .     S
C869   H1119   1.111   .     S
C869   C870    1.525   .     S
C869   H1120   1.110   .     S
C870   H1123   1.111   .     S
C870   H1121   1.111   .     S
C871   H1125   1.116   .     S
C871   O1456   1.417   .     S
C871   C873    1.533   .     S
C871   H1124   1.111   .     S
C872   C1018   1.395   .     A
C872   C971    1.445   .     S
C872   C2279   1.391   1_545 S
C873   H1126   1.107   .     S
C873   H1127   1.105   .     S
C873   C2370   1.523   1_545 S
C874   H1131   1.102   .     S
C874   H1130   1.109   .     S
C874   C2369   1.523   .     S
C874   H2624   1.111   .     S
C875   H1132   1.117   .     S
C875   O1457   1.414   .     S
C875   H1133   1.113   .     S
C875   C876    1.531   .     S
C876   H1134   1.111   .     S
C876   C877    1.526   .     S
C876   H1135   1.111   .     S
C877   H1136   1.111   .     S
C877   H1138   1.111   .     S
C877   H2633   1.111   .     S
C878   C879    1.547   .     S
C878   O1458   1.424   .     S
C878   H1142   1.110   .     S
C878   H1139   1.111   .     S
C879   H1144   1.112   .     S
C879   H1143   1.108   .     S
C879   C880    1.523   .     S
C880   H1146   1.110   .     S
C880   H1145   1.111   .     S
C880   H1147   1.109   .     S
C881   H1149   1.113   .     S
C881   O1460   1.416   .     S
C881   C882    1.527   .     S
C881   H1148   1.117   .     S
C882   H1151   1.110   .     S
C882   C884    1.526   .     S
C882   H402    1.111   1_655 S
C883   C972    1.447   .     S
C883   C2290   1.396   .     S
C884   H1153   1.111   .     S
C884   H1155   1.111   .     S
C884   H406    1.110   1_655 S
C885   H1156   1.109   .     S
C885   O1461   1.421   .     S
C885   H1157   1.117   .     S
C885   C886    1.530   .     S
C886   H1158   1.108   .     S
C886   C887    1.527   .     S
C886   H1159   1.111   .     S
C887   H1160   1.111   .     S
C887   H1161   1.110   .     S
C887   H2658   1.110   .     S
C888   C889    1.525   .     S
C888   H1165   1.114   .     S
C888   H1164   1.117   .     S
C888   O1462   1.413   .     S
C889   H1166   1.111   .     S
C889   H1167   1.109   .     S
C889   C890    1.526   .     S
C890   H1170   1.111   .     S
C890   H1168   1.111   .     S
C890   H2665   1.109   1_545 S
C891   O1463   1.414   .     S
C891   H1171   1.118   .     S
C891   C892    1.523   .     S
C891   H1172   1.113   .     S
C892   C145    1.525   1_655 S
C892   H425    1.111   1_655 S
C892   H427    1.107   1_655 S
C893   H1177   1.110   .     S
C893   H1178   1.111   .     S
C893   H1176   1.111   .     S
C894   C969    1.448   .     S
C894   C57     1.394   1_655 S
C895   O1464   1.420   .     S
C895   C896    1.532   .     S
C895   H1180   1.117   .     S
C895   H1179   1.111   .     S
C896   H1181   1.106   .     S
C896   H1182   1.111   .     S
C896   C897    1.529   .     S
C897   H1183   1.109   .     S
C897   H1186   1.110   .     S
C897   H1184   1.109   .     S
C898   O1465   1.417   .     S
C898   H1187   1.113   .     S
C898   C899    1.524   .     S
C898   H1188   1.117   .     S
C899   C900    1.525   .     S
C899   H1189   1.110   .     S
C899   H1190   1.110   .     S
C900   H1192   1.110   .     S
C900   H1193   1.111   .     S
C900   H1191   1.110   .     S
C901   H1195   1.117   .     S
C901   O1466   1.419   .     S
C901   H1194   1.111   .     S
C901   C902    1.534   .     S
C902   C903    1.530   .     S
C902   H1197   1.107   .     S
C902   H1198   1.111   .     S
C903   H1199   1.109   .     S
C903   H1200   1.109   .     S
C903   H1201   1.110   .     S
C904   H1202   1.111   .     S
C904   C906    1.541   .     S
C904   O1467   1.419   .     S
C904   H1203   1.117   .     S
C905   C970    1.443   .     S
C905   C24     1.390   1_655 S
C906   C907    1.523   .     S
C906   H1204   1.107   .     S
C906   H1205   1.104   .     S
C907   H1208   1.108   .     S
C907   H1206   1.110   .     S
C907   H1209   1.106   .     S
C908   H1211   1.113   .     S
C908   O1468   1.414   .     S
C908   H1210   1.117   .     S
C908   C909    1.530   .     S
C909   H1213   1.110   .     S
C909   H1212   1.111   .     S
C909   C910    1.525   .     S
C910   H1216   1.111   .     S
C910   H1214   1.111   .     S
C910   H1215   1.111   .     S
C911   H1217   1.110   .     S
C911   C912    1.544   .     S
C911   O1469   1.422   .     S
C911   H1219   1.110   .     S
C912   C913    1.524   .     S
C912   H1221   1.112   .     S
C912   H1220   1.109   .     S
C913   H1222   1.111   .     S
C913   H1224   1.109   .     S
C913   H1223   1.110   .     S
C914   C915    1.530   .     S
C914   H1225   1.111   .     S
C914   O1471   1.420   .     S
C914   H1226   1.118   .     S
C915   C917    1.526   .     S
C915   H1228   1.110   .     S
C915   H1227   1.108   .     S
C916   C1026   1.411   .     A
C916   O1430   1.384   .     S
C916   C953    1.407   .     A
C917   H1232   1.111   .     S
C917   H1231   1.111   .     S
C917   H1230   1.110   .     S
C918   H1234   1.118   .     S
C918   C919    1.529   .     S
C918   H1233   1.110   .     S
C918   O1472   1.420   .     S
C919   H1236   1.111   .     S
C919   C920    1.526   .     S
C919   H1235   1.108   .     S
C920   H1239   1.111   .     S
C920   H1238   1.110   .     S
C920   H1237   1.111   .     S
C921   H1242   1.114   .     S
C921   O1473   1.413   .     S
C921   H1241   1.117   .     S
C921   C922    1.526   .     S
C922   H1244   1.110   .     S
C922   H1243   1.112   .     S
C922   C923    1.526   .     S
C923   H1247   1.111   .     S
C923   H1245   1.111   .     S
C923   H1246   1.110   .     S
C924   O1474   1.420   .     S
C924   H1248   1.106   .     S
C924   H1249   1.116   .     S
C924   C925    1.535   .     S
C925   H1253   1.111   .     S
C925   C926    1.526   .     S
C925   H1250   1.108   .     S
C926   H1255   1.109   .     S
C926   H1256   1.109   .     S
C926   H1254   1.111   .     S
C927   C951    1.402   .     A
C927   O1431   1.382   .     S
C927   C1027   1.408   .     A
C928   C929    1.528   .     S
C928   O1475   1.414   .     S
C928   H1257   1.116   .     S
C928   H1258   1.113   .     S
C929   H1259   1.111   .     S
C929   H1260   1.111   .     S
C929   C930    1.525   .     S
C930   H1264   1.111   .     S
C930   H1262   1.111   .     S
C930   H1261   1.111   .     S
C931   H1266   1.112   .     S
C931   O1476   1.415   .     S
C931   H1265   1.117   .     S
C931   C932    1.524   .     S
C932   C933    1.525   .     S
C932   H1268   1.106   .     S
C932   H1267   1.111   .     S
C933   H1271   1.111   .     S
C933   H1269   1.111   .     S
C933   H1270   1.110   .     S
C934   H1273   1.114   .     S
C934   H1272   1.116   .     S
C934   O1477   1.416   .     S
C934   C935    1.528   .     S
C935   H1275   1.111   .     S
C935   C936    1.523   .     S
C935   H1276   1.107   .     S
C936   H1278   1.110   .     S
C936   H1277   1.107   .     S
C936   H1279   1.110   .     S
C937   C939    1.531   .     S
C937   H1281   1.117   .     S
C937   H1280   1.111   .     S
C937   O1478   1.417   .     S
C938   C1028   1.414   .     A
C938   C955    1.403   .     A
C938   O1432   1.386   .     S
C939   H1282   1.105   .     S
C939   H1283   1.104   .     S
C939   C940    1.521   .     S
C940   H1287   1.104   .     S
C940   H1286   1.108   .     S
C940   H1284   1.110   .     S
C941   H1288   1.116   .     S
C941   O1479   1.414   .     S
C941   C942    1.530   .     S
C941   H1289   1.113   .     S
C942   H1290   1.112   .     S
C942   C943    1.526   .     S
C942   H1291   1.111   .     S
C943   H1293   1.111   .     S
C943   H1292   1.111   .     S
C943   H1294   1.111   .     S
C944   H1295   1.111   .     S
C944   O1480   1.424   .     S
C944   H1297   1.109   .     S
C944   C945    1.544   .     S
C945   C946    1.525   .     S
C945   H1299   1.111   .     S
C945   H1298   1.108   .     S
C946   H1300   1.111   .     S
C946   H1302   1.110   .     S
C946   H1301   1.109   .     S
C947   H1304   1.119   .     S
C947   O1383   1.420   .     S
C947   H1303   1.111   .     S
C947   C948    1.527   .     S
C948   H1305   1.109   .     S
C948   C950    1.526   .     S
C948   H1306   1.111   .     S
C949   C954    1.404   .     A
C949   O1433   1.384   .     S
C950   H1308   1.111   .     S
C950   H1310   1.111   .     S
C950   H1309   1.110   .     S
C951   O1434   1.383   .     S
C952   H1251   1.085   .     S
C952   C2345   1.394   .     S
C953   O1435   1.385   .     S
C954   O1436   1.382   .     S
C955   O1438   1.386   .     S
C956   O1439   1.385   .     S
C956   C961    1.405   1_556 S
C957   O1440   1.385   .     S
C957   C960    1.407   1_554 S
C958   O1441   1.382   .     S
C958   C964    1.403   1_556 S
C959   O1442   1.386   .     S
C959   C962    1.404   1_554 S
C960   O1443   1.384   .     S
C960   C957    1.407   1_556 S
C961   O1444   1.382   .     S
C961   C956    1.405   1_554 S
C962   O1445   1.384   .     S
C962   C959    1.404   1_556 S
C963   H1315   1.084   .     S
C964   O1446   1.383   .     S
C964   C958    1.403   1_554 S
C965   O1470   1.277   .     A
C965   O2922   1.282   1_545 S
C966   O1437   1.278   .     A
C966   O2878   1.280   1_545 S
C967   O1384   1.276   .     A
C967   O700    1.280   1_655 S
C968   O1459   1.277   .     A
C968   O637    1.281   1_655 S
C969   O642    1.281   1_655 A
C969   O638    1.279   1_655 A
C970   O643    1.276   1_655 A
C970   O639    1.281   1_655 A
C971   O1388   1.277   .     S
C971   O1392   1.279   .     S
C972   O2885   1.282   .     A
C972   O2890   1.276   .     A
C973   O1395   1.280   .     A
C973   O1423   1.283   .     A
C974   H1326   1.084   .     S
C974   C1026   1.399   .     A
C975   O1396   1.274   .     A
C975   O1424   1.287   .     A
C976   O1397   1.282   .     A
C976   O1421   1.282   .     A
C977   O1422   1.277   .     A
C977   O1398   1.280   .     A
C978   O1428   1.279   .     A
C978   O1399   1.282   .     A
C979   O1400   1.285   .     A
C979   O1429   1.274   .     A
C980   O1401   1.283   .     A
C980   O1425   1.282   .     A
C981   O1427   1.277   .     A
C981   O1402   1.280   .     A
C982   O1403   1.283   .     A
C982   O1414   1.281   .     A
C983   O1405   1.279   .     A
C983   O1416   1.278   .     A
C984   O1412   1.284   .     A
C984   O1406   1.280   .     A
C985   H1337   1.085   .     S
C985   C1027   1.397   .     A
C986   O1413   1.285   .     A
C986   O1407   1.276   .     A
C987   O1408   1.282   .     A
C987   O1419   1.282   .     A
C988   O1420   1.277   .     A
C988   O1409   1.279   .     A
C989   O1417   1.279   .     A
C989   O1410   1.282   .     A
C990   O1411   1.286   .     A
C990   O1418   1.273   .     A
C991   O1447   1.387   .     S
C991   C1008   1.392   .     A
C992   C1006   1.399   .     A
C992   O1449   1.385   .     S
C993   O1450   1.385   .     S
C993   C1005   1.395   .     A
C994   O1451   1.383   .     S
C994   C1004   1.395   .     A
C995   O1452   1.382   .     S
C995   C1003   1.398   .     A
C996   H1348   1.084   .     S
C996   C1028   1.399   .     A
C997   C1002   1.393   .     A
C997   O1453   1.383   .     S
C998   C1001   1.399   .     A
C998   O1454   1.388   .     S
C999   C1000   1.399   .     A
C999   O1455   1.383   .     S
C1000  O1456   1.388   .     S
C1001  O1457   1.382   .     S
C1002  O1458   1.386   .     S
C1003  O1460   1.385   .     S
C1004  O1461   1.386   .     S
C1005  O1462   1.382   .     S
C1006  O1463   1.382   .     S
C1007  H1359   1.084   .     S
C1007  C2357   1.390   .     S
C1008  O1464   1.384   .     S
C1009  O1465   1.383   .     S
C1009  C1025   1.396   .     A
C1010  O1466   1.383   .     S
C1010  C1024   1.393   .     A
C1011  C1023   1.400   .     A
C1011  O1467   1.389   .     S
C1012  C1022   1.400   .     A
C1012  O1468   1.383   .     S
C1013  C1021   1.390   .     A
C1013  O1469   1.385   .     S
C1014  C1020   1.398   .     A
C1014  O1471   1.384   .     S
C1015  O1472   1.386   .     S
C1015  C1019   1.398   .     A
C1016  O1473   1.383   .     S
C1016  C1017   1.394   .     A
C1017  O1474   1.384   .     S
C1018  H1370   1.084   .     S
C1019  O1475   1.385   .     S
C1020  O1476   1.382   .     S
C1021  O1477   1.382   .     S
C1022  O1478   1.386   .     S
C1023  O1479   1.382   .     S
C1024  O1480   1.389   .     S
C1025  O1383   1.384   .     S
H1072  C2344   1.108   .     S
H1083  C105    1.110   1_655 S
H1084  C105    1.111   1_655 S
H1122  C122    1.111   1_655 S
H1128  C2370   1.111   1_545 S
H1137  C2373   1.111   1_545 S
H1162  C2383   1.110   1_545 S
H1169  C2386   1.109   .     S
H1185  C47     1.114   1_655 S
H1229  C49     1.111   1_655 S
H1252  C49     1.111   1_655 S
H1307  C2296   1.111   .     S
H1336  C2307   1.113   1_545 S
H1338  C2307   1.117   1_545 S
H1341  C2309   1.111   1_545 S
H1343  C2309   1.111   1_545 S
H1378  C829    1.111   1_556 S
O1381  Zn1481  1.948   .     S
O1381  Zn2984  1.947   1_545 S
O1381  Zn1492  1.946   .     S
O1381  Zn1484  1.949   .     S
O1382  Zn1483  1.938   .     S
O1382  C2462   1.280   .     S
O1384  Zn1486  1.938   .     S
O1385  Zn1485  1.938   .     S
O1386  Zn1495  1.939   .     S
O1387  Zn1494  1.939   .     S
O1388  Zn1489  1.938   .     S
O1389  Zn1481  1.938   .     S
O1389  C2468   1.282   1_545 A
O1390  Zn1491  1.938   .     S
O1391  Zn1490  1.938   .     S
O1392  Zn1493  1.938   .     S
O1393  Zn1487  1.947   .     S
O1393  Zn2979  1.949   1_545 S
O1393  Zn1489  1.948   .     S
O1393  Zn1493  1.946   .     S
O1394  Zn1492  1.938   .     S
O1394  C2468   1.276   1_545 A
O1395  Zn1484  1.945   .     S
O1396  Zn1483  1.945   .     S
O1397  Zn1486  1.938   .     S
O1398  Zn1485  1.938   .     S
O1399  Zn1488  1.945   .     S
O1400  Zn1487  1.945   .     S
O1401  Zn1482  1.938   .     S
O1402  Zn1496  1.938   .     S
O1403  Zn1483  1.937   .     S
O1404  Zn1494  1.947   .     S
O1404  Zn1482  1.948   .     S
O1404  Zn1490  1.949   .     S
O1405  Zn1484  1.937   .     S
O1406  Zn1496  1.945   .     S
O1407  Zn1482  1.945   .     S
O1408  Zn1487  1.938   .     S
O1409  Zn1488  1.938   .     S
O1410  Zn1485  1.945   .     S
O1411  Zn1486  1.945   .     S
O1412  Zn743   1.945   1_655 S
O1413  Zn1490  1.945   .     S
O1414  Zn2989  1.938   .     S
O1415  Zn1495  1.947   .     S
O1415  Zn1485  1.946   .     S
O1415  Zn1491  1.949   .     S
O1416  Zn1492  1.938   .     S
O1417  Zn1495  1.945   .     S
O1418  Zn746   1.945   1_655 S
O1419  Zn1489  1.938   .     S
O1420  Zn2977  1.938   .     S
O1421  Zn742   1.937   1_655 S
O1422  Zn1491  1.937   .     S
O1423  Zn1481  1.945   .     S
O1424  Zn2985  1.945   .     S
O1425  Zn1494  1.938   .     S
O1426  Zn1488  1.939   .     S
O1426  C2461   1.282   .     S
O1427  Zn747   1.938   1_655 S
O1428  Zn2988  1.945   .     S
O1429  Zn1493  1.945   .     S
O1437  Zn1487  1.939   .     S
O1448  Zn1482  1.938   .     S
O1459  Zn1496  1.938   .     S
O1470  Zn1484  1.938   .     S
Zn1481 O2916   1.938   1_545 S
Zn1483 O2889   1.949   .     S
Zn1486 O656    1.946   1_655 S
Zn1488 O2877   1.947   .     S
Zn1489 O2920   1.945   1_545 S
Zn1492 O2924   1.945   1_545 S
Zn1493 O2910   1.938   1_545 S
Zn1496 O667    1.948   1_655 S
C1497  H1777   1.084   .     S
C1497  C1500   1.395   .     A
C1497  C2323   1.390   1_455 S
C1498  C1510   1.397   .     A
C1498  C1631   1.394   .     A
C1498  H1778   1.085   .     S
C1499  C1755   1.395   .     A
C1499  C1697   1.405   .     A
C1499  C38     1.416   1_565 S
C1500  C1699   1.406   .     A
C1500  C2278   1.417   1_455 S
C1501  C1532   1.416   .     A
C1501  C1608   1.399   .     A
C1501  C1701   1.410   .     A
C1502  C1700   1.397   .     A
C1502  C1702   1.408   .     A
C1502  C37     1.416   1_565 S
C1503  C1703   1.413   .     A
C1503  C1711   1.399   .     A
C1503  C1534   1.416   .     A
C1504  C1531   1.396   .     A
C1504  C1704   1.405   .     A
C1504  C1535   1.416   .     A
C1505  C1542   1.398   .     A
C1505  C1705   1.410   .     A
C1506  C1537   1.416   .     A
C1506  C1706   1.409   .     A
C1506  C1553   1.398   .     A
C1507  C1564   1.398   .     A
C1507  C1707   1.412   .     A
C1507  C2286   1.416   .     S
C1508  C1708   1.411   .     A
C1508  C1766   1.399   .     A
C1509  H1789   1.084   .     S
C1509  C1642   1.396   .     A
C1509  C1511   1.399   .     A
C1510  C1709   1.408   .     A
C1510  C1536   1.416   .     A
C1511  C1710   1.410   .     A
C1511  C2285   1.416   .     S
C1512  C1712   1.407   .     A
C1512  C1538   1.417   .     A
C1512  C1520   1.396   .     A
C1513  C1756   1.413   .     A
C1513  C1758   1.413   .     A
C1513  C1728   1.464   .     S
C1514  C1757   1.401   .     A
C1514  C1754   1.401   .     A
C1514  C1729   1.451   .     S
C1515  C1753   1.409   .     A
C1515  C1760   1.410   .     A
C1515  C1721   1.465   .     S
C1516  C1723   1.462   .     S
C1516  C1752   1.409   .     A
C1516  C1759   1.413   .     A
C1517  C1762   1.411   .     A
C1517  C1751   1.413   .     A
C1517  C1724   1.462   .     S
C1518  C1761   1.407   .     A
C1518  C1725   1.450   .     S
C1518  C1750   1.410   .     A
C1519  C1749   1.411   .     A
C1519  C1764   1.408   .     A
C1519  C1726   1.465   .     S
C1520  H1800   1.083   .     S
C1520  C2401   1.390   1_455 S
C1521  C1763   1.410   .     A
C1521  C1727   1.462   .     S
C1521  C1748   1.410   .     A
C1522  C1737   1.466   .     S
C1522  C1747   1.411   .     A
C1522  C1767   1.411   .     A
C1523  C1738   1.462   .     S
C1523  C1765   1.407   .     A
C1523  C1746   1.412   .     A
C1524  C1769   1.409   .     A
C1524  C1730   1.462   .     S
C1524  C1745   1.412   .     A
C1525  C1731   1.451   .     S
C1525  C1743   1.401   .     A
C1525  C1768   1.400   .     A
C1526  C1742   1.409   .     A
C1526  C1771   1.411   .     A
C1526  C1732   1.466   .     S
C1527  C1734   1.462   .     S
C1527  C1770   1.410   .     A
C1527  C1741   1.408   .     A
C1528  C1773   1.411   .     A
C1528  C1740   1.411   .     A
C1528  C1735   1.461   .     S
C1529  C1772   1.409   .     A
C1529  C1739   1.409   .     A
C1529  C1736   1.449   .     S
C1530  C1532   1.403   .     A
C1530  C1774   1.416   .     A
C1530  C2248   1.417   .     S
C1531  H1811   1.085   .     S
C1531  C124    1.391   1_565 S
C1532  C2523   1.416   .     S
C1533  C1534   1.402   .     A
C1533  C1776   1.416   .     A
C1535  C12     1.415   1_565 S
C1535  C1536   1.402   1_556 S
C1536  C9      1.415   1_565 S
C1536  C1535   1.402   1_554 S
C1537  C2259   1.416   1_455 S
C1537  C1538   1.403   1_556 S
C1538  C2255   1.416   1_455 S
C1538  C1537   1.403   1_554 S
C1539  H1855   1.116   .     S
C1539  C1540   1.529   .     S
C1539  O2178   1.412   .     S
C1539  H1866   1.114   .     S
C1540  C1541   1.525   .     S
C1540  H1877   1.112   .     S
C1540  H1889   1.111   .     S
C1541  H1900   1.110   .     S
C1541  H1922   1.110   .     S
C1541  H1911   1.111   .     S
C1542  H1822   1.084   .     S
C1543  O2179   1.414   .     S
C1543  H1944   1.117   .     S
C1543  C1544   1.525   .     S
C1543  H2681   1.114   1_455 S
C1544  H1966   1.112   .     S
C1544  H1955   1.110   .     S
C1544  C1545   1.526   .     S
C1545  H1988   1.110   .     S
C1545  H2725   1.111   1_455 S
C1545  H2748   1.111   1_455 S
C1546  H2011   1.111   .     S
C1546  O2180   1.417   .     S
C1546  H2022   1.117   .     S
C1546  C1547   1.532   .     S
C1547  C1548   1.526   .     S
C1547  H2044   1.110   .     S
C1547  H2033   1.112   .     S
C1548  H2059   1.110   .     S
C1548  H2060   1.111   .     S
C1549  H2062   1.111   .     S
C1549  O2181   1.412   .     S
C1549  C1550   1.528   .     S
C1549  H2061   1.116   .     S
C1550  C1551   1.526   .     S
C1550  H2064   1.111   .     S
C1550  H2065   1.109   .     S
C1551  H2068   1.109   .     S
C1551  H2066   1.108   .     S
C1551  H2067   1.111   .     S
C1552  H2069   1.112   .     S
C1552  O2182   1.412   .     S
C1552  H2070   1.116   .     S
C1552  C1554   1.528   .     S
C1553  H1833   1.085   .     S
C1553  C2390   1.394   1_455 S
C1554  H2071   1.112   .     S
C1554  H2072   1.110   .     S
C1554  C1555   1.524   .     S
C1555  H2075   1.108   .     S
C1555  H2073   1.111   .     S
C1555  H2076   1.107   .     S
C1556  H2078   1.113   .     S
C1556  O2183   1.412   .     S
C1556  C1557   1.529   .     S
C1556  H2077   1.116   .     S
C1557  H2080   1.111   .     S
C1557  C1558   1.526   .     S
C1557  H2079   1.112   .     S
C1558  H2081   1.111   .     S
C1558  H2082   1.111   .     S
C1558  H2083   1.110   .     S
C1559  O2184   1.414   .     S
C1559  C1560   1.527   .     S
C1559  H588    1.113   1_565 S
C1559  H590    1.117   1_565 S
C1560  H2088   1.111   .     S
C1560  C1561   1.526   .     S
C1560  H2087   1.110   .     S
C1561  H2090   1.110   .     S
C1561  H593    1.111   1_565 S
C1561  H595    1.111   1_565 S
C1562  C1563   1.531   .     S
C1562  O2186   1.417   .     S
C1562  H2092   1.111   .     S
C1562  H2093   1.117   .     S
C1563  H2095   1.111   .     S
C1563  C1565   1.527   .     S
C1563  H2094   1.111   .     S
C1564  H1844   1.084   .     S
C1564  C1653   1.394   .     A
C1565  H2098   1.110   .     S
C1565  H2097   1.111   .     S
C1565  H2099   1.111   .     S
C1566  O2187   1.412   .     S
C1566  H2101   1.111   .     S
C1566  H2100   1.117   .     S
C1566  C1567   1.528   .     S
C1567  C1568   1.525   .     S
C1567  H2102   1.112   .     S
C1567  H2103   1.110   .     S
C1568  H2106   1.109   .     S
C1568  H2104   1.108   .     S
C1568  H2105   1.111   .     S
C1569  H2108   1.116   .     S
C1569  O2188   1.412   .     S
C1569  C1570   1.529   .     S
C1569  H2109   1.113   .     S
C1570  H2111   1.111   .     S
C1570  H2110   1.112   .     S
C1570  C1571   1.526   .     S
C1571  H2112   1.111   .     S
C1571  H2114   1.111   .     S
C1571  H2113   1.111   .     S
C1572  C1573   1.526   .     S
C1572  H2115   1.113   .     S
C1572  H2116   1.116   .     S
C1572  O2189   1.413   .     S
C1573  H2117   1.110   .     S
C1573  H2119   1.112   .     S
C1573  C1574   1.526   .     S
C1574  H2121   1.110   .     S
C1574  H2122   1.111   .     S
C1574  H2120   1.111   .     S
C1575  C1715   1.444   .     S
C1575  C1722   1.395   .     A
C1575  C2245   1.390   .     S
C1576  O2190   1.417   .     S
C1576  H2123   1.111   .     S
C1576  H2124   1.117   .     S
C1576  C1577   1.532   .     S
C1577  H2125   1.111   .     S
C1577  C1578   1.527   .     S
C1577  H2126   1.111   1_554 S
C1578  H2127   1.111   .     S
C1578  H2128   1.109   .     S
C1578  H1779   1.111   .     S
C1579  H1780   1.116   .     S
C1579  C1580   1.529   .     S
C1579  O2191   1.412   .     S
C1579  H1781   1.113   .     S
C1580  C1581   1.525   .     S
C1580  H1783   1.110   .     S
C1580  H1782   1.112   .     S
C1581  H1786   1.110   .     S
C1581  H1784   1.110   .     S
C1581  H1785   1.111   .     S
C1582  O2192   1.417   .     S
C1582  H1788   1.119   .     S
C1582  H1787   1.112   .     S
C1582  C1583   1.527   .     S
C1583  C1584   1.526   .     S
C1583  H1790   1.107   .     S
C1583  H1791   1.112   .     S
C1584  H1794   1.111   .     S
C1584  H1792   1.111   .     S
C1584  H1793   1.111   .     S
C1585  H1795   1.114   .     S
C1585  O2193   1.414   .     S
C1585  C1587   1.528   .     S
C1585  H1796   1.116   .     S
C1586  C1716   1.447   .     S
C1586  C1608   1.396   .     A
C1586  C2481   1.394   .     S
C1587  H1798   1.111   .     S
C1587  C1588   1.527   .     S
C1587  H1797   1.112   .     S
C1588  H1801   1.111   .     S
C1588  H1802   1.111   .     S
C1588  H1799   1.111   .     S
C1589  O2194   1.412   .     S
C1589  H1803   1.112   .     S
C1589  C1590   1.528   .     S
C1589  H1804   1.115   .     S
C1590  H1805   1.112   .     S
C1590  C1591   1.524   .     S
C1590  H1806   1.111   .     S
C1591  H1807   1.111   .     S
C1591  H1809   1.108   .     S
C1591  H1808   1.108   .     S
C1592  O2195   1.421   .     S
C1592  H1810   1.110   .     S
C1592  H1812   1.110   .     S
C1592  C1593   1.543   .     S
C1593  H1813   1.108   .     S
C1593  C1594   1.524   .     S
C1593  H1814   1.112   .     S
C1594  H1817   1.110   .     S
C1594  H1816   1.110   .     S
C1594  H1815   1.111   .     S
C1595  O2197   1.420   .     S
C1595  H1818   1.111   .     S
C1595  C1596   1.528   .     S
C1595  H1819   1.118   .     S
C1596  H1821   1.111   .     S
C1596  C1598   1.526   .     S
C1597  C1744   1.396   .     A
C1597  C1713   1.447   .     S
C1598  H1823   1.110   .     S
C1598  H1825   1.111   .     S
C1598  H1824   1.111   .     S
C1599  H1827   1.119   .     S
C1599  H1826   1.111   .     S
C1599  O2198   1.421   .     S
C1599  C1600   1.529   .     S
C1600  C1601   1.526   .     S
C1600  H1828   1.109   .     S
C1600  H1829   1.111   .     S
C1601  H1830   1.111   .     S
C1601  H2579   1.110   1_455 S
C1601  H2580   1.111   1_455 S
C1602  C1603   1.525   .     S
C1602  O2199   1.413   .     S
C1602  H1835   1.113   .     S
C1602  H1834   1.117   .     S
C1603  C1604   1.526   .     S
C1603  H1836   1.112   .     S
C1603  H1837   1.109   .     S
C1604  H1840   1.111   .     S
C1604  H1838   1.111   .     S
C1604  H2587   1.109   .     S
C1605  H1841   1.118   .     S
C1605  O2200   1.415   .     S
C1605  H1842   1.111   .     S
C1606  C1607   1.526   .     S
C1606  H1845   1.106   .     S
C1606  H1843   1.111   .     S
C1606  C109    1.524   1_565 S
C1607  H1848   1.111   .     S
C1607  H1846   1.110   .     S
C1607  H1847   1.110   .     S
C1608  H1888   1.084   .     S
C1609  C1714   1.445   .     S
C1609  C1711   1.395   .     A
C1610  C1611   1.531   .     S
C1610  H1849   1.112   .     S
C1610  H1850   1.117   .     S
C1610  O2201   1.418   .     S
C1611  H1852   1.111   .     S
C1611  C1612   1.528   .     S
C1611  H1851   1.107   .     S
C1612  H1853   1.109   .     S
C1612  H1854   1.109   .     S
C1612  H1856   1.111   .     S
C1613  O2202   1.419   .     S
C1613  C1614   1.534   .     S
C1613  H1858   1.116   .     S
C1613  H1857   1.111   .     S
C1614  H1860   1.104   .     S
C1614  C1615   1.524   .     S
C1614  H1859   1.107   .     S
C1615  H1861   1.110   .     S
C1615  H2610   1.110   .     S
C1615  H2611   1.105   .     S
C1616  O2203   1.415   .     S
C1616  H1865   1.113   .     S
C1616  C1617   1.531   .     S
C1616  H1864   1.117   .     S
C1617  H1867   1.111   .     S
C1617  C1618   1.525   .     S
C1617  H1868   1.110   .     S
C1618  H1871   1.111   .     S
C1618  H1869   1.111   .     S
C1618  H2618   1.111   1_455 S
C1619  H1873   1.116   .     S
C1619  O2204   1.417   .     S
C1619  C1621   1.533   .     S
C1619  H1872   1.111   .     S
C1620  C1766   1.395   .     A
C1620  C1719   1.445   .     S
C1621  H1874   1.107   .     S
C1621  H1875   1.105   .     S
C1622  H1879   1.102   .     S
C1622  H1878   1.109   .     S
C1622  C125    1.523   1_565 S
C1622  H380    1.111   1_565 S
C1623  H1880   1.117   .     S
C1623  O2205   1.414   .     S
C1623  H1881   1.113   .     S
C1623  C1624   1.531   .     S
C1624  H1882   1.111   .     S
C1624  C1625   1.526   .     S
C1624  H1883   1.111   .     S
C1625  H1884   1.111   .     S
C1625  H1886   1.111   .     S
C1625  H389    1.111   1_565 S
C1626  C1627   1.547   .     S
C1626  O2206   1.424   .     S
C1626  H1890   1.110   .     S
C1626  H1887   1.111   .     S
C1627  H1892   1.112   .     S
C1627  H1891   1.108   .     S
C1627  C1628   1.523   .     S
C1628  H1894   1.110   .     S
C1628  H1893   1.111   .     S
C1628  H1895   1.109   .     S
C1629  H1897   1.113   .     S
C1629  O2208   1.416   .     S
C1629  C1630   1.527   .     S
C1629  H1896   1.117   .     S
C1630  H1899   1.110   .     S
C1630  C1632   1.526   .     S
C1630  H2646   1.111   .     S
C1631  C1720   1.447   .     S
C1631  C46     1.396   1_565 S
C1632  H1901   1.111   .     S
C1632  H1903   1.111   .     S
C1632  H2650   1.110   .     S
C1633  H1904   1.109   .     S
C1633  O2209   1.421   .     S
C1633  H1905   1.117   .     S
C1633  C1634   1.530   .     S
C1634  H1906   1.108   .     S
C1634  C1635   1.527   .     S
C1634  H1907   1.111   .     S
C1635  H1908   1.111   .     S
C1635  H1909   1.110   .     S
C1635  H414    1.110   1_565 S
C1636  C1637   1.525   .     S
C1636  H1913   1.114   .     S
C1636  H1912   1.117   .     S
C1636  O2210   1.413   .     S
C1637  H1914   1.111   .     S
C1637  H1915   1.109   .     S
C1637  C1638   1.526   .     S
C1638  H1918   1.111   .     S
C1638  H1916   1.111   .     S
C1639  O2211   1.414   .     S
C1639  H1919   1.118   .     S
C1639  C1640   1.523   .     S
C1639  H1920   1.113   .     S
C1640  C2389   1.525   .     S
C1640  H2669   1.111   .     S
C1640  H2671   1.107   .     S
C1641  H1925   1.110   .     S
C1641  H1926   1.111   .     S
C1641  H1924   1.111   .     S
C1641  C2388   1.525   1_455 S
C1642  C1717   1.448   .     S
C1642  C2301   1.394   .     S
C1643  O2212   1.420   .     S
C1643  C1644   1.532   .     S
C1643  H1928   1.117   .     S
C1643  H1927   1.111   .     S
C1644  H1929   1.106   .     S
C1644  H1930   1.111   .     S
C1644  C1645   1.529   .     S
C1645  H1931   1.109   .     S
C1645  H1934   1.110   .     S
C1645  H1932   1.109   .     S
C1646  O2213   1.417   .     S
C1646  H1935   1.113   .     S
C1646  C1647   1.524   .     S
C1646  H1936   1.117   .     S
C1647  C1648   1.525   .     S
C1647  H1937   1.110   .     S
C1647  H1938   1.110   .     S
C1648  H1940   1.110   .     S
C1648  H1941   1.111   .     S
C1648  H1939   1.110   .     S
C1649  H1943   1.117   .     S
C1649  O2214   1.419   .     S
C1649  H1942   1.111   .     S
C1649  C1650   1.534   .     S
C1650  C1651   1.530   .     S
C1650  H1945   1.107   .     S
C1650  H1946   1.111   .     S
C1651  H1947   1.109   .     S
C1651  H1948   1.109   .     S
C1651  H1949   1.110   .     S
C1652  H1950   1.111   .     S
C1652  C1654   1.541   .     S
C1652  O2215   1.419   .     S
C1652  H1951   1.117   .     S
C1653  C1718   1.443   .     S
C1653  C2268   1.390   .     S
C1654  C1655   1.523   .     S
C1654  H1952   1.107   .     S
C1654  H1953   1.104   .     S
C1655  H1956   1.108   .     S
C1655  H1954   1.110   .     S
C1655  H1957   1.106   .     S
C1656  H1959   1.113   .     S
C1656  O2216   1.414   .     S
C1656  H1958   1.117   .     S
C1656  C1657   1.530   .     S
C1657  H1961   1.110   .     S
C1657  H1960   1.111   .     S
C1657  C1658   1.525   .     S
C1658  H1964   1.111   .     S
C1658  H1962   1.111   .     S
C1658  H1963   1.111   .     S
C1659  H1965   1.110   .     S
C1659  C1660   1.544   .     S
C1659  O2217   1.422   .     S
C1659  H1967   1.110   .     S
C1660  C1661   1.524   .     S
C1660  H1969   1.112   .     S
C1660  H1968   1.109   .     S
C1661  H1970   1.111   .     S
C1661  H1972   1.109   .     S
C1661  H1971   1.110   .     S
C1662  C1663   1.530   .     S
C1662  H1973   1.111   .     S
C1662  O2219   1.420   .     S
C1662  H1974   1.118   .     S
C1663  C1665   1.526   .     S
C1663  H1976   1.110   .     S
C1663  H1975   1.108   .     S
C1664  C1774   1.411   .     A
C1664  O2178   1.384   .     S
C1664  C1701   1.407   .     A
C1665  H1980   1.111   .     S
C1665  H1979   1.111   .     S
C1665  H1978   1.110   .     S
C1666  H1982   1.118   .     S
C1666  C1667   1.529   .     S
C1666  H1981   1.110   .     S
C1666  O2220   1.420   .     S
C1667  H1984   1.111   .     S
C1667  C1668   1.526   .     S
C1667  H1983   1.108   .     S
C1668  H1987   1.111   .     S
C1668  H1986   1.110   .     S
C1668  H1985   1.111   .     S
C1669  H1990   1.114   .     S
C1669  O2221   1.413   .     S
C1669  H1989   1.117   .     S
C1669  C1670   1.526   .     S
C1670  H1992   1.110   .     S
C1670  H1991   1.112   .     S
C1670  C1671   1.526   .     S
C1671  H1995   1.111   .     S
C1671  H1993   1.111   .     S
C1671  H1994   1.110   .     S
C1672  O2222   1.420   .     S
C1672  H1996   1.106   .     S
C1672  H1997   1.116   .     S
C1672  C1673   1.535   .     S
C1673  H2001   1.111   .     S
C1673  C1674   1.526   .     S
C1673  H1998   1.108   .     S
C1674  H2003   1.109   .     S
C1674  H2004   1.109   .     S
C1674  H2002   1.111   .     S
C1675  C1699   1.402   .     A
C1675  O2179   1.382   .     S
C1675  C1775   1.408   .     A
C1676  C1677   1.528   .     S
C1676  O2223   1.414   .     S
C1676  H2005   1.116   .     S
C1676  H2006   1.113   .     S
C1677  H2007   1.111   .     S
C1677  H2008   1.111   .     S
C1677  C1678   1.525   .     S
C1678  H2012   1.111   .     S
C1678  H2010   1.111   .     S
C1678  H2009   1.111   .     S
C1679  H2014   1.112   .     S
C1679  O2224   1.415   .     S
C1679  H2013   1.117   .     S
C1679  C1680   1.524   .     S
C1680  C1681   1.525   .     S
C1680  H2016   1.106   .     S
C1680  H2015   1.111   .     S
C1681  H2019   1.111   .     S
C1681  H2017   1.111   .     S
C1681  H2018   1.110   .     S
C1682  H2021   1.114   .     S
C1682  H2020   1.116   .     S
C1682  O2225   1.416   .     S
C1682  C1683   1.528   .     S
C1683  H2023   1.111   .     S
C1683  C1684   1.523   .     S
C1683  H2024   1.107   .     S
C1684  H2026   1.110   .     S
C1684  H2025   1.107   .     S
C1684  H2027   1.110   .     S
C1685  C1687   1.531   .     S
C1685  H2029   1.117   .     S
C1685  H2028   1.111   .     S
C1685  O2226   1.417   .     S
C1686  C1776   1.414   .     A
C1686  C1703   1.403   .     A
C1686  O2180   1.386   .     S
C1687  H2030   1.105   .     S
C1687  H2031   1.104   .     S
C1687  C1688   1.521   .     S
C1688  H2035   1.104   .     S
C1688  H2034   1.108   .     S
C1688  H2032   1.110   .     S
C1689  H2036   1.116   .     S
C1689  O2227   1.414   .     S
C1689  C1690   1.530   .     S
C1689  H2037   1.113   .     S
C1690  H2038   1.112   .     S
C1690  C1691   1.526   .     S
C1690  H2039   1.111   .     S
C1691  H2041   1.111   .     S
C1691  H2040   1.111   .     S
C1691  H2042   1.111   .     S
C1692  H2043   1.111   .     S
C1692  O2228   1.424   .     S
C1692  H2045   1.109   .     S
C1692  C1693   1.544   .     S
C1693  C1694   1.525   .     S
C1693  H2047   1.111   .     S
C1693  H2046   1.108   .     S
C1694  H2048   1.111   .     S
C1694  H2050   1.110   .     S
C1694  H2049   1.109   .     S
C1695  H2052   1.119   .     S
C1695  O2131   1.420   .     S
C1695  H2051   1.111   .     S
C1695  C1696   1.527   .     S
C1696  H2053   1.109   .     S
C1696  C1698   1.526   .     S
C1696  H2054   1.111   .     S
C1697  C1702   1.404   .     A
C1697  O2181   1.384   .     S
C1698  H2056   1.111   .     S
C1698  H2058   1.111   .     S
C1698  H2057   1.110   .     S
C1699  O2182   1.383   .     S
C1700  H1999   1.085   .     S
C1700  C101    1.394   1_565 S
C1701  O2183   1.385   .     S
C1702  O2184   1.382   .     S
C1703  O2186   1.386   .     S
C1704  O2187   1.385   .     S
C1704  C1709   1.405   1_556 S
C1705  O2188   1.385   .     S
C1705  C1708   1.407   1_554 S
C1706  O2189   1.382   .     S
C1706  C1712   1.403   1_556 S
C1707  O2190   1.386   .     S
C1707  C1710   1.404   1_554 S
C1708  O2191   1.384   .     S
C1708  C1705   1.407   1_556 S
C1709  O2192   1.382   .     S
C1709  C1704   1.405   1_554 S
C1710  O2193   1.384   .     S
C1710  C1707   1.404   1_556 S
C1711  H2063   1.084   .     S
C1712  O2194   1.383   .     S
C1712  C1706   1.403   1_554 S
C1713  O2218   1.277   .     A
C1714  O2185   1.278   .     A
C1715  O2132   1.276   .     A
C1715  O2944   1.280   .     S
C1716  O2207   1.277   .     A
C1716  O2881   1.281   .     S
C1717  O2886   1.281   .     A
C1717  O2882   1.279   .     A
C1718  O2887   1.276   .     A
C1718  O2883   1.281   .     A
C1719  O2136   1.277   .     S
C1719  O2140   1.279   .     S
C1720  O641    1.282   1_565 A
C1720  O646    1.276   1_565 A
C1721  O2143   1.280   .     A
C1721  O2171   1.283   .     A
C1722  H2074   1.084   .     S
C1722  C1774   1.399   .     A
C1723  O2144   1.274   .     A
C1723  O2172   1.287   .     A
C1724  O2145   1.282   .     A
C1724  O2169   1.282   .     A
C1725  O2170   1.277   .     A
C1725  O2146   1.280   .     A
C1726  O2176   1.279   .     A
C1726  O2147   1.282   .     A
C1727  O2148   1.285   .     A
C1727  O2177   1.274   .     A
C1728  O2149   1.283   .     A
C1728  O2173   1.282   .     A
C1729  O2175   1.277   .     A
C1729  O2150   1.280   .     A
C1730  O2151   1.283   .     A
C1730  O2162   1.281   .     A
C1731  O2153   1.279   .     A
C1731  O2164   1.278   .     A
C1732  O2160   1.284   .     A
C1732  O2154   1.280   .     A
C1733  H2085   1.085   .     S
C1733  C1775   1.397   .     A
C1733  C2334   1.394   1_455 S
C1734  O2161   1.285   .     A
C1734  O2155   1.276   .     A
C1735  O2156   1.282   .     A
C1735  O2167   1.282   .     A
C1736  O2168   1.277   .     A
C1736  O2157   1.279   .     A
C1737  O2165   1.279   .     A
C1737  O2158   1.282   .     A
C1738  O2159   1.286   .     A
C1738  O2166   1.273   .     A
C1739  O2195   1.387   .     S
C1739  C1756   1.392   .     A
C1740  C1754   1.399   .     A
C1740  O2197   1.385   .     S
C1741  O2198   1.385   .     S
C1741  C1753   1.395   .     A
C1742  O2199   1.383   .     S
C1742  C1752   1.395   .     A
C1743  O2200   1.382   .     S
C1743  C1751   1.398   .     A
C1744  H2096   1.084   .     S
C1744  C1776   1.399   .     A
C1745  C1750   1.393   .     A
C1745  O2201   1.383   .     S
C1746  C1749   1.399   .     A
C1746  O2202   1.388   .     S
C1747  C1748   1.399   .     A
C1747  O2203   1.383   .     S
C1748  O2204   1.388   .     S
C1749  O2205   1.382   .     S
C1750  O2206   1.386   .     S
C1751  O2208   1.385   .     S
C1752  O2209   1.386   .     S
C1753  O2210   1.382   .     S
C1754  O2211   1.382   .     S
C1755  H2107   1.084   .     S
C1755  C113    1.390   1_565 S
C1756  O2212   1.384   .     S
C1757  O2213   1.383   .     S
C1757  C1773   1.396   .     A
C1758  O2214   1.383   .     S
C1758  C1772   1.393   .     A
C1759  C1771   1.400   .     A
C1759  O2215   1.389   .     S
C1760  C1770   1.400   .     A
C1760  O2216   1.383   .     S
C1761  C1769   1.390   .     A
C1761  O2217   1.385   .     S
C1762  C1768   1.398   .     A
C1762  O2219   1.384   .     S
C1763  O2220   1.386   .     S
C1763  C1767   1.398   .     A
C1764  O2221   1.383   .     S
C1764  C1765   1.394   .     A
C1765  O2222   1.384   .     S
C1766  H2118   1.084   .     S
C1767  O2223   1.385   .     S
C1768  O2224   1.382   .     S
C1769  O2225   1.382   .     S
C1770  O2226   1.386   .     S
C1771  O2227   1.382   .     S
C1772  O2228   1.389   .     S
C1773  O2131   1.384   .     S
C1775  C2280   1.416   1_455 S
H1820  C100    1.108   1_565 S
H1831  C2349   1.110   .     S
H1832  C2349   1.111   .     S
H1839  C2352   1.109   1_455 S
H1862  C2363   1.110   1_455 S
H1863  C2363   1.105   1_455 S
H1870  C2366   1.111   .     S
H1898  C2378   1.111   1_455 S
H1902  C2380   1.110   1_455 S
H1917  C142    1.109   1_565 S
H1921  C2388   1.111   1_455 S
H1923  C2388   1.107   1_455 S
H1933  C2291   1.114   .     S
H1977  C2293   1.111   .     S
H2000  C2293   1.111   .     S
H2055  C52     1.111   1_565 S
H2126  C1577   1.111   1_556 S
O2129  Zn2229  1.948   .     S
O2129  Zn2240  1.946   .     S
O2129  Zn2232  1.949   .     S
O2130  Zn2231  1.938   .     S
O2130  C218    1.280   1_565 S
O2132  Zn2234  1.938   .     S
O2133  Zn2233  1.938   .     S
O2133  C2464   1.281   1_455 S
O2134  Zn2243  1.939   .     S
O2134  C2465   1.279   1_455 A
O2135  C2466   1.281   1_455 A
O2135  Zn2242  1.939   .     S
O2136  Zn2237  1.938   .     S
O2137  Zn2229  1.938   .     S
O2138  C2465   1.281   1_455 A
O2138  Zn2239  1.938   .     S
O2139  C2466   1.276   1_455 A
O2139  Zn2238  1.938   .     S
O2140  Zn2241  1.938   .     S
O2141  Zn2235  1.947   .     S
O2141  Zn2237  1.948   .     S
O2141  Zn2241  1.946   .     S
O2142  Zn2240  1.938   .     S
O2143  Zn2232  1.945   .     S
O2144  Zn2231  1.945   .     S
O2145  Zn2234  1.938   .     S
O2146  Zn2233  1.938   .     S
O2147  Zn2236  1.945   .     S
O2148  Zn2235  1.945   .     S
O2149  Zn2230  1.938   .     S
O2150  Zn2244  1.938   .     S
O2151  Zn2231  1.937   .     S
O2152  Zn2242  1.947   .     S
O2152  Zn2230  1.948   .     S
O2152  Zn2982  1.946   1_455 S
O2152  Zn2238  1.949   .     S
O2153  Zn2232  1.937   .     S
O2154  Zn2244  1.945   .     S
O2155  Zn2230  1.945   .     S
O2156  Zn2235  1.938   .     S
O2157  Zn2236  1.938   .     S
O2158  Zn2233  1.945   .     S
O2159  Zn2234  1.945   .     S
O2160  Zn2987  1.945   .     S
O2161  Zn2238  1.945   .     S
O2162  Zn745   1.938   1_565 S
O2163  Zn2992  1.948   1_455 S
O2163  Zn2243  1.947   .     S
O2163  Zn2233  1.946   .     S
O2163  Zn2239  1.949   .     S
O2164  Zn2240  1.938   .     S
O2165  Zn2243  1.945   .     S
O2166  Zn2990  1.945   .     S
O2167  Zn2237  1.938   .     S
O2168  Zn733   1.938   1_565 S
O2169  Zn2986  1.937   .     S
O2170  Zn2239  1.937   .     S
O2171  Zn2229  1.945   .     S
O2172  Zn741   1.945   1_565 S
O2173  Zn2242  1.938   .     S
O2174  Zn2236  1.939   .     S
O2174  C217    1.282   1_565 S
O2175  Zn2991  1.938   .     S
O2176  Zn744   1.945   1_565 S
O2177  Zn2241  1.945   .     S
O2185  Zn2235  1.939   .     S
O2196  Zn2230  1.938   .     S
O2196  C2463   1.280   1_455 S
O2207  Zn2244  1.938   .     S
O2218  Zn2232  1.938   .     S
Zn2231 O645    1.949   1_565 S
Zn2234 O2900   1.946   .     S
Zn2236 O633    1.947   1_565 S
Zn2238 O2917   1.937   1_455 S
Zn2239 O2908   1.945   1_455 S
Zn2242 O2914   1.945   1_455 S
Zn2243 O2923   1.938   1_455 S
Zn2244 O2911   1.948   .     S
C2245  H2525   1.084   .     S
C2245  C2248   1.395   .     A
C2246  C2258   1.397   .     A
C2246  C2379   1.394   .     A
C2246  H2526   1.085   .     S
C2247  C2503   1.395   .     A
C2247  C2445   1.405   .     A
C2247  C786    1.416   1_565 S
C2248  C2447   1.406   .     A
C2249  C2280   1.416   .     A
C2249  C2356   1.399   .     A
C2249  C2449   1.410   .     A
C2250  C2448   1.397   .     A
C2250  C2450   1.408   .     A
C2250  C785    1.416   1_565 S
C2251  C2451   1.413   .     A
C2251  C2459   1.399   .     A
C2251  C2282   1.416   .     A
C2252  C2279   1.396   .     A
C2252  C2452   1.405   .     A
C2252  C2283   1.416   .     A
C2253  C2290   1.398   .     A
C2253  C2453   1.410   .     A
C2254  C2285   1.416   .     A
C2254  C2454   1.409   .     A
C2254  C2301   1.398   .     A
C2255  C2312   1.398   .     A
C2255  C2455   1.412   .     A
C2255  C1538   1.416   1_655 S
C2256  C2456   1.411   .     A
C2256  C2514   1.399   .     A
C2257  H2537   1.084   .     S
C2257  C2390   1.396   .     A
C2257  C2259   1.399   .     A
C2258  C2457   1.408   .     A
C2258  C2284   1.416   .     A
C2259  C2458   1.410   .     A
C2259  C1537   1.416   1_655 S
C2260  C2460   1.407   .     A
C2260  C2286   1.417   .     A
C2260  C2268   1.396   .     A
C2261  C2504   1.413   .     A
C2261  C2506   1.413   .     A
C2261  C2476   1.464   .     S
C2262  C2505   1.401   .     A
C2262  C2502   1.401   .     A
C2262  C2477   1.451   .     S
C2263  C2501   1.409   .     A
C2263  C2508   1.410   .     A
C2263  C2469   1.465   .     S
C2264  C2471   1.462   .     S
C2264  C2500   1.409   .     A
C2264  C2507   1.413   .     A
C2265  C2510   1.411   .     A
C2265  C2499   1.413   .     A
C2265  C2472   1.462   .     S
C2266  C2509   1.407   .     A
C2266  C2473   1.450   .     S
C2266  C2498   1.410   .     A
C2267  C2497   1.411   .     A
C2267  C2512   1.408   .     A
C2267  C2474   1.465   .     S
C2268  H2548   1.083   .     S
C2269  C2511   1.410   .     A
C2269  C2475   1.462   .     S
C2269  C2496   1.410   .     A
C2270  C2485   1.466   .     S
C2270  C2495   1.411   .     A
C2270  C2515   1.411   .     A
C2271  C2486   1.462   .     S
C2271  C2513   1.407   .     A
C2271  C2494   1.412   .     A
C2272  C2517   1.409   .     A
C2272  C2478   1.462   .     S
C2272  C2493   1.412   .     A
C2273  C2479   1.451   .     S
C2273  C2491   1.401   .     A
C2273  C2516   1.400   .     A
C2274  C2490   1.409   .     A
C2274  C2519   1.411   .     A
C2274  C2480   1.466   .     S
C2275  C2482   1.462   .     S
C2275  C2518   1.410   .     A
C2275  C2489   1.408   .     A
C2276  C2521   1.411   .     A
C2276  C2488   1.411   .     A
C2276  C2483   1.461   .     S
C2277  C2520   1.409   .     A
C2277  C2487   1.409   .     A
C2277  C2484   1.449   .     S
C2278  C2280   1.403   .     A
C2278  C2522   1.416   .     A
C2278  C1500   1.417   1_655 S
C2279  H2559   1.085   .     S
C2279  C872    1.391   1_565 S
C2280  C1775   1.416   1_655 S
C2281  C2282   1.402   .     A
C2281  C2524   1.416   .     A
C2283  C760    1.415   1_565 S
C2283  C2284   1.402   1_556 S
C2284  C757    1.415   1_565 S
C2284  C2283   1.402   1_554 S
C2285  C2286   1.403   1_556 S
C2286  C2285   1.403   1_554 S
C2287  H2603   1.116   .     S
C2287  C2288   1.529   .     S
C2287  O2926   1.412   .     S
C2287  H2614   1.114   .     S
C2288  C2289   1.525   .     S
C2288  H2625   1.112   .     S
C2288  H2637   1.111   .     S
C2289  H2648   1.110   .     S
C2289  H2670   1.110   .     S
C2289  H2659   1.111   .     S
C2290  H2570   1.084   .     S
C2291  O2927   1.414   .     S
C2291  H2692   1.117   .     S
C2291  C2292   1.525   .     S
C2292  H2714   1.112   .     S
C2292  H2703   1.110   .     S
C2292  C2293   1.526   .     S
C2293  H2736   1.110   .     S
C2294  H2759   1.111   .     S
C2294  O2928   1.417   .     S
C2294  H2770   1.117   .     S
C2294  C2295   1.532   .     S
C2295  C2296   1.526   .     S
C2295  H2792   1.110   .     S
C2295  H2781   1.112   .     S
C2296  H2807   1.110   .     S
C2296  H2808   1.111   .     S
C2297  H2810   1.111   .     S
C2297  O2929   1.412   .     S
C2297  C2298   1.528   .     S
C2297  H2809   1.116   .     S
C2298  C2299   1.526   .     S
C2298  H2812   1.111   .     S
C2298  H2813   1.109   .     S
C2299  H2816   1.109   .     S
C2299  H2814   1.108   .     S
C2299  H2815   1.111   .     S
C2300  H2817   1.112   .     S
C2300  O2930   1.412   .     S
C2300  H2818   1.116   .     S
C2300  C2302   1.528   .     S
C2301  H2581   1.085   .     S
C2302  H2819   1.112   .     S
C2302  H2820   1.110   .     S
C2302  C2303   1.524   .     S
C2303  H2823   1.108   .     S
C2303  H2821   1.111   .     S
C2303  H2824   1.107   .     S
C2304  H2826   1.113   .     S
C2304  O2931   1.412   .     S
C2304  C2305   1.529   .     S
C2304  H2825   1.116   .     S
C2305  H2828   1.111   .     S
C2305  C2306   1.526   .     S
C2305  H2827   1.112   .     S
C2306  H2829   1.111   .     S
C2306  H2830   1.111   .     S
C2306  H2831   1.110   .     S
C2307  O2932   1.414   .     S
C2307  C2308   1.527   .     S
C2307  H1336   1.113   1_565 S
C2307  H1338   1.117   1_565 S
C2308  H2836   1.111   .     S
C2308  C2309   1.526   .     S
C2308  H2835   1.110   .     S
C2309  H2838   1.110   .     S
C2309  H1341   1.111   1_565 S
C2309  H1343   1.111   1_565 S
C2310  C2311   1.531   .     S
C2310  O2934   1.417   .     S
C2310  H2840   1.111   .     S
C2310  H2841   1.117   .     S
C2311  H2843   1.111   .     S
C2311  C2313   1.527   .     S
C2311  H2842   1.111   .     S
C2312  H2592   1.084   .     S
C2312  C2401   1.394   .     A
C2313  H2846   1.110   .     S
C2313  H2845   1.111   .     S
C2313  H2847   1.111   .     S
C2314  O2935   1.412   .     S
C2314  H2849   1.111   .     S
C2314  H2848   1.117   .     S
C2314  C2315   1.528   .     S
C2315  C2316   1.525   .     S
C2315  H2850   1.112   .     S
C2315  H2851   1.110   .     S
C2316  H2854   1.109   .     S
C2316  H2852   1.108   .     S
C2316  H2853   1.111   .     S
C2317  H2856   1.116   .     S
C2317  O2936   1.412   .     S
C2317  C2318   1.529   .     S
C2317  H2857   1.113   .     S
C2318  H2859   1.111   .     S
C2318  H2858   1.112   .     S
C2318  C2319   1.526   .     S
C2319  H2860   1.111   .     S
C2319  H2862   1.111   .     S
C2319  H2861   1.111   .     S
C2320  C2321   1.526   .     S
C2320  H2863   1.113   .     S
C2320  H2864   1.116   .     S
C2320  O2937   1.413   .     S
C2321  H2865   1.110   .     S
C2321  H2867   1.112   .     S
C2321  C2322   1.526   .     S
C2322  H2869   1.110   .     S
C2322  H2870   1.111   .     S
C2322  H2868   1.111   .     S
C2323  C2463   1.444   .     S
C2323  C2470   1.395   .     A
C2323  C1497   1.390   1_655 S
C2324  O2938   1.417   .     S
C2324  H2871   1.111   .     S
C2324  H2872   1.117   .     S
C2324  C2325   1.532   .     S
C2325  H2873   1.111   .     S
C2325  C2326   1.527   .     S
C2325  H2874   1.111   1_554 S
C2326  H2875   1.111   .     S
C2326  H2876   1.109   .     S
C2326  H2527   1.111   .     S
C2327  H2528   1.116   .     S
C2327  C2328   1.529   .     S
C2327  O2939   1.412   .     S
C2327  H2529   1.113   .     S
C2328  C2329   1.525   .     S
C2328  H2531   1.110   .     S
C2328  H2530   1.112   .     S
C2329  H2534   1.110   .     S
C2329  H2532   1.110   .     S
C2329  H2533   1.111   .     S
C2330  O2940   1.417   .     S
C2330  H2536   1.119   .     S
C2330  H2535   1.112   .     S
C2330  C2331   1.527   .     S
C2331  C2332   1.526   .     S
C2331  H2538   1.107   .     S
C2331  H2539   1.112   .     S
C2332  H2542   1.111   .     S
C2332  H2540   1.111   .     S
C2332  H2541   1.111   .     S
C2333  H2543   1.114   .     S
C2333  O2941   1.414   .     S
C2333  C2335   1.528   .     S
C2333  H2544   1.116   .     S
C2334  C2464   1.447   .     S
C2334  C2356   1.396   .     A
C2334  C1733   1.394   1_655 S
C2335  H2546   1.111   .     S
C2335  C2336   1.527   .     S
C2335  H2545   1.112   .     S
C2336  H2549   1.111   .     S
C2336  H2550   1.111   .     S
C2336  H2547   1.111   .     S
C2337  O2942   1.412   .     S
C2337  H2551   1.112   .     S
C2337  C2338   1.528   .     S
C2337  H2552   1.115   .     S
C2338  H2553   1.112   .     S
C2338  C2339   1.524   .     S
C2338  H2554   1.111   .     S
C2339  H2555   1.111   .     S
C2339  H2557   1.108   .     S
C2339  H2556   1.108   .     S
C2340  O2943   1.421   .     S
C2340  H2558   1.110   .     S
C2340  H2560   1.110   .     S
C2340  C2341   1.543   .     S
C2341  H2561   1.108   .     S
C2341  C2342   1.524   .     S
C2341  H2562   1.112   .     S
C2342  H2565   1.110   .     S
C2342  H2564   1.110   .     S
C2342  H2563   1.111   .     S
C2343  O2945   1.420   .     S
C2343  H2566   1.111   .     S
C2343  C2344   1.528   .     S
C2343  H2567   1.118   .     S
C2344  H2569   1.111   .     S
C2344  C2346   1.526   .     S
C2345  C2492   1.396   .     A
C2345  C2461   1.447   .     S
C2346  H2571   1.110   .     S
C2346  H2573   1.111   .     S
C2346  H2572   1.111   .     S
C2347  H2575   1.119   .     S
C2347  H2574   1.111   .     S
C2347  O2946   1.421   .     S
C2347  C2348   1.529   .     S
C2348  C2349   1.526   .     S
C2348  H2576   1.109   .     S
C2348  H2577   1.111   .     S
C2349  H2578   1.111   .     S
C2350  C2351   1.525   .     S
C2350  O2947   1.413   .     S
C2350  H2583   1.113   .     S
C2350  H2582   1.117   .     S
C2351  C2352   1.526   .     S
C2351  H2584   1.112   .     S
C2351  H2585   1.109   .     S
C2352  H2588   1.111   .     S
C2352  H2586   1.111   .     S
C2352  H1839   1.109   1_655 S
C2353  H2589   1.118   .     S
C2353  O2948   1.415   .     S
C2353  H2590   1.111   .     S
C2354  C2355   1.526   .     S
C2354  H2593   1.106   .     S
C2354  H2591   1.111   .     S
C2354  C857    1.524   1_565 S
C2355  H2596   1.111   .     S
C2355  H2594   1.110   .     S
C2355  H2595   1.110   .     S
C2356  H2636   1.084   .     S
C2357  C2462   1.445   .     S
C2357  C2459   1.395   .     A
C2358  C2359   1.531   .     S
C2358  H2597   1.112   .     S
C2358  H2598   1.117   .     S
C2358  O2949   1.418   .     S
C2359  H2600   1.111   .     S
C2359  C2360   1.528   .     S
C2359  H2599   1.107   .     S
C2360  H2601   1.109   .     S
C2360  H2602   1.109   .     S
C2360  H2604   1.111   .     S
C2361  O2950   1.419   .     S
C2361  C2362   1.534   .     S
C2361  H2606   1.116   .     S
C2361  H2605   1.111   .     S
C2362  H2608   1.104   .     S
C2362  C2363   1.524   .     S
C2362  H2607   1.107   .     S
C2363  H2609   1.110   .     S
C2363  H1862   1.110   1_655 S
C2363  H1863   1.105   1_655 S
C2364  O2951   1.415   .     S
C2364  H2613   1.113   .     S
C2364  C2365   1.531   .     S
C2364  H2612   1.117   .     S
C2365  H2615   1.111   .     S
C2365  C2366   1.525   .     S
C2365  H2616   1.110   .     S
C2366  H2619   1.111   .     S
C2366  H2617   1.111   .     S
C2367  H2621   1.116   .     S
C2367  O2952   1.417   .     S
C2367  C2369   1.533   .     S
C2367  H2620   1.111   .     S
C2368  C2514   1.395   .     A
C2368  C2467   1.445   .     S
C2369  H2622   1.107   .     S
C2369  H2623   1.105   .     S
C2370  H2627   1.102   .     S
C2370  H2626   1.109   .     S
C2370  C873    1.523   1_565 S
C2370  H1128   1.111   1_565 S
C2371  H2628   1.117   .     S
C2371  O2953   1.414   .     S
C2371  H2629   1.113   .     S
C2371  C2372   1.531   .     S
C2372  H2630   1.111   .     S
C2372  C2373   1.526   .     S
C2372  H2631   1.111   .     S
C2373  H2632   1.111   .     S
C2373  H2634   1.111   .     S
C2373  H1137   1.111   1_565 S
C2374  C2375   1.547   .     S
C2374  O2954   1.424   .     S
C2374  H2638   1.110   .     S
C2374  H2635   1.111   .     S
C2375  H2640   1.112   .     S
C2375  H2639   1.108   .     S
C2375  C2376   1.523   .     S
C2376  H2642   1.110   .     S
C2376  H2641   1.111   .     S
C2376  H2643   1.109   .     S
C2377  H2645   1.113   .     S
C2377  O2956   1.416   .     S
C2377  C2378   1.527   .     S
C2377  H2644   1.117   .     S
C2378  H2647   1.110   .     S
C2378  C2380   1.526   .     S
C2378  H1898   1.111   1_655 S
C2379  C2468   1.447   .     S
C2379  C794    1.396   1_565 S
C2380  H2649   1.111   .     S
C2380  H2651   1.111   .     S
C2380  H1902   1.110   1_655 S
C2381  H2652   1.109   .     S
C2381  O2957   1.421   .     S
C2381  H2653   1.117   .     S
C2381  C2382   1.530   .     S
C2382  H2654   1.108   .     S
C2382  C2383   1.527   .     S
C2382  H2655   1.111   .     S
C2383  H2656   1.111   .     S
C2383  H2657   1.110   .     S
C2383  H1162   1.110   1_565 S
C2384  C2385   1.525   .     S
C2384  H2661   1.114   .     S
C2384  H2660   1.117   .     S
C2384  O2958   1.413   .     S
C2385  H2662   1.111   .     S
C2385  H2663   1.109   .     S
C2385  C2386   1.526   .     S
C2386  H2666   1.111   .     S
C2386  H2664   1.111   .     S
C2387  O2959   1.414   .     S
C2387  H2667   1.118   .     S
C2387  C2388   1.523   .     S
C2387  H2668   1.113   .     S
C2388  C1641   1.525   1_655 S
C2388  H1921   1.111   1_655 S
C2388  H1923   1.107   1_655 S
C2389  H2673   1.110   .     S
C2389  H2674   1.111   .     S
C2389  H2672   1.111   .     S
C2390  C2465   1.448   .     S
C2390  C1553   1.394   1_655 S
C2391  O2960   1.420   .     S
C2391  C2392   1.532   .     S
C2391  H2676   1.117   .     S
C2391  H2675   1.111   .     S
C2392  H2677   1.106   .     S
C2392  H2678   1.111   .     S
C2392  C2393   1.529   .     S
C2393  H2679   1.109   .     S
C2393  H2682   1.110   .     S
C2393  H2680   1.109   .     S
C2394  O2961   1.417   .     S
C2394  H2683   1.113   .     S
C2394  C2395   1.524   .     S
C2394  H2684   1.117   .     S
C2395  C2396   1.525   .     S
C2395  H2685   1.110   .     S
C2395  H2686   1.110   .     S
C2396  H2688   1.110   .     S
C2396  H2689   1.111   .     S
C2396  H2687   1.110   .     S
C2397  H2691   1.117   .     S
C2397  O2962   1.419   .     S
C2397  H2690   1.111   .     S
C2397  C2398   1.534   .     S
C2398  C2399   1.530   .     S
C2398  H2693   1.107   .     S
C2398  H2694   1.111   .     S
C2399  H2695   1.109   .     S
C2399  H2696   1.109   .     S
C2399  H2697   1.110   .     S
C2400  H2698   1.111   .     S
C2400  C2402   1.541   .     S
C2400  O2963   1.419   .     S
C2400  H2699   1.117   .     S
C2401  C2466   1.443   .     S
C2401  C1520   1.390   1_655 S
C2402  C2403   1.523   .     S
C2402  H2700   1.107   .     S
C2402  H2701   1.104   .     S
C2403  H2704   1.108   .     S
C2403  H2702   1.110   .     S
C2403  H2705   1.106   .     S
C2404  H2707   1.113   .     S
C2404  O2964   1.414   .     S
C2404  H2706   1.117   .     S
C2404  C2405   1.530   .     S
C2405  H2709   1.110   .     S
C2405  H2708   1.111   .     S
C2405  C2406   1.525   .     S
C2406  H2712   1.111   .     S
C2406  H2710   1.111   .     S
C2406  H2711   1.111   .     S
C2407  H2713   1.110   .     S
C2407  C2408   1.544   .     S
C2407  O2965   1.422   .     S
C2407  H2715   1.110   .     S
C2408  C2409   1.524   .     S
C2408  H2717   1.112   .     S
C2408  H2716   1.109   .     S
C2409  H2718   1.111   .     S
C2409  H2720   1.109   .     S
C2409  H2719   1.110   .     S
C2410  C2411   1.530   .     S
C2410  H2721   1.111   .     S
C2410  O2967   1.420   .     S
C2410  H2722   1.118   .     S
C2411  C2413   1.526   .     S
C2411  H2724   1.110   .     S
C2411  H2723   1.108   .     S
C2412  C2522   1.411   .     A
C2412  O2926   1.384   .     S
C2412  C2449   1.407   .     A
C2413  H2728   1.111   .     S
C2413  H2727   1.111   .     S
C2413  H2726   1.110   .     S
C2414  H2730   1.118   .     S
C2414  C2415   1.529   .     S
C2414  H2729   1.110   .     S
C2414  O2968   1.420   .     S
C2415  H2732   1.111   .     S
C2415  C2416   1.526   .     S
C2415  H2731   1.108   .     S
C2416  H2735   1.111   .     S
C2416  H2734   1.110   .     S
C2416  H2733   1.111   .     S
C2417  H2738   1.114   .     S
C2417  O2969   1.413   .     S
C2417  H2737   1.117   .     S
C2417  C2418   1.526   .     S
C2418  H2740   1.110   .     S
C2418  H2739   1.112   .     S
C2418  C2419   1.526   .     S
C2419  H2743   1.111   .     S
C2419  H2741   1.111   .     S
C2419  H2742   1.110   .     S
C2420  O2970   1.420   .     S
C2420  H2744   1.106   .     S
C2420  H2745   1.116   .     S
C2420  C2421   1.535   .     S
C2421  H2749   1.111   .     S
C2421  C2422   1.526   .     S
C2421  H2746   1.108   .     S
C2422  H2751   1.109   .     S
C2422  H2752   1.109   .     S
C2422  H2750   1.111   .     S
C2423  C2447   1.402   .     A
C2423  O2927   1.382   .     S
C2423  C2523   1.408   .     A
C2424  C2425   1.528   .     S
C2424  O2971   1.414   .     S
C2424  H2753   1.116   .     S
C2424  H2754   1.113   .     S
C2425  H2755   1.111   .     S
C2425  H2756   1.111   .     S
C2425  C2426   1.525   .     S
C2426  H2760   1.111   .     S
C2426  H2758   1.111   .     S
C2426  H2757   1.111   .     S
C2427  H2762   1.112   .     S
C2427  O2972   1.415   .     S
C2427  H2761   1.117   .     S
C2427  C2428   1.524   .     S
C2428  C2429   1.525   .     S
C2428  H2764   1.106   .     S
C2428  H2763   1.111   .     S
C2429  H2767   1.111   .     S
C2429  H2765   1.111   .     S
C2429  H2766   1.110   .     S
C2430  H2769   1.114   .     S
C2430  H2768   1.116   .     S
C2430  O2973   1.416   .     S
C2430  C2431   1.528   .     S
C2431  H2771   1.111   .     S
C2431  C2432   1.523   .     S
C2431  H2772   1.107   .     S
C2432  H2774   1.110   .     S
C2432  H2773   1.107   .     S
C2432  H2775   1.110   .     S
C2433  C2435   1.531   .     S
C2433  H2777   1.117   .     S
C2433  H2776   1.111   .     S
C2433  O2974   1.417   .     S
C2434  C2524   1.414   .     A
C2434  C2451   1.403   .     A
C2434  O2928   1.386   .     S
C2435  H2778   1.105   .     S
C2435  H2779   1.104   .     S
C2435  C2436   1.521   .     S
C2436  H2783   1.104   .     S
C2436  H2782   1.108   .     S
C2436  H2780   1.110   .     S
C2437  H2784   1.116   .     S
C2437  O2975   1.414   .     S
C2437  C2438   1.530   .     S
C2437  H2785   1.113   .     S
C2438  H2786   1.112   .     S
C2438  C2439   1.526   .     S
C2438  H2787   1.111   .     S
C2439  H2789   1.111   .     S
C2439  H2788   1.111   .     S
C2439  H2790   1.111   .     S
C2440  H2791   1.111   .     S
C2440  O2976   1.424   .     S
C2440  H2793   1.109   .     S
C2440  C2441   1.544   .     S
C2441  C2442   1.525   .     S
C2441  H2795   1.111   .     S
C2441  H2794   1.108   .     S
C2442  H2796   1.111   .     S
C2442  H2798   1.110   .     S
C2442  H2797   1.109   .     S
C2443  H2800   1.119   .     S
C2443  O2879   1.420   .     S
C2443  H2799   1.111   .     S
C2443  C2444   1.527   .     S
C2444  H2801   1.109   .     S
C2444  C2446   1.526   .     S
C2444  H2802   1.111   .     S
C2445  C2450   1.404   .     A
C2445  O2929   1.384   .     S
C2446  H2804   1.111   .     S
C2446  H2806   1.111   .     S
C2446  H2805   1.110   .     S
C2447  O2930   1.383   .     S
C2448  H2747   1.085   .     S
C2448  C849    1.394   1_565 S
C2449  O2931   1.385   .     S
C2450  O2932   1.382   .     S
C2451  O2934   1.386   .     S
C2452  O2935   1.385   .     S
C2452  C2457   1.405   1_556 S
C2453  O2936   1.385   .     S
C2453  C2456   1.407   1_554 S
C2454  O2937   1.382   .     S
C2454  C2460   1.403   1_556 S
C2455  O2938   1.386   .     S
C2455  C2458   1.404   1_554 S
C2456  O2939   1.384   .     S
C2456  C2453   1.407   1_556 S
C2457  O2940   1.382   .     S
C2457  C2452   1.405   1_554 S
C2458  O2941   1.384   .     S
C2458  C2455   1.404   1_556 S
C2459  H2811   1.084   .     S
C2460  O2942   1.383   .     S
C2460  C2454   1.403   1_554 S
C2461  O2966   1.277   .     A
C2462  O2933   1.278   .     A
C2463  O2880   1.276   .     A
C2463  O2196   1.280   1_655 S
C2464  O2955   1.277   .     A
C2464  O2133   1.281   1_655 S
C2465  O2138   1.281   1_655 A
C2465  O2134   1.279   1_655 A
C2466  O2139   1.276   1_655 A
C2466  O2135   1.281   1_655 A
C2467  O2884   1.277   .     S
C2467  O2888   1.279   .     S
C2468  O1389   1.282   1_565 A
C2468  O1394   1.276   1_565 A
C2469  O2891   1.280   .     A
C2469  O2919   1.283   .     A
C2470  H2822   1.084   .     S
C2470  C2522   1.399   .     A
C2471  O2892   1.274   .     A
C2471  O2920   1.287   .     A
C2472  O2893   1.282   .     A
C2472  O2917   1.282   .     A
C2473  O2918   1.277   .     A
C2473  O2894   1.280   .     A
C2474  O2924   1.279   .     A
C2474  O2895   1.282   .     A
C2475  O2896   1.285   .     A
C2475  O2925   1.274   .     A
C2476  O2897   1.283   .     A
C2476  O2921   1.282   .     A
C2477  O2923   1.277   .     A
C2477  O2898   1.280   .     A
C2478  O2899   1.283   .     A
C2478  O2910   1.281   .     A
C2479  O2901   1.279   .     A
C2479  O2912   1.278   .     A
C2480  O2908   1.284   .     A
C2480  O2902   1.280   .     A
C2481  H2833   1.085   .     S
C2481  C2523   1.397   .     A
C2482  O2909   1.285   .     A
C2482  O2903   1.276   .     A
C2483  O2904   1.282   .     A
C2483  O2915   1.282   .     A
C2484  O2916   1.277   .     A
C2484  O2905   1.279   .     A
C2485  O2913   1.279   .     A
C2485  O2906   1.282   .     A
C2486  O2907   1.286   .     A
C2486  O2914   1.273   .     A
C2487  O2943   1.387   .     S
C2487  C2504   1.392   .     A
C2488  C2502   1.399   .     A
C2488  O2945   1.385   .     S
C2489  O2946   1.385   .     S
C2489  C2501   1.395   .     A
C2490  O2947   1.383   .     S
C2490  C2500   1.395   .     A
C2491  O2948   1.382   .     S
C2491  C2499   1.398   .     A
C2492  H2844   1.084   .     S
C2492  C2524   1.399   .     A
C2493  C2498   1.393   .     A
C2493  O2949   1.383   .     S
C2494  C2497   1.399   .     A
C2494  O2950   1.388   .     S
C2495  C2496   1.399   .     A
C2495  O2951   1.383   .     S
C2496  O2952   1.388   .     S
C2497  O2953   1.382   .     S
C2498  O2954   1.386   .     S
C2499  O2956   1.385   .     S
C2500  O2957   1.386   .     S
C2501  O2958   1.382   .     S
C2502  O2959   1.382   .     S
C2503  H2855   1.084   .     S
C2503  C861    1.390   1_565 S
C2504  O2960   1.384   .     S
C2505  O2961   1.383   .     S
C2505  C2521   1.396   .     A
C2506  O2962   1.383   .     S
C2506  C2520   1.393   .     A
C2507  C2519   1.400   .     A
C2507  O2963   1.389   .     S
C2508  C2518   1.400   .     A
C2508  O2964   1.383   .     S
C2509  C2517   1.390   .     A
C2509  O2965   1.385   .     S
C2510  C2516   1.398   .     A
C2510  O2967   1.384   .     S
C2511  O2968   1.386   .     S
C2511  C2515   1.398   .     A
C2512  O2969   1.383   .     S
C2512  C2513   1.394   .     A
C2513  O2970   1.384   .     S
C2514  H2866   1.084   .     S
C2515  O2971   1.385   .     S
C2516  O2972   1.382   .     S
C2517  O2973   1.382   .     S
C2518  O2974   1.386   .     S
C2519  O2975   1.382   .     S
C2520  O2976   1.389   .     S
C2521  O2879   1.384   .     S
H2568  C848    1.108   1_565 S
H2579  C1601   1.110   1_655 S
H2580  C1601   1.111   1_655 S
H2618  C1618   1.111   1_655 S
H2665  C890    1.109   1_565 S
H2681  C1543   1.114   1_655 S
H2725  C1545   1.111   1_655 S
H2748  C1545   1.111   1_655 S
H2803  C800    1.111   1_565 S
H2874  C2325   1.111   1_556 S
O2877  Zn2977  1.948   .     S
O2877  Zn2988  1.946   .     S
O2877  Zn2980  1.949   .     S
O2878  Zn2979  1.938   .     S
O2878  C966    1.280   1_565 S
O2880  Zn2982  1.938   .     S
O2881  Zn2981  1.938   .     S
O2882  Zn2991  1.939   .     S
O2883  Zn2990  1.939   .     S
O2884  Zn2985  1.938   .     S
O2885  Zn2977  1.938   .     S
O2886  Zn2987  1.938   .     S
O2887  Zn2986  1.938   .     S
O2888  Zn2989  1.938   .     S
O2889  Zn2983  1.947   .     S
O2889  Zn2985  1.948   .     S
O2889  Zn2989  1.946   .     S
O2890  Zn2988  1.938   .     S
O2891  Zn2980  1.945   .     S
O2892  Zn2979  1.945   .     S
O2893  Zn2982  1.938   .     S
O2894  Zn2981  1.938   .     S
O2895  Zn2984  1.945   .     S
O2896  Zn2983  1.945   .     S
O2897  Zn2978  1.938   .     S
O2898  Zn2992  1.938   .     S
O2899  Zn2979  1.937   .     S
O2900  Zn2990  1.947   .     S
O2900  Zn2978  1.948   .     S
O2900  Zn2986  1.949   .     S
O2901  Zn2980  1.937   .     S
O2902  Zn2992  1.945   .     S
O2903  Zn2978  1.945   .     S
O2904  Zn2983  1.938   .     S
O2905  Zn2984  1.938   .     S
O2906  Zn2981  1.945   .     S
O2907  Zn2982  1.945   .     S
O2908  Zn2239  1.945   1_655 S
O2909  Zn2986  1.945   .     S
O2910  Zn1493  1.938   1_565 S
O2911  Zn2991  1.947   .     S
O2911  Zn2981  1.946   .     S
O2911  Zn2987  1.949   .     S
O2912  Zn2988  1.938   .     S
O2913  Zn2991  1.945   .     S
O2914  Zn2242  1.945   1_655 S
O2915  Zn2985  1.938   .     S
O2916  Zn1481  1.938   1_565 S
O2917  Zn2238  1.937   1_655 S
O2918  Zn2987  1.937   .     S
O2919  Zn2977  1.945   .     S
O2920  Zn1489  1.945   1_565 S
O2921  Zn2990  1.938   .     S
O2922  Zn2984  1.939   .     S
O2922  C965    1.282   1_565 S
O2923  Zn2243  1.938   1_655 S
O2924  Zn1492  1.945   1_565 S
O2925  Zn2989  1.945   .     S
O2933  Zn2983  1.939   .     S
O2944  Zn2978  1.938   .     S
O2955  Zn2992  1.938   .     S
O2966  Zn2980  1.938   .     S
Zn2979 O1393   1.949   1_565 S
Zn2982 O2152   1.946   1_655 S
Zn2984 O1381   1.947   1_565 S
Zn2992 O2163   1.948   1_655 S
