data_str_m1_o10_o18_pcu_sym.147
_audit_creation_date              2020-01-03
_audit_creation_method            'Materials Studio'
_symmetry_space_group_name_H-M    'P1'
_symmetry_Int_Tables_number       1
_symmetry_cell_setting            triclinic
loop_
_symmetry_equiv_pos_as_xyz
  x,y,z
_cell_length_a                    32.5459
_cell_length_b                    32.5086
_cell_length_c                    35.8323
_cell_angle_alpha                 98.3361
_cell_angle_beta                  73.1578
_cell_angle_gamma                 98.6435
loop_
_atom_site_label
_atom_site_type_symbol
_atom_site_fract_x
_atom_site_fract_y
_atom_site_fract_z
_atom_site_U_iso_or_equiv
_atom_site_adp_type
_atom_site_occupancy
C1     C     0.05248   0.15991   0.25871   0.00000  Uiso   1.00
C2     C     0.18426   0.12052   0.46315   0.00000  Uiso   1.00
C3     C     0.20216   0.09735   0.48310   0.00000  Uiso   1.00
C4     C     0.28101   0.17355   0.24122   0.00000  Uiso   1.00
C5     C     0.20075   0.11058   0.02274   0.00000  Uiso   1.00
C6     C     0.18008   0.14666   0.04215   0.00000  Uiso   1.00
C7     C     0.21885   0.08814   0.04382   0.00000  Uiso   1.00
C8     C     0.21582   0.10012   0.08322   0.00000  Uiso   1.00
C9     C     0.17960   0.15913   0.08169   0.00000  Uiso   1.00
C10    C     0.32700   0.17616   0.23764   0.00000  Uiso   1.00
C11    C     0.00710   0.15749   0.26208   0.00000  Uiso   1.00
C12    C     0.11081   0.22766   0.41985   0.00000  Uiso   1.00
C13    C     0.18083   0.32215   0.23821   0.00000  Uiso   1.00
C14    C     0.15140   0.01205   0.26200   0.00000  Uiso   1.00
C15    C     0.15585   0.05611   0.25889   0.00000  Uiso   1.00
C16    C     0.17682   0.27765   0.24138   0.00000  Uiso   1.00
C17    C     0.18815   0.14507   0.14415   0.00000  Uiso   1.00
C18    C     0.14566   0.18794   0.35608   0.00000  Uiso   1.00
C19    C     0.13700   0.19685   0.39891   0.00000  Uiso   1.00
C20    C     0.19628   0.13554   0.10200   0.00000  Uiso   1.00
C21    C     0.10396   0.23618   0.46026   0.00000  Uiso   1.00
C22    C     0.22208   0.05840   0.46085   0.00000  Uiso   1.00
C23    C     0.15557   0.17425   0.41892   0.00000  Uiso   1.00
C24    C     0.19139   0.01854   0.47163   0.00000  Uiso   1.00
C25    C     0.21206   0.31276   0.45036   0.00000  Uiso   1.00
C26    C     0.14755   0.18091   0.45999   0.00000  Uiso   1.00
C27    C     0.12246   0.21342   0.48036   0.00000  Uiso   1.00
C28    C     0.16457   0.15690   0.48115   0.00000  Uiso   1.00
C29    C     0.16032   0.16885   0.02173   0.00000  Uiso   1.00
C30    C     0.13533   0.20189   0.04079   0.00000  Uiso   1.00
C31    C     0.11637   0.22322   0.02051   0.00000  Uiso   1.00
H32    H     0.09715   0.24799   0.03640   0.00000  Uiso   1.00
H33    H     0.09625   0.24566   0.40495   0.00000  Uiso   1.00
H34    H     0.17728   0.15245   0.40152   0.00000  Uiso   1.00
H35    H     0.12846   0.21145   0.07178   0.00000  Uiso   1.00
H36    H     0.18438   0.10799   0.43362   0.00000  Uiso   1.00
H37    H     0.21954   0.31299   0.41811   0.00000  Uiso   1.00
H38    H     0.24226   0.31115   0.45835   0.00000  Uiso   1.00
H39    H     0.18942   0.28447   0.45895   0.00000  Uiso   1.00
H40    H     0.18263   0.01659   0.00371   0.00000  Uiso   1.00
H41    H     0.16115   0.01928   0.46333   0.00000  Uiso   1.00
H42    H     0.22928   0.05948   0.42868   0.00000  Uiso   1.00
H43    H     0.23459   0.06054   0.03068   0.00000  Uiso   1.00
H44    H     0.25386   0.05734   0.46612   0.00000  Uiso   1.00
H45    H     0.01670   0.19333   0.21504   0.00000  Uiso   1.00
H46    H     0.31807   0.14032   0.28499   0.00000  Uiso   1.00
H47    H     0.20800   0.00280   0.21635   0.00000  Uiso   1.00
H48    H     0.12381   0.33217   0.28391   0.00000  Uiso   1.00
H49    H     0.16578   0.18659   0.09806   0.00000  Uiso   1.00
H50    H     0.22834   0.08144   0.09923   0.00000  Uiso   1.00
H51    H     0.08440   0.26081   0.47580   0.00000  Uiso   1.00
O52    O     0.16667   0.16667   0.25000   0.00000  Uiso   1.00
O53    O     0.15693   0.12393   0.16625   0.00000  Uiso   1.00
O54    O     0.12687   0.20646   0.33749   0.00000  Uiso   1.00
O55    O     0.21088   0.17493   0.15877   0.00000  Uiso   1.00
O56    O     0.17198   0.16135   0.33749   0.00000  Uiso   1.00
O57    O     0.17849   0.08101   0.27821   0.00000  Uiso   1.00
O58    O     0.14581   0.26136   0.26767   0.00000  Uiso   1.00
O59    O     0.07452   0.13251   0.23607   0.00000  Uiso   1.00
O60    O     0.26785   0.19179   0.21806   0.00000  Uiso   1.00
O61    O     0.06990   0.18960   0.27820   0.00000  Uiso   1.00
O62    O     0.25440   0.15277   0.26768   0.00000  Uiso   1.00
O63    O     0.13800   0.06903   0.23607   0.00000  Uiso   1.00
O64    O     0.20437   0.25527   0.21806   0.00000  Uiso   1.00
Zn65   Zn    0.19244   0.14090   0.28278   0.00000  Uiso   1.00
Zn66   Zn    0.13459   0.12378   0.22258   0.00000  Uiso   1.00
Zn67   Zn    0.21166   0.19664   0.21188   0.00000  Uiso   1.00
Zn68   Zn    0.12798   0.20535   0.28277   0.00000  Uiso   1.00
C69    C     0.38582   0.15991   0.25871   0.00000  Uiso   1.00
C70    C     0.51760   0.12052   0.46315   0.00000  Uiso   1.00
C71    C     0.53549   0.09735   0.48310   0.00000  Uiso   1.00
C72    C     0.61435   0.17355   0.24122   0.00000  Uiso   1.00
C73    C     0.53408   0.11058   0.02274   0.00000  Uiso   1.00
C74    C     0.51342   0.14666   0.04215   0.00000  Uiso   1.00
C75    C     0.55218   0.08814   0.04382   0.00000  Uiso   1.00
C76    C     0.54915   0.10012   0.08322   0.00000  Uiso   1.00
C77    C     0.51293   0.15913   0.08169   0.00000  Uiso   1.00
C78    C     0.66034   0.17616   0.23764   0.00000  Uiso   1.00
C79    C     0.34043   0.15749   0.26208   0.00000  Uiso   1.00
C80    C     0.44415   0.22766   0.41985   0.00000  Uiso   1.00
C81    C     0.51416   0.32215   0.23821   0.00000  Uiso   1.00
C82    C     0.48474   0.01205   0.26200   0.00000  Uiso   1.00
C83    C     0.48919   0.05611   0.25889   0.00000  Uiso   1.00
C84    C     0.51016   0.27765   0.24138   0.00000  Uiso   1.00
C85    C     0.52148   0.14507   0.14415   0.00000  Uiso   1.00
C86    C     0.47899   0.18794   0.35608   0.00000  Uiso   1.00
C87    C     0.47034   0.19685   0.39891   0.00000  Uiso   1.00
C88    C     0.52961   0.13554   0.10200   0.00000  Uiso   1.00
C89    C     0.43729   0.23618   0.46026   0.00000  Uiso   1.00
C90    C     0.55541   0.05840   0.46085   0.00000  Uiso   1.00
C91    C     0.48890   0.17425   0.41892   0.00000  Uiso   1.00
C92    C     0.52473   0.01854   0.47163   0.00000  Uiso   1.00
C93    C     0.54539   0.31276   0.45036   0.00000  Uiso   1.00
C94    C     0.48088   0.18091   0.45999   0.00000  Uiso   1.00
C95    C     0.45579   0.21342   0.48036   0.00000  Uiso   1.00
C96    C     0.49790   0.15690   0.48115   0.00000  Uiso   1.00
C97    C     0.49365   0.16885   0.02173   0.00000  Uiso   1.00
C98    C     0.46867   0.20189   0.04079   0.00000  Uiso   1.00
C99    C     0.44970   0.22322   0.02051   0.00000  Uiso   1.00
H100   H     0.43048   0.24799   0.03640   0.00000  Uiso   1.00
H101   H     0.42958   0.24566   0.40495   0.00000  Uiso   1.00
H102   H     0.51061   0.15245   0.40152   0.00000  Uiso   1.00
H103   H     0.46179   0.21145   0.07178   0.00000  Uiso   1.00
H104   H     0.51771   0.10799   0.43362   0.00000  Uiso   1.00
H105   H     0.55287   0.31299   0.41811   0.00000  Uiso   1.00
H106   H     0.57559   0.31115   0.45835   0.00000  Uiso   1.00
H107   H     0.52275   0.28447   0.45895   0.00000  Uiso   1.00
H108   H     0.51596   0.01659   0.00371   0.00000  Uiso   1.00
H109   H     0.49448   0.01928   0.46333   0.00000  Uiso   1.00
H110   H     0.56261   0.05948   0.42868   0.00000  Uiso   1.00
H111   H     0.56793   0.06054   0.03068   0.00000  Uiso   1.00
H112   H     0.58719   0.05734   0.46612   0.00000  Uiso   1.00
H113   H     0.35004   0.19333   0.21504   0.00000  Uiso   1.00
H114   H     0.65140   0.14032   0.28499   0.00000  Uiso   1.00
H115   H     0.54134   0.00280   0.21635   0.00000  Uiso   1.00
H116   H     0.45714   0.33217   0.28391   0.00000  Uiso   1.00
H117   H     0.49911   0.18659   0.09806   0.00000  Uiso   1.00
H118   H     0.56167   0.08144   0.09923   0.00000  Uiso   1.00
H119   H     0.41774   0.26081   0.47580   0.00000  Uiso   1.00
O120   O     0.50000   0.16667   0.25000   0.00000  Uiso   1.00
O121   O     0.49027   0.12393   0.16625   0.00000  Uiso   1.00
O122   O     0.46020   0.20646   0.33749   0.00000  Uiso   1.00
O123   O     0.54421   0.17493   0.15877   0.00000  Uiso   1.00
O124   O     0.50532   0.16135   0.33749   0.00000  Uiso   1.00
O125   O     0.51182   0.08101   0.27821   0.00000  Uiso   1.00
O126   O     0.47914   0.26136   0.26767   0.00000  Uiso   1.00
O127   O     0.40785   0.13251   0.23607   0.00000  Uiso   1.00
O128   O     0.60119   0.19179   0.21806   0.00000  Uiso   1.00
O129   O     0.40323   0.18960   0.27820   0.00000  Uiso   1.00
O130   O     0.58773   0.15277   0.26768   0.00000  Uiso   1.00
O131   O     0.47133   0.06903   0.23607   0.00000  Uiso   1.00
O132   O     0.53771   0.25527   0.21806   0.00000  Uiso   1.00
Zn133  Zn    0.52577   0.14090   0.28278   0.00000  Uiso   1.00
Zn134  Zn    0.46792   0.12378   0.22258   0.00000  Uiso   1.00
Zn135  Zn    0.54500   0.19664   0.21188   0.00000  Uiso   1.00
Zn136  Zn    0.46131   0.20535   0.28277   0.00000  Uiso   1.00
C137   C     0.71915   0.15991   0.25871   0.00000  Uiso   1.00
C138   C     0.85093   0.12052   0.46315   0.00000  Uiso   1.00
C139   C     0.86883   0.09735   0.48310   0.00000  Uiso   1.00
C140   C     0.94768   0.17355   0.24122   0.00000  Uiso   1.00
C141   C     0.86742   0.11058   0.02274   0.00000  Uiso   1.00
C142   C     0.84675   0.14666   0.04215   0.00000  Uiso   1.00
C143   C     0.88551   0.08814   0.04382   0.00000  Uiso   1.00
C144   C     0.88249   0.10012   0.08322   0.00000  Uiso   1.00
C145   C     0.84626   0.15913   0.08169   0.00000  Uiso   1.00
C146   C     0.99367   0.17616   0.23764   0.00000  Uiso   1.00
C147   C     0.67377   0.15749   0.26208   0.00000  Uiso   1.00
C148   C     0.77748   0.22766   0.41985   0.00000  Uiso   1.00
C149   C     0.84750   0.32215   0.23821   0.00000  Uiso   1.00
C150   C     0.81807   0.01205   0.26200   0.00000  Uiso   1.00
C151   C     0.82252   0.05611   0.25889   0.00000  Uiso   1.00
C152   C     0.84349   0.27765   0.24138   0.00000  Uiso   1.00
C153   C     0.85482   0.14507   0.14415   0.00000  Uiso   1.00
C154   C     0.81233   0.18794   0.35608   0.00000  Uiso   1.00
C155   C     0.80367   0.19685   0.39891   0.00000  Uiso   1.00
C156   C     0.86295   0.13554   0.10200   0.00000  Uiso   1.00
C157   C     0.77062   0.23618   0.46026   0.00000  Uiso   1.00
C158   C     0.88874   0.05840   0.46085   0.00000  Uiso   1.00
C159   C     0.82224   0.17425   0.41892   0.00000  Uiso   1.00
C160   C     0.85806   0.01854   0.47163   0.00000  Uiso   1.00
C161   C     0.87872   0.31276   0.45036   0.00000  Uiso   1.00
C162   C     0.81422   0.18091   0.45999   0.00000  Uiso   1.00
C163   C     0.78913   0.21342   0.48036   0.00000  Uiso   1.00
C164   C     0.83124   0.15690   0.48115   0.00000  Uiso   1.00
C165   C     0.82699   0.16885   0.02173   0.00000  Uiso   1.00
C166   C     0.80200   0.20189   0.04079   0.00000  Uiso   1.00
C167   C     0.78303   0.22322   0.02051   0.00000  Uiso   1.00
H168   H     0.76381   0.24799   0.03640   0.00000  Uiso   1.00
H169   H     0.76291   0.24566   0.40495   0.00000  Uiso   1.00
H170   H     0.84394   0.15245   0.40152   0.00000  Uiso   1.00
H171   H     0.79513   0.21145   0.07178   0.00000  Uiso   1.00
H172   H     0.85104   0.10799   0.43362   0.00000  Uiso   1.00
H173   H     0.88620   0.31299   0.41811   0.00000  Uiso   1.00
H174   H     0.90893   0.31115   0.45835   0.00000  Uiso   1.00
H175   H     0.85608   0.28447   0.45895   0.00000  Uiso   1.00
H176   H     0.84929   0.01659   0.00371   0.00000  Uiso   1.00
H177   H     0.82781   0.01928   0.46333   0.00000  Uiso   1.00
H178   H     0.89594   0.05948   0.42868   0.00000  Uiso   1.00
H179   H     0.90126   0.06054   0.03068   0.00000  Uiso   1.00
H180   H     0.92053   0.05734   0.46612   0.00000  Uiso   1.00
H181   H     0.68337   0.19333   0.21504   0.00000  Uiso   1.00
H182   H     0.98473   0.14032   0.28499   0.00000  Uiso   1.00
H183   H     0.87467   0.00280   0.21635   0.00000  Uiso   1.00
H184   H     0.79048   0.33217   0.28391   0.00000  Uiso   1.00
H185   H     0.83245   0.18659   0.09806   0.00000  Uiso   1.00
H186   H     0.89500   0.08144   0.09923   0.00000  Uiso   1.00
H187   H     0.75107   0.26081   0.47580   0.00000  Uiso   1.00
O188   O     0.83333   0.16667   0.25000   0.00000  Uiso   1.00
O189   O     0.82360   0.12393   0.16625   0.00000  Uiso   1.00
O190   O     0.79354   0.20646   0.33749   0.00000  Uiso   1.00
O191   O     0.87755   0.17493   0.15877   0.00000  Uiso   1.00
O192   O     0.83865   0.16135   0.33749   0.00000  Uiso   1.00
O193   O     0.84515   0.08101   0.27821   0.00000  Uiso   1.00
O194   O     0.81247   0.26136   0.26767   0.00000  Uiso   1.00
O195   O     0.74119   0.13251   0.23607   0.00000  Uiso   1.00
O196   O     0.93452   0.19179   0.21806   0.00000  Uiso   1.00
O197   O     0.73656   0.18960   0.27820   0.00000  Uiso   1.00
O198   O     0.92106   0.15277   0.26768   0.00000  Uiso   1.00
O199   O     0.80467   0.06903   0.23607   0.00000  Uiso   1.00
O200   O     0.87104   0.25527   0.21806   0.00000  Uiso   1.00
Zn201  Zn    0.85910   0.14090   0.28278   0.00000  Uiso   1.00
Zn202  Zn    0.80125   0.12378   0.22258   0.00000  Uiso   1.00
Zn203  Zn    0.87833   0.19664   0.21188   0.00000  Uiso   1.00
Zn204  Zn    0.79465   0.20535   0.28277   0.00000  Uiso   1.00
C205   C     0.05248   0.49324   0.25871   0.00000  Uiso   1.00
C206   C     0.18426   0.45386   0.46315   0.00000  Uiso   1.00
C207   C     0.20216   0.43069   0.48310   0.00000  Uiso   1.00
C208   C     0.28101   0.50688   0.24122   0.00000  Uiso   1.00
C209   C     0.20075   0.44391   0.02274   0.00000  Uiso   1.00
C210   C     0.18008   0.48000   0.04215   0.00000  Uiso   1.00
C211   C     0.21885   0.42147   0.04382   0.00000  Uiso   1.00
C212   C     0.21582   0.43345   0.08322   0.00000  Uiso   1.00
C213   C     0.17960   0.49246   0.08169   0.00000  Uiso   1.00
C214   C     0.32700   0.50950   0.23764   0.00000  Uiso   1.00
C215   C     0.00710   0.49083   0.26208   0.00000  Uiso   1.00
C216   C     0.11081   0.56099   0.41985   0.00000  Uiso   1.00
C217   C     0.18083   0.65548   0.23821   0.00000  Uiso   1.00
C218   C     0.15140   0.34538   0.26200   0.00000  Uiso   1.00
C219   C     0.15585   0.38945   0.25889   0.00000  Uiso   1.00
C220   C     0.17682   0.61098   0.24138   0.00000  Uiso   1.00
C221   C     0.18815   0.47841   0.14415   0.00000  Uiso   1.00
C222   C     0.14566   0.52127   0.35608   0.00000  Uiso   1.00
C223   C     0.13700   0.53018   0.39891   0.00000  Uiso   1.00
C224   C     0.19628   0.46888   0.10200   0.00000  Uiso   1.00
C225   C     0.10396   0.56951   0.46026   0.00000  Uiso   1.00
C226   C     0.22208   0.39174   0.46085   0.00000  Uiso   1.00
C227   C     0.15557   0.50758   0.41892   0.00000  Uiso   1.00
C228   C     0.19139   0.35188   0.47163   0.00000  Uiso   1.00
C229   C     0.21206   0.64610   0.45036   0.00000  Uiso   1.00
C230   C     0.14755   0.51424   0.45999   0.00000  Uiso   1.00
C231   C     0.12246   0.54676   0.48036   0.00000  Uiso   1.00
C232   C     0.16457   0.49023   0.48115   0.00000  Uiso   1.00
C233   C     0.16032   0.50218   0.02173   0.00000  Uiso   1.00
C234   C     0.13533   0.53522   0.04079   0.00000  Uiso   1.00
C235   C     0.11637   0.55655   0.02051   0.00000  Uiso   1.00
H236   H     0.09715   0.58132   0.03640   0.00000  Uiso   1.00
H237   H     0.09625   0.57899   0.40495   0.00000  Uiso   1.00
H238   H     0.17728   0.48578   0.40152   0.00000  Uiso   1.00
H239   H     0.12846   0.54479   0.07178   0.00000  Uiso   1.00
H240   H     0.18438   0.44132   0.43362   0.00000  Uiso   1.00
H241   H     0.21954   0.64633   0.41811   0.00000  Uiso   1.00
H242   H     0.24226   0.64448   0.45835   0.00000  Uiso   1.00
H243   H     0.18942   0.61781   0.45895   0.00000  Uiso   1.00
H244   H     0.18263   0.34992   0.00371   0.00000  Uiso   1.00
H245   H     0.16115   0.35261   0.46333   0.00000  Uiso   1.00
H246   H     0.22928   0.39282   0.42868   0.00000  Uiso   1.00
H247   H     0.23459   0.39387   0.03068   0.00000  Uiso   1.00
H248   H     0.25386   0.39067   0.46612   0.00000  Uiso   1.00
H249   H     0.01670   0.52666   0.21504   0.00000  Uiso   1.00
H250   H     0.31807   0.47366   0.28499   0.00000  Uiso   1.00
H251   H     0.20800   0.33613   0.21635   0.00000  Uiso   1.00
H252   H     0.12381   0.66551   0.28391   0.00000  Uiso   1.00
H253   H     0.16578   0.51992   0.09806   0.00000  Uiso   1.00
H254   H     0.22834   0.41478   0.09923   0.00000  Uiso   1.00
H255   H     0.08440   0.59415   0.47580   0.00000  Uiso   1.00
O256   O     0.16667   0.50000   0.25000   0.00000  Uiso   1.00
O257   O     0.15693   0.45726   0.16625   0.00000  Uiso   1.00
O258   O     0.12687   0.53979   0.33749   0.00000  Uiso   1.00
O259   O     0.21088   0.50826   0.15877   0.00000  Uiso   1.00
O260   O     0.17198   0.49468   0.33749   0.00000  Uiso   1.00
O261   O     0.17849   0.41434   0.27821   0.00000  Uiso   1.00
O262   O     0.14581   0.59469   0.26767   0.00000  Uiso   1.00
O263   O     0.07452   0.46584   0.23607   0.00000  Uiso   1.00
O264   O     0.26785   0.52512   0.21806   0.00000  Uiso   1.00
O265   O     0.06990   0.52293   0.27820   0.00000  Uiso   1.00
O266   O     0.25440   0.48610   0.26768   0.00000  Uiso   1.00
O267   O     0.13800   0.40236   0.23607   0.00000  Uiso   1.00
O268   O     0.20437   0.58860   0.21806   0.00000  Uiso   1.00
Zn269  Zn    0.19244   0.47423   0.28278   0.00000  Uiso   1.00
Zn270  Zn    0.13459   0.45711   0.22258   0.00000  Uiso   1.00
Zn271  Zn    0.21166   0.52997   0.21188   0.00000  Uiso   1.00
Zn272  Zn    0.12798   0.53868   0.28277   0.00000  Uiso   1.00
C273   C     0.38582   0.49324   0.25871   0.00000  Uiso   1.00
C274   C     0.51760   0.45386   0.46315   0.00000  Uiso   1.00
C275   C     0.53549   0.43069   0.48310   0.00000  Uiso   1.00
C276   C     0.61435   0.50688   0.24122   0.00000  Uiso   1.00
C277   C     0.53408   0.44391   0.02274   0.00000  Uiso   1.00
C278   C     0.51342   0.48000   0.04215   0.00000  Uiso   1.00
C279   C     0.55218   0.42147   0.04382   0.00000  Uiso   1.00
C280   C     0.54915   0.43345   0.08322   0.00000  Uiso   1.00
C281   C     0.51293   0.49246   0.08169   0.00000  Uiso   1.00
C282   C     0.66034   0.50950   0.23764   0.00000  Uiso   1.00
C283   C     0.34043   0.49083   0.26208   0.00000  Uiso   1.00
C284   C     0.44415   0.56099   0.41985   0.00000  Uiso   1.00
C285   C     0.51416   0.65548   0.23821   0.00000  Uiso   1.00
C286   C     0.48474   0.34538   0.26200   0.00000  Uiso   1.00
C287   C     0.48919   0.38945   0.25889   0.00000  Uiso   1.00
C288   C     0.51016   0.61098   0.24138   0.00000  Uiso   1.00
C289   C     0.52148   0.47841   0.14415   0.00000  Uiso   1.00
C290   C     0.47899   0.52127   0.35608   0.00000  Uiso   1.00
C291   C     0.47034   0.53018   0.39891   0.00000  Uiso   1.00
C292   C     0.52961   0.46888   0.10200   0.00000  Uiso   1.00
C293   C     0.43729   0.56951   0.46026   0.00000  Uiso   1.00
C294   C     0.55541   0.39174   0.46085   0.00000  Uiso   1.00
C295   C     0.48890   0.50758   0.41892   0.00000  Uiso   1.00
C296   C     0.52473   0.35188   0.47163   0.00000  Uiso   1.00
C297   C     0.54539   0.64610   0.45036   0.00000  Uiso   1.00
C298   C     0.48088   0.51424   0.45999   0.00000  Uiso   1.00
C299   C     0.45579   0.54676   0.48036   0.00000  Uiso   1.00
C300   C     0.49790   0.49023   0.48115   0.00000  Uiso   1.00
C301   C     0.49365   0.50218   0.02173   0.00000  Uiso   1.00
C302   C     0.46867   0.53522   0.04079   0.00000  Uiso   1.00
C303   C     0.44970   0.55655   0.02051   0.00000  Uiso   1.00
H304   H     0.43048   0.58132   0.03640   0.00000  Uiso   1.00
H305   H     0.42958   0.57899   0.40495   0.00000  Uiso   1.00
H306   H     0.51061   0.48578   0.40152   0.00000  Uiso   1.00
H307   H     0.46179   0.54479   0.07178   0.00000  Uiso   1.00
H308   H     0.51771   0.44132   0.43362   0.00000  Uiso   1.00
H309   H     0.55287   0.64633   0.41811   0.00000  Uiso   1.00
H310   H     0.57559   0.64448   0.45835   0.00000  Uiso   1.00
H311   H     0.52275   0.61781   0.45895   0.00000  Uiso   1.00
H312   H     0.51596   0.34992   0.00371   0.00000  Uiso   1.00
H313   H     0.49448   0.35261   0.46333   0.00000  Uiso   1.00
H314   H     0.56261   0.39282   0.42868   0.00000  Uiso   1.00
H315   H     0.56793   0.39387   0.03068   0.00000  Uiso   1.00
H316   H     0.58719   0.39067   0.46612   0.00000  Uiso   1.00
H317   H     0.35004   0.52666   0.21504   0.00000  Uiso   1.00
H318   H     0.65140   0.47366   0.28499   0.00000  Uiso   1.00
H319   H     0.54134   0.33613   0.21635   0.00000  Uiso   1.00
H320   H     0.45714   0.66551   0.28391   0.00000  Uiso   1.00
H321   H     0.49911   0.51992   0.09806   0.00000  Uiso   1.00
H322   H     0.56167   0.41478   0.09923   0.00000  Uiso   1.00
H323   H     0.41774   0.59415   0.47580   0.00000  Uiso   1.00
O324   O     0.50000   0.50000   0.25000   0.00000  Uiso   1.00
O325   O     0.49027   0.45726   0.16625   0.00000  Uiso   1.00
O326   O     0.46020   0.53979   0.33749   0.00000  Uiso   1.00
O327   O     0.54421   0.50826   0.15877   0.00000  Uiso   1.00
O328   O     0.50532   0.49468   0.33749   0.00000  Uiso   1.00
O329   O     0.51182   0.41434   0.27821   0.00000  Uiso   1.00
O330   O     0.47914   0.59469   0.26767   0.00000  Uiso   1.00
O331   O     0.40785   0.46584   0.23607   0.00000  Uiso   1.00
O332   O     0.60119   0.52512   0.21806   0.00000  Uiso   1.00
O333   O     0.40323   0.52293   0.27820   0.00000  Uiso   1.00
O334   O     0.58773   0.48610   0.26768   0.00000  Uiso   1.00
O335   O     0.47133   0.40236   0.23607   0.00000  Uiso   1.00
O336   O     0.53771   0.58860   0.21806   0.00000  Uiso   1.00
Zn337  Zn    0.52577   0.47423   0.28278   0.00000  Uiso   1.00
Zn338  Zn    0.46792   0.45711   0.22258   0.00000  Uiso   1.00
Zn339  Zn    0.54500   0.52997   0.21188   0.00000  Uiso   1.00
Zn340  Zn    0.46131   0.53868   0.28277   0.00000  Uiso   1.00
C341   C     0.71915   0.49324   0.25871   0.00000  Uiso   1.00
C342   C     0.85093   0.45386   0.46315   0.00000  Uiso   1.00
C343   C     0.86883   0.43069   0.48310   0.00000  Uiso   1.00
C344   C     0.94768   0.50688   0.24122   0.00000  Uiso   1.00
C345   C     0.86742   0.44391   0.02274   0.00000  Uiso   1.00
C346   C     0.84675   0.48000   0.04215   0.00000  Uiso   1.00
C347   C     0.88551   0.42147   0.04382   0.00000  Uiso   1.00
C348   C     0.88249   0.43345   0.08322   0.00000  Uiso   1.00
C349   C     0.84626   0.49246   0.08169   0.00000  Uiso   1.00
C350   C     0.99367   0.50950   0.23764   0.00000  Uiso   1.00
C351   C     0.67377   0.49083   0.26208   0.00000  Uiso   1.00
C352   C     0.77748   0.56099   0.41985   0.00000  Uiso   1.00
C353   C     0.84750   0.65548   0.23821   0.00000  Uiso   1.00
C354   C     0.81807   0.34538   0.26200   0.00000  Uiso   1.00
C355   C     0.82252   0.38945   0.25889   0.00000  Uiso   1.00
C356   C     0.84349   0.61098   0.24138   0.00000  Uiso   1.00
C357   C     0.85482   0.47841   0.14415   0.00000  Uiso   1.00
C358   C     0.81233   0.52127   0.35608   0.00000  Uiso   1.00
C359   C     0.80367   0.53018   0.39891   0.00000  Uiso   1.00
C360   C     0.86295   0.46888   0.10200   0.00000  Uiso   1.00
C361   C     0.77062   0.56951   0.46026   0.00000  Uiso   1.00
C362   C     0.88874   0.39174   0.46085   0.00000  Uiso   1.00
C363   C     0.82224   0.50758   0.41892   0.00000  Uiso   1.00
C364   C     0.85806   0.35188   0.47163   0.00000  Uiso   1.00
C365   C     0.87872   0.64610   0.45036   0.00000  Uiso   1.00
C366   C     0.81422   0.51424   0.45999   0.00000  Uiso   1.00
C367   C     0.78913   0.54676   0.48036   0.00000  Uiso   1.00
C368   C     0.83124   0.49023   0.48115   0.00000  Uiso   1.00
C369   C     0.82699   0.50218   0.02173   0.00000  Uiso   1.00
C370   C     0.80200   0.53522   0.04079   0.00000  Uiso   1.00
C371   C     0.78303   0.55655   0.02051   0.00000  Uiso   1.00
H372   H     0.76381   0.58132   0.03640   0.00000  Uiso   1.00
H373   H     0.76291   0.57899   0.40495   0.00000  Uiso   1.00
H374   H     0.84394   0.48578   0.40152   0.00000  Uiso   1.00
H375   H     0.79513   0.54479   0.07178   0.00000  Uiso   1.00
H376   H     0.85104   0.44132   0.43362   0.00000  Uiso   1.00
H377   H     0.88620   0.64633   0.41811   0.00000  Uiso   1.00
H378   H     0.90893   0.64448   0.45835   0.00000  Uiso   1.00
H379   H     0.85608   0.61781   0.45895   0.00000  Uiso   1.00
H380   H     0.84929   0.34992   0.00371   0.00000  Uiso   1.00
H381   H     0.82781   0.35261   0.46333   0.00000  Uiso   1.00
H382   H     0.89594   0.39282   0.42868   0.00000  Uiso   1.00
H383   H     0.90126   0.39387   0.03068   0.00000  Uiso   1.00
H384   H     0.92053   0.39067   0.46612   0.00000  Uiso   1.00
H385   H     0.68337   0.52666   0.21504   0.00000  Uiso   1.00
H386   H     0.98473   0.47366   0.28499   0.00000  Uiso   1.00
H387   H     0.87467   0.33613   0.21635   0.00000  Uiso   1.00
H388   H     0.79048   0.66551   0.28391   0.00000  Uiso   1.00
H389   H     0.83245   0.51992   0.09806   0.00000  Uiso   1.00
H390   H     0.89500   0.41478   0.09923   0.00000  Uiso   1.00
H391   H     0.75107   0.59415   0.47580   0.00000  Uiso   1.00
O392   O     0.83333   0.50000   0.25000   0.00000  Uiso   1.00
O393   O     0.82360   0.45726   0.16625   0.00000  Uiso   1.00
O394   O     0.79354   0.53979   0.33749   0.00000  Uiso   1.00
O395   O     0.87755   0.50826   0.15877   0.00000  Uiso   1.00
O396   O     0.83865   0.49468   0.33749   0.00000  Uiso   1.00
O397   O     0.84515   0.41434   0.27821   0.00000  Uiso   1.00
O398   O     0.81247   0.59469   0.26767   0.00000  Uiso   1.00
O399   O     0.74119   0.46584   0.23607   0.00000  Uiso   1.00
O400   O     0.93452   0.52512   0.21806   0.00000  Uiso   1.00
O401   O     0.73656   0.52293   0.27820   0.00000  Uiso   1.00
O402   O     0.92106   0.48610   0.26768   0.00000  Uiso   1.00
O403   O     0.80467   0.40236   0.23607   0.00000  Uiso   1.00
O404   O     0.87104   0.58860   0.21806   0.00000  Uiso   1.00
Zn405  Zn    0.85910   0.47423   0.28278   0.00000  Uiso   1.00
Zn406  Zn    0.80125   0.45711   0.22258   0.00000  Uiso   1.00
Zn407  Zn    0.87833   0.52997   0.21188   0.00000  Uiso   1.00
Zn408  Zn    0.79465   0.53868   0.28277   0.00000  Uiso   1.00
C409   C     0.05248   0.82657   0.25871   0.00000  Uiso   1.00
C410   C     0.18426   0.78719   0.46315   0.00000  Uiso   1.00
C411   C     0.20216   0.76402   0.48310   0.00000  Uiso   1.00
C412   C     0.28101   0.84022   0.24122   0.00000  Uiso   1.00
C413   C     0.20075   0.77725   0.02274   0.00000  Uiso   1.00
C414   C     0.18008   0.81333   0.04215   0.00000  Uiso   1.00
C415   C     0.21885   0.75481   0.04382   0.00000  Uiso   1.00
C416   C     0.21582   0.76679   0.08322   0.00000  Uiso   1.00
C417   C     0.17960   0.82580   0.08169   0.00000  Uiso   1.00
C418   C     0.32700   0.84283   0.23764   0.00000  Uiso   1.00
C419   C     0.00710   0.82416   0.26208   0.00000  Uiso   1.00
C420   C     0.11081   0.89433   0.41985   0.00000  Uiso   1.00
C421   C     0.18083   0.98881   0.23821   0.00000  Uiso   1.00
C422   C     0.15140   0.67872   0.26200   0.00000  Uiso   1.00
C423   C     0.15585   0.72278   0.25889   0.00000  Uiso   1.00
C424   C     0.17682   0.94431   0.24138   0.00000  Uiso   1.00
C425   C     0.18815   0.81174   0.14415   0.00000  Uiso   1.00
C426   C     0.14566   0.85461   0.35608   0.00000  Uiso   1.00
C427   C     0.13700   0.86352   0.39891   0.00000  Uiso   1.00
C428   C     0.19628   0.80221   0.10200   0.00000  Uiso   1.00
C429   C     0.10396   0.90285   0.46026   0.00000  Uiso   1.00
C430   C     0.22208   0.72507   0.46085   0.00000  Uiso   1.00
C431   C     0.15557   0.84091   0.41892   0.00000  Uiso   1.00
C432   C     0.19139   0.68521   0.47163   0.00000  Uiso   1.00
C433   C     0.21206   0.97943   0.45036   0.00000  Uiso   1.00
C434   C     0.14755   0.84757   0.45999   0.00000  Uiso   1.00
C435   C     0.12246   0.88009   0.48036   0.00000  Uiso   1.00
C436   C     0.16457   0.82356   0.48115   0.00000  Uiso   1.00
C437   C     0.16032   0.83552   0.02173   0.00000  Uiso   1.00
C438   C     0.13533   0.86856   0.04079   0.00000  Uiso   1.00
C439   C     0.11637   0.88989   0.02051   0.00000  Uiso   1.00
H440   H     0.09715   0.91466   0.03640   0.00000  Uiso   1.00
H441   H     0.09625   0.91232   0.40495   0.00000  Uiso   1.00
H442   H     0.17728   0.81911   0.40152   0.00000  Uiso   1.00
H443   H     0.12846   0.87812   0.07178   0.00000  Uiso   1.00
H444   H     0.18438   0.77465   0.43362   0.00000  Uiso   1.00
H445   H     0.21954   0.97966   0.41811   0.00000  Uiso   1.00
H446   H     0.24226   0.97782   0.45835   0.00000  Uiso   1.00
H447   H     0.18942   0.95114   0.45895   0.00000  Uiso   1.00
H448   H     0.18263   0.68325   0.00371   0.00000  Uiso   1.00
H449   H     0.16115   0.68595   0.46333   0.00000  Uiso   1.00
H450   H     0.22928   0.72615   0.42868   0.00000  Uiso   1.00
H451   H     0.23459   0.72721   0.03068   0.00000  Uiso   1.00
H452   H     0.25386   0.72400   0.46612   0.00000  Uiso   1.00
H453   H     0.01670   0.85999   0.21504   0.00000  Uiso   1.00
H454   H     0.31807   0.80699   0.28499   0.00000  Uiso   1.00
H455   H     0.20800   0.66946   0.21635   0.00000  Uiso   1.00
H456   H     0.12381   0.99884   0.28391   0.00000  Uiso   1.00
H457   H     0.16578   0.85326   0.09806   0.00000  Uiso   1.00
H458   H     0.22834   0.74811   0.09923   0.00000  Uiso   1.00
H459   H     0.08440   0.92748   0.47580   0.00000  Uiso   1.00
O460   O     0.16667   0.83333   0.25000   0.00000  Uiso   1.00
O461   O     0.15693   0.79060   0.16625   0.00000  Uiso   1.00
O462   O     0.12687   0.87313   0.33749   0.00000  Uiso   1.00
O463   O     0.21088   0.84159   0.15877   0.00000  Uiso   1.00
O464   O     0.17198   0.82802   0.33749   0.00000  Uiso   1.00
O465   O     0.17849   0.74768   0.27821   0.00000  Uiso   1.00
O466   O     0.14581   0.92803   0.26767   0.00000  Uiso   1.00
O467   O     0.07452   0.79917   0.23607   0.00000  Uiso   1.00
O468   O     0.26785   0.85845   0.21806   0.00000  Uiso   1.00
O469   O     0.06990   0.85627   0.27820   0.00000  Uiso   1.00
O470   O     0.25440   0.81944   0.26768   0.00000  Uiso   1.00
O471   O     0.13800   0.73570   0.23607   0.00000  Uiso   1.00
O472   O     0.20437   0.92193   0.21806   0.00000  Uiso   1.00
Zn473  Zn    0.19244   0.80756   0.28278   0.00000  Uiso   1.00
Zn474  Zn    0.13459   0.79044   0.22258   0.00000  Uiso   1.00
Zn475  Zn    0.21166   0.86331   0.21188   0.00000  Uiso   1.00
Zn476  Zn    0.12798   0.87202   0.28277   0.00000  Uiso   1.00
C477   C     0.38582   0.82657   0.25871   0.00000  Uiso   1.00
C478   C     0.51760   0.78719   0.46315   0.00000  Uiso   1.00
C479   C     0.53549   0.76402   0.48310   0.00000  Uiso   1.00
C480   C     0.61435   0.84022   0.24122   0.00000  Uiso   1.00
C481   C     0.53408   0.77725   0.02274   0.00000  Uiso   1.00
C482   C     0.51342   0.81333   0.04215   0.00000  Uiso   1.00
C483   C     0.55218   0.75481   0.04382   0.00000  Uiso   1.00
C484   C     0.54915   0.76679   0.08322   0.00000  Uiso   1.00
C485   C     0.51293   0.82580   0.08169   0.00000  Uiso   1.00
C486   C     0.66034   0.84283   0.23764   0.00000  Uiso   1.00
C487   C     0.34043   0.82416   0.26208   0.00000  Uiso   1.00
C488   C     0.44415   0.89433   0.41985   0.00000  Uiso   1.00
C489   C     0.51416   0.98881   0.23821   0.00000  Uiso   1.00
C490   C     0.48474   0.67872   0.26200   0.00000  Uiso   1.00
C491   C     0.48919   0.72278   0.25889   0.00000  Uiso   1.00
C492   C     0.51016   0.94431   0.24138   0.00000  Uiso   1.00
C493   C     0.52148   0.81174   0.14415   0.00000  Uiso   1.00
C494   C     0.47899   0.85461   0.35608   0.00000  Uiso   1.00
C495   C     0.47034   0.86352   0.39891   0.00000  Uiso   1.00
C496   C     0.52961   0.80221   0.10200   0.00000  Uiso   1.00
C497   C     0.43729   0.90285   0.46026   0.00000  Uiso   1.00
C498   C     0.55541   0.72507   0.46085   0.00000  Uiso   1.00
C499   C     0.48890   0.84091   0.41892   0.00000  Uiso   1.00
C500   C     0.52473   0.68521   0.47163   0.00000  Uiso   1.00
C501   C     0.54539   0.97943   0.45036   0.00000  Uiso   1.00
C502   C     0.48088   0.84757   0.45999   0.00000  Uiso   1.00
C503   C     0.45579   0.88009   0.48036   0.00000  Uiso   1.00
C504   C     0.49790   0.82356   0.48115   0.00000  Uiso   1.00
C505   C     0.49365   0.83552   0.02173   0.00000  Uiso   1.00
C506   C     0.46867   0.86856   0.04079   0.00000  Uiso   1.00
C507   C     0.44970   0.88989   0.02051   0.00000  Uiso   1.00
H508   H     0.43048   0.91466   0.03640   0.00000  Uiso   1.00
H509   H     0.42958   0.91232   0.40495   0.00000  Uiso   1.00
H510   H     0.51061   0.81911   0.40152   0.00000  Uiso   1.00
H511   H     0.46179   0.87812   0.07178   0.00000  Uiso   1.00
H512   H     0.51771   0.77465   0.43362   0.00000  Uiso   1.00
H513   H     0.55287   0.97966   0.41811   0.00000  Uiso   1.00
H514   H     0.57559   0.97782   0.45835   0.00000  Uiso   1.00
H515   H     0.52275   0.95114   0.45895   0.00000  Uiso   1.00
H516   H     0.51596   0.68325   0.00371   0.00000  Uiso   1.00
H517   H     0.49448   0.68595   0.46333   0.00000  Uiso   1.00
H518   H     0.56261   0.72615   0.42868   0.00000  Uiso   1.00
H519   H     0.56793   0.72721   0.03068   0.00000  Uiso   1.00
H520   H     0.58719   0.72400   0.46612   0.00000  Uiso   1.00
H521   H     0.35004   0.85999   0.21504   0.00000  Uiso   1.00
H522   H     0.65140   0.80699   0.28499   0.00000  Uiso   1.00
H523   H     0.54134   0.66946   0.21635   0.00000  Uiso   1.00
H524   H     0.45714   0.99884   0.28391   0.00000  Uiso   1.00
H525   H     0.49911   0.85326   0.09806   0.00000  Uiso   1.00
H526   H     0.56167   0.74811   0.09923   0.00000  Uiso   1.00
H527   H     0.41774   0.92748   0.47580   0.00000  Uiso   1.00
O528   O     0.50000   0.83333   0.25000   0.00000  Uiso   1.00
O529   O     0.49027   0.79060   0.16625   0.00000  Uiso   1.00
O530   O     0.46020   0.87313   0.33749   0.00000  Uiso   1.00
O531   O     0.54421   0.84159   0.15877   0.00000  Uiso   1.00
O532   O     0.50532   0.82802   0.33749   0.00000  Uiso   1.00
O533   O     0.51182   0.74768   0.27821   0.00000  Uiso   1.00
O534   O     0.47914   0.92803   0.26767   0.00000  Uiso   1.00
O535   O     0.40785   0.79917   0.23607   0.00000  Uiso   1.00
O536   O     0.60119   0.85845   0.21806   0.00000  Uiso   1.00
O537   O     0.40323   0.85627   0.27820   0.00000  Uiso   1.00
O538   O     0.58773   0.81944   0.26768   0.00000  Uiso   1.00
O539   O     0.47133   0.73570   0.23607   0.00000  Uiso   1.00
O540   O     0.53771   0.92193   0.21806   0.00000  Uiso   1.00
Zn541  Zn    0.52577   0.80756   0.28278   0.00000  Uiso   1.00
Zn542  Zn    0.46792   0.79044   0.22258   0.00000  Uiso   1.00
Zn543  Zn    0.54500   0.86331   0.21188   0.00000  Uiso   1.00
Zn544  Zn    0.46131   0.87202   0.28277   0.00000  Uiso   1.00
C545   C     0.71915   0.82657   0.25871   0.00000  Uiso   1.00
C546   C     0.85093   0.78719   0.46315   0.00000  Uiso   1.00
C547   C     0.86883   0.76402   0.48310   0.00000  Uiso   1.00
C548   C     0.94768   0.84022   0.24122   0.00000  Uiso   1.00
C549   C     0.86742   0.77725   0.02274   0.00000  Uiso   1.00
C550   C     0.84675   0.81333   0.04215   0.00000  Uiso   1.00
C551   C     0.88551   0.75481   0.04382   0.00000  Uiso   1.00
C552   C     0.88249   0.76679   0.08322   0.00000  Uiso   1.00
C553   C     0.84626   0.82580   0.08169   0.00000  Uiso   1.00
C554   C     0.99367   0.84283   0.23764   0.00000  Uiso   1.00
C555   C     0.67377   0.82416   0.26208   0.00000  Uiso   1.00
C556   C     0.77748   0.89433   0.41985   0.00000  Uiso   1.00
C557   C     0.84750   0.98881   0.23821   0.00000  Uiso   1.00
C558   C     0.81807   0.67872   0.26200   0.00000  Uiso   1.00
C559   C     0.82252   0.72278   0.25889   0.00000  Uiso   1.00
C560   C     0.84349   0.94431   0.24138   0.00000  Uiso   1.00
C561   C     0.85482   0.81174   0.14415   0.00000  Uiso   1.00
C562   C     0.81233   0.85461   0.35608   0.00000  Uiso   1.00
C563   C     0.80367   0.86352   0.39891   0.00000  Uiso   1.00
C564   C     0.86295   0.80221   0.10200   0.00000  Uiso   1.00
C565   C     0.77062   0.90285   0.46026   0.00000  Uiso   1.00
C566   C     0.88874   0.72507   0.46085   0.00000  Uiso   1.00
C567   C     0.82224   0.84091   0.41892   0.00000  Uiso   1.00
C568   C     0.85806   0.68521   0.47163   0.00000  Uiso   1.00
C569   C     0.87872   0.97943   0.45036   0.00000  Uiso   1.00
C570   C     0.81422   0.84757   0.45999   0.00000  Uiso   1.00
C571   C     0.78913   0.88009   0.48036   0.00000  Uiso   1.00
C572   C     0.83124   0.82356   0.48115   0.00000  Uiso   1.00
C573   C     0.82699   0.83552   0.02173   0.00000  Uiso   1.00
C574   C     0.80200   0.86856   0.04079   0.00000  Uiso   1.00
C575   C     0.78303   0.88989   0.02051   0.00000  Uiso   1.00
H576   H     0.76381   0.91466   0.03640   0.00000  Uiso   1.00
H577   H     0.76291   0.91232   0.40495   0.00000  Uiso   1.00
H578   H     0.84394   0.81911   0.40152   0.00000  Uiso   1.00
H579   H     0.79513   0.87812   0.07178   0.00000  Uiso   1.00
H580   H     0.85104   0.77465   0.43362   0.00000  Uiso   1.00
H581   H     0.88620   0.97966   0.41811   0.00000  Uiso   1.00
H582   H     0.90893   0.97782   0.45835   0.00000  Uiso   1.00
H583   H     0.85608   0.95114   0.45895   0.00000  Uiso   1.00
H584   H     0.84929   0.68325   0.00371   0.00000  Uiso   1.00
H585   H     0.82781   0.68595   0.46333   0.00000  Uiso   1.00
H586   H     0.89594   0.72615   0.42868   0.00000  Uiso   1.00
H587   H     0.90126   0.72721   0.03068   0.00000  Uiso   1.00
H588   H     0.92053   0.72400   0.46612   0.00000  Uiso   1.00
H589   H     0.68337   0.85999   0.21504   0.00000  Uiso   1.00
H590   H     0.98473   0.80699   0.28499   0.00000  Uiso   1.00
H591   H     0.87467   0.66946   0.21635   0.00000  Uiso   1.00
H592   H     0.79048   0.99884   0.28391   0.00000  Uiso   1.00
H593   H     0.83245   0.85326   0.09806   0.00000  Uiso   1.00
H594   H     0.89500   0.74811   0.09923   0.00000  Uiso   1.00
H595   H     0.75107   0.92748   0.47580   0.00000  Uiso   1.00
O596   O     0.83333   0.83333   0.25000   0.00000  Uiso   1.00
O597   O     0.82360   0.79060   0.16625   0.00000  Uiso   1.00
O598   O     0.79354   0.87313   0.33749   0.00000  Uiso   1.00
O599   O     0.87755   0.84159   0.15877   0.00000  Uiso   1.00
O600   O     0.83865   0.82802   0.33749   0.00000  Uiso   1.00
O601   O     0.84515   0.74768   0.27821   0.00000  Uiso   1.00
O602   O     0.81247   0.92803   0.26767   0.00000  Uiso   1.00
O603   O     0.74119   0.79917   0.23607   0.00000  Uiso   1.00
O604   O     0.93452   0.85845   0.21806   0.00000  Uiso   1.00
O605   O     0.73656   0.85627   0.27820   0.00000  Uiso   1.00
O606   O     0.92106   0.81944   0.26768   0.00000  Uiso   1.00
O607   O     0.80467   0.73570   0.23607   0.00000  Uiso   1.00
O608   O     0.87104   0.92193   0.21806   0.00000  Uiso   1.00
Zn609  Zn    0.85910   0.80756   0.28278   0.00000  Uiso   1.00
Zn610  Zn    0.80125   0.79044   0.22258   0.00000  Uiso   1.00
Zn611  Zn    0.87833   0.86331   0.21188   0.00000  Uiso   1.00
Zn612  Zn    0.79465   0.87202   0.28277   0.00000  Uiso   1.00
C613   C     0.05248   0.15991   0.75871   0.00000  Uiso   1.00
C614   C     0.18426   0.12052   0.96315   0.00000  Uiso   1.00
C615   C     0.20216   0.09735   0.98310   0.00000  Uiso   1.00
C616   C     0.28101   0.17355   0.74122   0.00000  Uiso   1.00
C617   C     0.20075   0.11058   0.52274   0.00000  Uiso   1.00
C618   C     0.18008   0.14666   0.54215   0.00000  Uiso   1.00
C619   C     0.21885   0.08814   0.54382   0.00000  Uiso   1.00
C620   C     0.21582   0.10012   0.58322   0.00000  Uiso   1.00
C621   C     0.17960   0.15913   0.58169   0.00000  Uiso   1.00
C622   C     0.32700   0.17616   0.73764   0.00000  Uiso   1.00
C623   C     0.00710   0.15749   0.76208   0.00000  Uiso   1.00
C624   C     0.11081   0.22766   0.91985   0.00000  Uiso   1.00
C625   C     0.18083   0.32215   0.73821   0.00000  Uiso   1.00
C626   C     0.15140   0.01205   0.76200   0.00000  Uiso   1.00
C627   C     0.15585   0.05611   0.75889   0.00000  Uiso   1.00
C628   C     0.17682   0.27765   0.74138   0.00000  Uiso   1.00
C629   C     0.18815   0.14507   0.64415   0.00000  Uiso   1.00
C630   C     0.14566   0.18794   0.85608   0.00000  Uiso   1.00
C631   C     0.13700   0.19685   0.89891   0.00000  Uiso   1.00
C632   C     0.19628   0.13554   0.60200   0.00000  Uiso   1.00
C633   C     0.10396   0.23618   0.96026   0.00000  Uiso   1.00
C634   C     0.22208   0.05840   0.96085   0.00000  Uiso   1.00
C635   C     0.15557   0.17425   0.91892   0.00000  Uiso   1.00
C636   C     0.19139   0.01854   0.97163   0.00000  Uiso   1.00
C637   C     0.21206   0.31276   0.95036   0.00000  Uiso   1.00
C638   C     0.14755   0.18091   0.95999   0.00000  Uiso   1.00
C639   C     0.12246   0.21342   0.98036   0.00000  Uiso   1.00
C640   C     0.16457   0.15690   0.98115   0.00000  Uiso   1.00
C641   C     0.16032   0.16885   0.52173   0.00000  Uiso   1.00
C642   C     0.13533   0.20189   0.54079   0.00000  Uiso   1.00
C643   C     0.11637   0.22322   0.52051   0.00000  Uiso   1.00
H644   H     0.09715   0.24799   0.53640   0.00000  Uiso   1.00
H645   H     0.09625   0.24566   0.90495   0.00000  Uiso   1.00
H646   H     0.17728   0.15245   0.90152   0.00000  Uiso   1.00
H647   H     0.12846   0.21145   0.57178   0.00000  Uiso   1.00
H648   H     0.18438   0.10799   0.93362   0.00000  Uiso   1.00
H649   H     0.21954   0.31299   0.91811   0.00000  Uiso   1.00
H650   H     0.24226   0.31115   0.95835   0.00000  Uiso   1.00
H651   H     0.18942   0.28447   0.95895   0.00000  Uiso   1.00
H652   H     0.18263   0.01659   0.50371   0.00000  Uiso   1.00
H653   H     0.16115   0.01928   0.96333   0.00000  Uiso   1.00
H654   H     0.22928   0.05948   0.92868   0.00000  Uiso   1.00
H655   H     0.23459   0.06054   0.53068   0.00000  Uiso   1.00
H656   H     0.25386   0.05734   0.96612   0.00000  Uiso   1.00
H657   H     0.01670   0.19333   0.71504   0.00000  Uiso   1.00
H658   H     0.31807   0.14032   0.78499   0.00000  Uiso   1.00
H659   H     0.20800   0.00280   0.71635   0.00000  Uiso   1.00
H660   H     0.12381   0.33217   0.78391   0.00000  Uiso   1.00
H661   H     0.16578   0.18659   0.59806   0.00000  Uiso   1.00
H662   H     0.22834   0.08144   0.59923   0.00000  Uiso   1.00
H663   H     0.08440   0.26081   0.97580   0.00000  Uiso   1.00
O664   O     0.16667   0.16667   0.75000   0.00000  Uiso   1.00
O665   O     0.15693   0.12393   0.66625   0.00000  Uiso   1.00
O666   O     0.12687   0.20646   0.83749   0.00000  Uiso   1.00
O667   O     0.21088   0.17493   0.65877   0.00000  Uiso   1.00
O668   O     0.17198   0.16135   0.83749   0.00000  Uiso   1.00
O669   O     0.17849   0.08101   0.77821   0.00000  Uiso   1.00
O670   O     0.14581   0.26136   0.76767   0.00000  Uiso   1.00
O671   O     0.07452   0.13251   0.73607   0.00000  Uiso   1.00
O672   O     0.26785   0.19179   0.71806   0.00000  Uiso   1.00
O673   O     0.06990   0.18960   0.77820   0.00000  Uiso   1.00
O674   O     0.25440   0.15277   0.76768   0.00000  Uiso   1.00
O675   O     0.13800   0.06903   0.73607   0.00000  Uiso   1.00
O676   O     0.20437   0.25527   0.71806   0.00000  Uiso   1.00
Zn677  Zn    0.19244   0.14090   0.78278   0.00000  Uiso   1.00
Zn678  Zn    0.13459   0.12378   0.72258   0.00000  Uiso   1.00
Zn679  Zn    0.21166   0.19664   0.71188   0.00000  Uiso   1.00
Zn680  Zn    0.12798   0.20535   0.78277   0.00000  Uiso   1.00
C681   C     0.38582   0.15991   0.75871   0.00000  Uiso   1.00
C682   C     0.51760   0.12052   0.96315   0.00000  Uiso   1.00
C683   C     0.53549   0.09735   0.98310   0.00000  Uiso   1.00
C684   C     0.61435   0.17355   0.74122   0.00000  Uiso   1.00
C685   C     0.53408   0.11058   0.52274   0.00000  Uiso   1.00
C686   C     0.51342   0.14666   0.54215   0.00000  Uiso   1.00
C687   C     0.55218   0.08814   0.54382   0.00000  Uiso   1.00
C688   C     0.54915   0.10012   0.58322   0.00000  Uiso   1.00
C689   C     0.51293   0.15913   0.58169   0.00000  Uiso   1.00
C690   C     0.66034   0.17616   0.73764   0.00000  Uiso   1.00
C691   C     0.34043   0.15749   0.76208   0.00000  Uiso   1.00
C692   C     0.44415   0.22766   0.91985   0.00000  Uiso   1.00
C693   C     0.51416   0.32215   0.73821   0.00000  Uiso   1.00
C694   C     0.48474   0.01205   0.76200   0.00000  Uiso   1.00
C695   C     0.48919   0.05611   0.75889   0.00000  Uiso   1.00
C696   C     0.51016   0.27765   0.74138   0.00000  Uiso   1.00
C697   C     0.52148   0.14507   0.64415   0.00000  Uiso   1.00
C698   C     0.47899   0.18794   0.85608   0.00000  Uiso   1.00
C699   C     0.47034   0.19685   0.89891   0.00000  Uiso   1.00
C700   C     0.52961   0.13554   0.60200   0.00000  Uiso   1.00
C701   C     0.43729   0.23618   0.96026   0.00000  Uiso   1.00
C702   C     0.55541   0.05840   0.96085   0.00000  Uiso   1.00
C703   C     0.48890   0.17425   0.91892   0.00000  Uiso   1.00
C704   C     0.52473   0.01854   0.97163   0.00000  Uiso   1.00
C705   C     0.54539   0.31276   0.95036   0.00000  Uiso   1.00
C706   C     0.48088   0.18091   0.95999   0.00000  Uiso   1.00
C707   C     0.45579   0.21342   0.98036   0.00000  Uiso   1.00
C708   C     0.49790   0.15690   0.98115   0.00000  Uiso   1.00
C709   C     0.49365   0.16885   0.52173   0.00000  Uiso   1.00
C710   C     0.46867   0.20189   0.54079   0.00000  Uiso   1.00
C711   C     0.44970   0.22322   0.52051   0.00000  Uiso   1.00
H712   H     0.43048   0.24799   0.53640   0.00000  Uiso   1.00
H713   H     0.42958   0.24566   0.90495   0.00000  Uiso   1.00
H714   H     0.51061   0.15245   0.90152   0.00000  Uiso   1.00
H715   H     0.46179   0.21145   0.57178   0.00000  Uiso   1.00
H716   H     0.51771   0.10799   0.93362   0.00000  Uiso   1.00
H717   H     0.55287   0.31299   0.91811   0.00000  Uiso   1.00
H718   H     0.57559   0.31115   0.95835   0.00000  Uiso   1.00
H719   H     0.52275   0.28447   0.95895   0.00000  Uiso   1.00
H720   H     0.51596   0.01659   0.50371   0.00000  Uiso   1.00
H721   H     0.49448   0.01928   0.96333   0.00000  Uiso   1.00
H722   H     0.56261   0.05948   0.92868   0.00000  Uiso   1.00
H723   H     0.56793   0.06054   0.53068   0.00000  Uiso   1.00
H724   H     0.58719   0.05734   0.96612   0.00000  Uiso   1.00
H725   H     0.35004   0.19333   0.71504   0.00000  Uiso   1.00
H726   H     0.65140   0.14032   0.78499   0.00000  Uiso   1.00
H727   H     0.54134   0.00280   0.71635   0.00000  Uiso   1.00
H728   H     0.45714   0.33217   0.78391   0.00000  Uiso   1.00
H729   H     0.49911   0.18659   0.59806   0.00000  Uiso   1.00
H730   H     0.56167   0.08144   0.59923   0.00000  Uiso   1.00
H731   H     0.41774   0.26081   0.97580   0.00000  Uiso   1.00
O732   O     0.50000   0.16667   0.75000   0.00000  Uiso   1.00
O733   O     0.49027   0.12393   0.66625   0.00000  Uiso   1.00
O734   O     0.46020   0.20646   0.83749   0.00000  Uiso   1.00
O735   O     0.54421   0.17493   0.65877   0.00000  Uiso   1.00
O736   O     0.50532   0.16135   0.83749   0.00000  Uiso   1.00
O737   O     0.51182   0.08101   0.77821   0.00000  Uiso   1.00
O738   O     0.47914   0.26136   0.76767   0.00000  Uiso   1.00
O739   O     0.40785   0.13251   0.73607   0.00000  Uiso   1.00
O740   O     0.60119   0.19179   0.71806   0.00000  Uiso   1.00
O741   O     0.40323   0.18960   0.77820   0.00000  Uiso   1.00
O742   O     0.58773   0.15277   0.76768   0.00000  Uiso   1.00
O743   O     0.47133   0.06903   0.73607   0.00000  Uiso   1.00
O744   O     0.53771   0.25527   0.71806   0.00000  Uiso   1.00
Zn745  Zn    0.52577   0.14090   0.78278   0.00000  Uiso   1.00
Zn746  Zn    0.46792   0.12378   0.72258   0.00000  Uiso   1.00
Zn747  Zn    0.54500   0.19664   0.71188   0.00000  Uiso   1.00
Zn748  Zn    0.46131   0.20535   0.78277   0.00000  Uiso   1.00
C749   C     0.71915   0.15991   0.75871   0.00000  Uiso   1.00
C750   C     0.85093   0.12052   0.96315   0.00000  Uiso   1.00
C751   C     0.86883   0.09735   0.98310   0.00000  Uiso   1.00
C752   C     0.94768   0.17355   0.74122   0.00000  Uiso   1.00
C753   C     0.86742   0.11058   0.52274   0.00000  Uiso   1.00
C754   C     0.84675   0.14666   0.54215   0.00000  Uiso   1.00
C755   C     0.88551   0.08814   0.54382   0.00000  Uiso   1.00
C756   C     0.88249   0.10012   0.58322   0.00000  Uiso   1.00
C757   C     0.84626   0.15913   0.58169   0.00000  Uiso   1.00
C758   C     0.99367   0.17616   0.73764   0.00000  Uiso   1.00
C759   C     0.67377   0.15749   0.76208   0.00000  Uiso   1.00
C760   C     0.77748   0.22766   0.91985   0.00000  Uiso   1.00
C761   C     0.84750   0.32215   0.73821   0.00000  Uiso   1.00
C762   C     0.81807   0.01205   0.76200   0.00000  Uiso   1.00
C763   C     0.82252   0.05611   0.75889   0.00000  Uiso   1.00
C764   C     0.84349   0.27765   0.74138   0.00000  Uiso   1.00
C765   C     0.85482   0.14507   0.64415   0.00000  Uiso   1.00
C766   C     0.81233   0.18794   0.85608   0.00000  Uiso   1.00
C767   C     0.80367   0.19685   0.89891   0.00000  Uiso   1.00
C768   C     0.86295   0.13554   0.60200   0.00000  Uiso   1.00
C769   C     0.77062   0.23618   0.96026   0.00000  Uiso   1.00
C770   C     0.88874   0.05840   0.96085   0.00000  Uiso   1.00
C771   C     0.82224   0.17425   0.91892   0.00000  Uiso   1.00
C772   C     0.85806   0.01854   0.97163   0.00000  Uiso   1.00
C773   C     0.87872   0.31276   0.95036   0.00000  Uiso   1.00
C774   C     0.81422   0.18091   0.95999   0.00000  Uiso   1.00
C775   C     0.78913   0.21342   0.98036   0.00000  Uiso   1.00
C776   C     0.83124   0.15690   0.98115   0.00000  Uiso   1.00
C777   C     0.82699   0.16885   0.52173   0.00000  Uiso   1.00
C778   C     0.80200   0.20189   0.54079   0.00000  Uiso   1.00
C779   C     0.78303   0.22322   0.52051   0.00000  Uiso   1.00
H780   H     0.76381   0.24799   0.53640   0.00000  Uiso   1.00
H781   H     0.76291   0.24566   0.90495   0.00000  Uiso   1.00
H782   H     0.84394   0.15245   0.90152   0.00000  Uiso   1.00
H783   H     0.79513   0.21145   0.57178   0.00000  Uiso   1.00
H784   H     0.85104   0.10799   0.93362   0.00000  Uiso   1.00
H785   H     0.88620   0.31299   0.91811   0.00000  Uiso   1.00
H786   H     0.90893   0.31115   0.95835   0.00000  Uiso   1.00
H787   H     0.85608   0.28447   0.95895   0.00000  Uiso   1.00
H788   H     0.84929   0.01659   0.50371   0.00000  Uiso   1.00
H789   H     0.82781   0.01928   0.96333   0.00000  Uiso   1.00
H790   H     0.89594   0.05948   0.92868   0.00000  Uiso   1.00
H791   H     0.90126   0.06054   0.53068   0.00000  Uiso   1.00
H792   H     0.92053   0.05734   0.96612   0.00000  Uiso   1.00
H793   H     0.68337   0.19333   0.71504   0.00000  Uiso   1.00
H794   H     0.98473   0.14032   0.78499   0.00000  Uiso   1.00
H795   H     0.87467   0.00280   0.71635   0.00000  Uiso   1.00
H796   H     0.79048   0.33217   0.78391   0.00000  Uiso   1.00
H797   H     0.83245   0.18659   0.59806   0.00000  Uiso   1.00
H798   H     0.89500   0.08144   0.59923   0.00000  Uiso   1.00
H799   H     0.75107   0.26081   0.97580   0.00000  Uiso   1.00
O800   O     0.83333   0.16667   0.75000   0.00000  Uiso   1.00
O801   O     0.82360   0.12393   0.66625   0.00000  Uiso   1.00
O802   O     0.79354   0.20646   0.83749   0.00000  Uiso   1.00
O803   O     0.87755   0.17493   0.65877   0.00000  Uiso   1.00
O804   O     0.83865   0.16135   0.83749   0.00000  Uiso   1.00
O805   O     0.84515   0.08101   0.77821   0.00000  Uiso   1.00
O806   O     0.81247   0.26136   0.76767   0.00000  Uiso   1.00
O807   O     0.74119   0.13251   0.73607   0.00000  Uiso   1.00
O808   O     0.93452   0.19179   0.71806   0.00000  Uiso   1.00
O809   O     0.73656   0.18960   0.77820   0.00000  Uiso   1.00
O810   O     0.92106   0.15277   0.76768   0.00000  Uiso   1.00
O811   O     0.80467   0.06903   0.73607   0.00000  Uiso   1.00
O812   O     0.87104   0.25527   0.71806   0.00000  Uiso   1.00
Zn813  Zn    0.85910   0.14090   0.78278   0.00000  Uiso   1.00
Zn814  Zn    0.80125   0.12378   0.72258   0.00000  Uiso   1.00
Zn815  Zn    0.87833   0.19664   0.71188   0.00000  Uiso   1.00
Zn816  Zn    0.79465   0.20535   0.78277   0.00000  Uiso   1.00
C817   C     0.05248   0.49324   0.75871   0.00000  Uiso   1.00
C818   C     0.18426   0.45386   0.96315   0.00000  Uiso   1.00
C819   C     0.20216   0.43069   0.98310   0.00000  Uiso   1.00
C820   C     0.28101   0.50688   0.74122   0.00000  Uiso   1.00
C821   C     0.20075   0.44391   0.52274   0.00000  Uiso   1.00
C822   C     0.18008   0.48000   0.54215   0.00000  Uiso   1.00
C823   C     0.21885   0.42147   0.54382   0.00000  Uiso   1.00
C824   C     0.21582   0.43345   0.58322   0.00000  Uiso   1.00
C825   C     0.17960   0.49246   0.58169   0.00000  Uiso   1.00
C826   C     0.32700   0.50950   0.73764   0.00000  Uiso   1.00
C827   C     0.00710   0.49083   0.76208   0.00000  Uiso   1.00
C828   C     0.11081   0.56099   0.91985   0.00000  Uiso   1.00
C829   C     0.18083   0.65548   0.73821   0.00000  Uiso   1.00
C830   C     0.15140   0.34538   0.76200   0.00000  Uiso   1.00
C831   C     0.15585   0.38945   0.75889   0.00000  Uiso   1.00
C832   C     0.17682   0.61098   0.74138   0.00000  Uiso   1.00
C833   C     0.18815   0.47841   0.64415   0.00000  Uiso   1.00
C834   C     0.14566   0.52127   0.85608   0.00000  Uiso   1.00
C835   C     0.13700   0.53018   0.89891   0.00000  Uiso   1.00
C836   C     0.19628   0.46888   0.60200   0.00000  Uiso   1.00
C837   C     0.10396   0.56951   0.96026   0.00000  Uiso   1.00
C838   C     0.22208   0.39174   0.96085   0.00000  Uiso   1.00
C839   C     0.15557   0.50758   0.91892   0.00000  Uiso   1.00
C840   C     0.19139   0.35188   0.97163   0.00000  Uiso   1.00
C841   C     0.21206   0.64610   0.95036   0.00000  Uiso   1.00
C842   C     0.14755   0.51424   0.95999   0.00000  Uiso   1.00
C843   C     0.12246   0.54676   0.98036   0.00000  Uiso   1.00
C844   C     0.16457   0.49023   0.98115   0.00000  Uiso   1.00
C845   C     0.16032   0.50218   0.52173   0.00000  Uiso   1.00
C846   C     0.13533   0.53522   0.54079   0.00000  Uiso   1.00
C847   C     0.11637   0.55655   0.52051   0.00000  Uiso   1.00
H848   H     0.09715   0.58132   0.53640   0.00000  Uiso   1.00
H849   H     0.09625   0.57899   0.90495   0.00000  Uiso   1.00
H850   H     0.17728   0.48578   0.90152   0.00000  Uiso   1.00
H851   H     0.12846   0.54479   0.57178   0.00000  Uiso   1.00
H852   H     0.18438   0.44132   0.93362   0.00000  Uiso   1.00
H853   H     0.21954   0.64633   0.91811   0.00000  Uiso   1.00
H854   H     0.24226   0.64448   0.95835   0.00000  Uiso   1.00
H855   H     0.18942   0.61781   0.95895   0.00000  Uiso   1.00
H856   H     0.18263   0.34992   0.50371   0.00000  Uiso   1.00
H857   H     0.16115   0.35261   0.96333   0.00000  Uiso   1.00
H858   H     0.22928   0.39282   0.92868   0.00000  Uiso   1.00
H859   H     0.23459   0.39387   0.53068   0.00000  Uiso   1.00
H860   H     0.25386   0.39067   0.96612   0.00000  Uiso   1.00
H861   H     0.01670   0.52666   0.71504   0.00000  Uiso   1.00
H862   H     0.31807   0.47366   0.78499   0.00000  Uiso   1.00
H863   H     0.20800   0.33613   0.71635   0.00000  Uiso   1.00
H864   H     0.12381   0.66551   0.78391   0.00000  Uiso   1.00
H865   H     0.16578   0.51992   0.59806   0.00000  Uiso   1.00
H866   H     0.22834   0.41478   0.59923   0.00000  Uiso   1.00
H867   H     0.08440   0.59415   0.97580   0.00000  Uiso   1.00
O868   O     0.16667   0.50000   0.75000   0.00000  Uiso   1.00
O869   O     0.15693   0.45726   0.66625   0.00000  Uiso   1.00
O870   O     0.12687   0.53979   0.83749   0.00000  Uiso   1.00
O871   O     0.21088   0.50826   0.65877   0.00000  Uiso   1.00
O872   O     0.17198   0.49468   0.83749   0.00000  Uiso   1.00
O873   O     0.17849   0.41434   0.77821   0.00000  Uiso   1.00
O874   O     0.14581   0.59469   0.76767   0.00000  Uiso   1.00
O875   O     0.07452   0.46584   0.73607   0.00000  Uiso   1.00
O876   O     0.26785   0.52512   0.71806   0.00000  Uiso   1.00
O877   O     0.06990   0.52293   0.77820   0.00000  Uiso   1.00
O878   O     0.25440   0.48610   0.76768   0.00000  Uiso   1.00
O879   O     0.13800   0.40236   0.73607   0.00000  Uiso   1.00
O880   O     0.20437   0.58860   0.71806   0.00000  Uiso   1.00
Zn881  Zn    0.19244   0.47423   0.78278   0.00000  Uiso   1.00
Zn882  Zn    0.13459   0.45711   0.72258   0.00000  Uiso   1.00
Zn883  Zn    0.21166   0.52997   0.71188   0.00000  Uiso   1.00
Zn884  Zn    0.12798   0.53868   0.78277   0.00000  Uiso   1.00
C885   C     0.38582   0.49324   0.75871   0.00000  Uiso   1.00
C886   C     0.51760   0.45386   0.96315   0.00000  Uiso   1.00
C887   C     0.53549   0.43069   0.98310   0.00000  Uiso   1.00
C888   C     0.61435   0.50688   0.74122   0.00000  Uiso   1.00
C889   C     0.53408   0.44391   0.52274   0.00000  Uiso   1.00
C890   C     0.51342   0.48000   0.54215   0.00000  Uiso   1.00
C891   C     0.55218   0.42147   0.54382   0.00000  Uiso   1.00
C892   C     0.54915   0.43345   0.58322   0.00000  Uiso   1.00
C893   C     0.51293   0.49246   0.58169   0.00000  Uiso   1.00
C894   C     0.66034   0.50950   0.73764   0.00000  Uiso   1.00
C895   C     0.34043   0.49083   0.76208   0.00000  Uiso   1.00
C896   C     0.44415   0.56099   0.91985   0.00000  Uiso   1.00
C897   C     0.51416   0.65548   0.73821   0.00000  Uiso   1.00
C898   C     0.48474   0.34538   0.76200   0.00000  Uiso   1.00
C899   C     0.48919   0.38945   0.75889   0.00000  Uiso   1.00
C900   C     0.51016   0.61098   0.74138   0.00000  Uiso   1.00
C901   C     0.52148   0.47841   0.64415   0.00000  Uiso   1.00
C902   C     0.47899   0.52127   0.85608   0.00000  Uiso   1.00
C903   C     0.47034   0.53018   0.89891   0.00000  Uiso   1.00
C904   C     0.52961   0.46888   0.60200   0.00000  Uiso   1.00
C905   C     0.43729   0.56951   0.96026   0.00000  Uiso   1.00
C906   C     0.55541   0.39174   0.96085   0.00000  Uiso   1.00
C907   C     0.48890   0.50758   0.91892   0.00000  Uiso   1.00
C908   C     0.52473   0.35188   0.97163   0.00000  Uiso   1.00
C909   C     0.54539   0.64610   0.95036   0.00000  Uiso   1.00
C910   C     0.48088   0.51424   0.95999   0.00000  Uiso   1.00
C911   C     0.45579   0.54676   0.98036   0.00000  Uiso   1.00
C912   C     0.49790   0.49023   0.98115   0.00000  Uiso   1.00
C913   C     0.49365   0.50218   0.52173   0.00000  Uiso   1.00
C914   C     0.46867   0.53522   0.54079   0.00000  Uiso   1.00
C915   C     0.44970   0.55655   0.52051   0.00000  Uiso   1.00
H916   H     0.43048   0.58132   0.53640   0.00000  Uiso   1.00
H917   H     0.42958   0.57899   0.90495   0.00000  Uiso   1.00
H918   H     0.51061   0.48578   0.90152   0.00000  Uiso   1.00
H919   H     0.46179   0.54479   0.57178   0.00000  Uiso   1.00
H920   H     0.51771   0.44132   0.93362   0.00000  Uiso   1.00
H921   H     0.55287   0.64633   0.91811   0.00000  Uiso   1.00
H922   H     0.57559   0.64448   0.95835   0.00000  Uiso   1.00
H923   H     0.52275   0.61781   0.95895   0.00000  Uiso   1.00
H924   H     0.51596   0.34992   0.50371   0.00000  Uiso   1.00
H925   H     0.49448   0.35261   0.96333   0.00000  Uiso   1.00
H926   H     0.56261   0.39282   0.92868   0.00000  Uiso   1.00
H927   H     0.56793   0.39387   0.53068   0.00000  Uiso   1.00
H928   H     0.58719   0.39067   0.96612   0.00000  Uiso   1.00
H929   H     0.35004   0.52666   0.71504   0.00000  Uiso   1.00
H930   H     0.65140   0.47366   0.78499   0.00000  Uiso   1.00
H931   H     0.54134   0.33613   0.71635   0.00000  Uiso   1.00
H932   H     0.45714   0.66551   0.78391   0.00000  Uiso   1.00
H933   H     0.49911   0.51992   0.59806   0.00000  Uiso   1.00
H934   H     0.56167   0.41478   0.59923   0.00000  Uiso   1.00
H935   H     0.41774   0.59415   0.97580   0.00000  Uiso   1.00
O936   O     0.50000   0.50000   0.75000   0.00000  Uiso   1.00
O937   O     0.49027   0.45726   0.66625   0.00000  Uiso   1.00
O938   O     0.46020   0.53979   0.83749   0.00000  Uiso   1.00
O939   O     0.54421   0.50826   0.65877   0.00000  Uiso   1.00
O940   O     0.50532   0.49468   0.83749   0.00000  Uiso   1.00
O941   O     0.51182   0.41434   0.77821   0.00000  Uiso   1.00
O942   O     0.47914   0.59469   0.76767   0.00000  Uiso   1.00
O943   O     0.40785   0.46584   0.73607   0.00000  Uiso   1.00
O944   O     0.60119   0.52512   0.71806   0.00000  Uiso   1.00
O945   O     0.40323   0.52293   0.77820   0.00000  Uiso   1.00
O946   O     0.58773   0.48610   0.76768   0.00000  Uiso   1.00
O947   O     0.47133   0.40236   0.73607   0.00000  Uiso   1.00
O948   O     0.53771   0.58860   0.71806   0.00000  Uiso   1.00
Zn949  Zn    0.52577   0.47423   0.78278   0.00000  Uiso   1.00
Zn950  Zn    0.46792   0.45711   0.72258   0.00000  Uiso   1.00
Zn951  Zn    0.54500   0.52997   0.71188   0.00000  Uiso   1.00
Zn952  Zn    0.46131   0.53868   0.78277   0.00000  Uiso   1.00
C953   C     0.71915   0.49324   0.75871   0.00000  Uiso   1.00
C954   C     0.85093   0.45386   0.96315   0.00000  Uiso   1.00
C955   C     0.86883   0.43069   0.98310   0.00000  Uiso   1.00
C956   C     0.94768   0.50688   0.74122   0.00000  Uiso   1.00
C957   C     0.86742   0.44391   0.52274   0.00000  Uiso   1.00
C958   C     0.84675   0.48000   0.54215   0.00000  Uiso   1.00
C959   C     0.88551   0.42147   0.54382   0.00000  Uiso   1.00
C960   C     0.88249   0.43345   0.58322   0.00000  Uiso   1.00
C961   C     0.84626   0.49246   0.58169   0.00000  Uiso   1.00
C962   C     0.99367   0.50950   0.73764   0.00000  Uiso   1.00
C963   C     0.67377   0.49083   0.76208   0.00000  Uiso   1.00
C964   C     0.77748   0.56099   0.91985   0.00000  Uiso   1.00
C965   C     0.84750   0.65548   0.73821   0.00000  Uiso   1.00
C966   C     0.81807   0.34538   0.76200   0.00000  Uiso   1.00
C967   C     0.82252   0.38945   0.75889   0.00000  Uiso   1.00
C968   C     0.84349   0.61098   0.74138   0.00000  Uiso   1.00
C969   C     0.85482   0.47841   0.64415   0.00000  Uiso   1.00
C970   C     0.81233   0.52127   0.85608   0.00000  Uiso   1.00
C971   C     0.80367   0.53018   0.89891   0.00000  Uiso   1.00
C972   C     0.86295   0.46888   0.60200   0.00000  Uiso   1.00
C973   C     0.77062   0.56951   0.96026   0.00000  Uiso   1.00
C974   C     0.88874   0.39174   0.96085   0.00000  Uiso   1.00
C975   C     0.82224   0.50758   0.91892   0.00000  Uiso   1.00
C976   C     0.85806   0.35188   0.97163   0.00000  Uiso   1.00
C977   C     0.87872   0.64610   0.95036   0.00000  Uiso   1.00
C978   C     0.81422   0.51424   0.95999   0.00000  Uiso   1.00
C979   C     0.78913   0.54676   0.98036   0.00000  Uiso   1.00
C980   C     0.83124   0.49023   0.98115   0.00000  Uiso   1.00
C981   C     0.82699   0.50218   0.52173   0.00000  Uiso   1.00
C982   C     0.80200   0.53522   0.54079   0.00000  Uiso   1.00
C983   C     0.78303   0.55655   0.52051   0.00000  Uiso   1.00
H984   H     0.76381   0.58132   0.53640   0.00000  Uiso   1.00
H985   H     0.76291   0.57899   0.90495   0.00000  Uiso   1.00
H986   H     0.84394   0.48578   0.90152   0.00000  Uiso   1.00
H987   H     0.79513   0.54479   0.57178   0.00000  Uiso   1.00
H988   H     0.85104   0.44132   0.93362   0.00000  Uiso   1.00
H989   H     0.88620   0.64633   0.91811   0.00000  Uiso   1.00
H990   H     0.90893   0.64448   0.95835   0.00000  Uiso   1.00
H991   H     0.85608   0.61781   0.95895   0.00000  Uiso   1.00
H992   H     0.84929   0.34992   0.50371   0.00000  Uiso   1.00
H993   H     0.82781   0.35261   0.96333   0.00000  Uiso   1.00
H994   H     0.89594   0.39282   0.92868   0.00000  Uiso   1.00
H995   H     0.90126   0.39387   0.53068   0.00000  Uiso   1.00
H996   H     0.92053   0.39067   0.96612   0.00000  Uiso   1.00
H997   H     0.68337   0.52666   0.71504   0.00000  Uiso   1.00
H998   H     0.98473   0.47366   0.78499   0.00000  Uiso   1.00
H999   H     0.87467   0.33613   0.71635   0.00000  Uiso   1.00
H1000  H     0.79048   0.66551   0.78391   0.00000  Uiso   1.00
H1001  H     0.83245   0.51992   0.59806   0.00000  Uiso   1.00
H1002  H     0.89500   0.41478   0.59923   0.00000  Uiso   1.00
H1003  H     0.75107   0.59415   0.97580   0.00000  Uiso   1.00
O1004  O     0.83333   0.50000   0.75000   0.00000  Uiso   1.00
O1005  O     0.82360   0.45726   0.66625   0.00000  Uiso   1.00
O1006  O     0.79354   0.53979   0.83749   0.00000  Uiso   1.00
O1007  O     0.87755   0.50826   0.65877   0.00000  Uiso   1.00
O1008  O     0.83865   0.49468   0.83749   0.00000  Uiso   1.00
O1009  O     0.84515   0.41434   0.77821   0.00000  Uiso   1.00
O1010  O     0.81247   0.59469   0.76767   0.00000  Uiso   1.00
O1011  O     0.74119   0.46584   0.73607   0.00000  Uiso   1.00
O1012  O     0.93452   0.52512   0.71806   0.00000  Uiso   1.00
O1013  O     0.73656   0.52293   0.77820   0.00000  Uiso   1.00
O1014  O     0.92106   0.48610   0.76768   0.00000  Uiso   1.00
O1015  O     0.80467   0.40236   0.73607   0.00000  Uiso   1.00
O1016  O     0.87104   0.58860   0.71806   0.00000  Uiso   1.00
Zn1017 Zn    0.85910   0.47423   0.78278   0.00000  Uiso   1.00
Zn1018 Zn    0.80125   0.45711   0.72258   0.00000  Uiso   1.00
Zn1019 Zn    0.87833   0.52997   0.71188   0.00000  Uiso   1.00
Zn1020 Zn    0.79465   0.53868   0.78277   0.00000  Uiso   1.00
C1021  C     0.05248   0.82657   0.75871   0.00000  Uiso   1.00
C1022  C     0.18426   0.78719   0.96315   0.00000  Uiso   1.00
C1023  C     0.20216   0.76402   0.98310   0.00000  Uiso   1.00
C1024  C     0.28101   0.84022   0.74122   0.00000  Uiso   1.00
C1025  C     0.20075   0.77725   0.52274   0.00000  Uiso   1.00
C1026  C     0.18008   0.81333   0.54215   0.00000  Uiso   1.00
C1027  C     0.21885   0.75481   0.54382   0.00000  Uiso   1.00
C1028  C     0.21582   0.76679   0.58322   0.00000  Uiso   1.00
C1029  C     0.17960   0.82580   0.58169   0.00000  Uiso   1.00
C1030  C     0.32700   0.84283   0.73764   0.00000  Uiso   1.00
C1031  C     0.00710   0.82416   0.76208   0.00000  Uiso   1.00
C1032  C     0.11081   0.89433   0.91985   0.00000  Uiso   1.00
C1033  C     0.18083   0.98881   0.73821   0.00000  Uiso   1.00
C1034  C     0.15140   0.67872   0.76200   0.00000  Uiso   1.00
C1035  C     0.15585   0.72278   0.75889   0.00000  Uiso   1.00
C1036  C     0.17682   0.94431   0.74138   0.00000  Uiso   1.00
C1037  C     0.18815   0.81174   0.64415   0.00000  Uiso   1.00
C1038  C     0.14566   0.85461   0.85608   0.00000  Uiso   1.00
C1039  C     0.13700   0.86352   0.89891   0.00000  Uiso   1.00
C1040  C     0.19628   0.80221   0.60200   0.00000  Uiso   1.00
C1041  C     0.10396   0.90285   0.96026   0.00000  Uiso   1.00
C1042  C     0.22208   0.72507   0.96085   0.00000  Uiso   1.00
C1043  C     0.15557   0.84091   0.91892   0.00000  Uiso   1.00
C1044  C     0.19139   0.68521   0.97163   0.00000  Uiso   1.00
C1045  C     0.21206   0.97943   0.95036   0.00000  Uiso   1.00
C1046  C     0.14755   0.84757   0.95999   0.00000  Uiso   1.00
C1047  C     0.12246   0.88009   0.98036   0.00000  Uiso   1.00
C1048  C     0.16457   0.82356   0.98115   0.00000  Uiso   1.00
C1049  C     0.16032   0.83552   0.52173   0.00000  Uiso   1.00
C1050  C     0.13533   0.86856   0.54079   0.00000  Uiso   1.00
C1051  C     0.11637   0.88989   0.52051   0.00000  Uiso   1.00
H1052  H     0.09715   0.91466   0.53640   0.00000  Uiso   1.00
H1053  H     0.09625   0.91232   0.90495   0.00000  Uiso   1.00
H1054  H     0.17728   0.81911   0.90152   0.00000  Uiso   1.00
H1055  H     0.12846   0.87812   0.57178   0.00000  Uiso   1.00
H1056  H     0.18438   0.77465   0.93362   0.00000  Uiso   1.00
H1057  H     0.21954   0.97966   0.91811   0.00000  Uiso   1.00
H1058  H     0.24226   0.97782   0.95835   0.00000  Uiso   1.00
H1059  H     0.18942   0.95114   0.95895   0.00000  Uiso   1.00
H1060  H     0.18263   0.68325   0.50371   0.00000  Uiso   1.00
H1061  H     0.16115   0.68595   0.96333   0.00000  Uiso   1.00
H1062  H     0.22928   0.72615   0.92868   0.00000  Uiso   1.00
H1063  H     0.23459   0.72721   0.53068   0.00000  Uiso   1.00
H1064  H     0.25386   0.72400   0.96612   0.00000  Uiso   1.00
H1065  H     0.01670   0.85999   0.71504   0.00000  Uiso   1.00
H1066  H     0.31807   0.80699   0.78499   0.00000  Uiso   1.00
H1067  H     0.20800   0.66946   0.71635   0.00000  Uiso   1.00
H1068  H     0.12381   0.99884   0.78391   0.00000  Uiso   1.00
H1069  H     0.16578   0.85326   0.59806   0.00000  Uiso   1.00
H1070  H     0.22834   0.74811   0.59923   0.00000  Uiso   1.00
H1071  H     0.08440   0.92748   0.97580   0.00000  Uiso   1.00
O1072  O     0.16667   0.83333   0.75000   0.00000  Uiso   1.00
O1073  O     0.15693   0.79060   0.66625   0.00000  Uiso   1.00
O1074  O     0.12687   0.87313   0.83749   0.00000  Uiso   1.00
O1075  O     0.21088   0.84159   0.65877   0.00000  Uiso   1.00
O1076  O     0.17198   0.82802   0.83749   0.00000  Uiso   1.00
O1077  O     0.17849   0.74768   0.77821   0.00000  Uiso   1.00
O1078  O     0.14581   0.92803   0.76767   0.00000  Uiso   1.00
O1079  O     0.07452   0.79917   0.73607   0.00000  Uiso   1.00
O1080  O     0.26785   0.85845   0.71806   0.00000  Uiso   1.00
O1081  O     0.06990   0.85627   0.77820   0.00000  Uiso   1.00
O1082  O     0.25440   0.81944   0.76768   0.00000  Uiso   1.00
O1083  O     0.13800   0.73570   0.73607   0.00000  Uiso   1.00
O1084  O     0.20437   0.92193   0.71806   0.00000  Uiso   1.00
Zn1085 Zn    0.19244   0.80756   0.78278   0.00000  Uiso   1.00
Zn1086 Zn    0.13459   0.79044   0.72258   0.00000  Uiso   1.00
Zn1087 Zn    0.21166   0.86331   0.71188   0.00000  Uiso   1.00
Zn1088 Zn    0.12798   0.87202   0.78277   0.00000  Uiso   1.00
C1089  C     0.38582   0.82657   0.75871   0.00000  Uiso   1.00
C1090  C     0.51760   0.78719   0.96315   0.00000  Uiso   1.00
C1091  C     0.53549   0.76402   0.98310   0.00000  Uiso   1.00
C1092  C     0.61435   0.84022   0.74122   0.00000  Uiso   1.00
C1093  C     0.53408   0.77725   0.52274   0.00000  Uiso   1.00
C1094  C     0.51342   0.81333   0.54215   0.00000  Uiso   1.00
C1095  C     0.55218   0.75481   0.54382   0.00000  Uiso   1.00
C1096  C     0.54915   0.76679   0.58322   0.00000  Uiso   1.00
C1097  C     0.51293   0.82580   0.58169   0.00000  Uiso   1.00
C1098  C     0.66034   0.84283   0.73764   0.00000  Uiso   1.00
C1099  C     0.34043   0.82416   0.76208   0.00000  Uiso   1.00
C1100  C     0.44415   0.89433   0.91985   0.00000  Uiso   1.00
C1101  C     0.51416   0.98881   0.73821   0.00000  Uiso   1.00
C1102  C     0.48474   0.67872   0.76200   0.00000  Uiso   1.00
C1103  C     0.48919   0.72278   0.75889   0.00000  Uiso   1.00
C1104  C     0.51016   0.94431   0.74138   0.00000  Uiso   1.00
C1105  C     0.52148   0.81174   0.64415   0.00000  Uiso   1.00
C1106  C     0.47899   0.85461   0.85608   0.00000  Uiso   1.00
C1107  C     0.47034   0.86352   0.89891   0.00000  Uiso   1.00
C1108  C     0.52961   0.80221   0.60200   0.00000  Uiso   1.00
C1109  C     0.43729   0.90285   0.96026   0.00000  Uiso   1.00
C1110  C     0.55541   0.72507   0.96085   0.00000  Uiso   1.00
C1111  C     0.48890   0.84091   0.91892   0.00000  Uiso   1.00
C1112  C     0.52473   0.68521   0.97163   0.00000  Uiso   1.00
C1113  C     0.54539   0.97943   0.95036   0.00000  Uiso   1.00
C1114  C     0.48088   0.84757   0.95999   0.00000  Uiso   1.00
C1115  C     0.45579   0.88009   0.98036   0.00000  Uiso   1.00
C1116  C     0.49790   0.82356   0.98115   0.00000  Uiso   1.00
C1117  C     0.49365   0.83552   0.52173   0.00000  Uiso   1.00
C1118  C     0.46867   0.86856   0.54079   0.00000  Uiso   1.00
C1119  C     0.44970   0.88989   0.52051   0.00000  Uiso   1.00
H1120  H     0.43048   0.91466   0.53640   0.00000  Uiso   1.00
H1121  H     0.42958   0.91232   0.90495   0.00000  Uiso   1.00
H1122  H     0.51061   0.81911   0.90152   0.00000  Uiso   1.00
H1123  H     0.46179   0.87812   0.57178   0.00000  Uiso   1.00
H1124  H     0.51771   0.77465   0.93362   0.00000  Uiso   1.00
H1125  H     0.55287   0.97966   0.91811   0.00000  Uiso   1.00
H1126  H     0.57559   0.97782   0.95835   0.00000  Uiso   1.00
H1127  H     0.52275   0.95114   0.95895   0.00000  Uiso   1.00
H1128  H     0.51596   0.68325   0.50371   0.00000  Uiso   1.00
H1129  H     0.49448   0.68595   0.96333   0.00000  Uiso   1.00
H1130  H     0.56261   0.72615   0.92868   0.00000  Uiso   1.00
H1131  H     0.56793   0.72721   0.53068   0.00000  Uiso   1.00
H1132  H     0.58719   0.72400   0.96612   0.00000  Uiso   1.00
H1133  H     0.35004   0.85999   0.71504   0.00000  Uiso   1.00
H1134  H     0.65140   0.80699   0.78499   0.00000  Uiso   1.00
H1135  H     0.54134   0.66946   0.71635   0.00000  Uiso   1.00
H1136  H     0.45714   0.99884   0.78391   0.00000  Uiso   1.00
H1137  H     0.49911   0.85326   0.59806   0.00000  Uiso   1.00
H1138  H     0.56167   0.74811   0.59923   0.00000  Uiso   1.00
H1139  H     0.41774   0.92748   0.97580   0.00000  Uiso   1.00
O1140  O     0.50000   0.83333   0.75000   0.00000  Uiso   1.00
O1141  O     0.49027   0.79060   0.66625   0.00000  Uiso   1.00
O1142  O     0.46020   0.87313   0.83749   0.00000  Uiso   1.00
O1143  O     0.54421   0.84159   0.65877   0.00000  Uiso   1.00
O1144  O     0.50532   0.82802   0.83749   0.00000  Uiso   1.00
O1145  O     0.51182   0.74768   0.77821   0.00000  Uiso   1.00
O1146  O     0.47914   0.92803   0.76767   0.00000  Uiso   1.00
O1147  O     0.40785   0.79917   0.73607   0.00000  Uiso   1.00
O1148  O     0.60119   0.85845   0.71806   0.00000  Uiso   1.00
O1149  O     0.40323   0.85627   0.77820   0.00000  Uiso   1.00
O1150  O     0.58773   0.81944   0.76768   0.00000  Uiso   1.00
O1151  O     0.47133   0.73570   0.73607   0.00000  Uiso   1.00
O1152  O     0.53771   0.92193   0.71806   0.00000  Uiso   1.00
Zn1153 Zn    0.52577   0.80756   0.78278   0.00000  Uiso   1.00
Zn1154 Zn    0.46792   0.79044   0.72258   0.00000  Uiso   1.00
Zn1155 Zn    0.54500   0.86331   0.71188   0.00000  Uiso   1.00
Zn1156 Zn    0.46131   0.87202   0.78277   0.00000  Uiso   1.00
C1157  C     0.71915   0.82657   0.75871   0.00000  Uiso   1.00
C1158  C     0.85093   0.78719   0.96315   0.00000  Uiso   1.00
C1159  C     0.86883   0.76402   0.98310   0.00000  Uiso   1.00
C1160  C     0.94768   0.84022   0.74122   0.00000  Uiso   1.00
C1161  C     0.86742   0.77725   0.52274   0.00000  Uiso   1.00
C1162  C     0.84675   0.81333   0.54215   0.00000  Uiso   1.00
C1163  C     0.88551   0.75481   0.54382   0.00000  Uiso   1.00
C1164  C     0.88249   0.76679   0.58322   0.00000  Uiso   1.00
C1165  C     0.84626   0.82580   0.58169   0.00000  Uiso   1.00
C1166  C     0.99367   0.84283   0.73764   0.00000  Uiso   1.00
C1167  C     0.67377   0.82416   0.76208   0.00000  Uiso   1.00
C1168  C     0.77748   0.89433   0.91985   0.00000  Uiso   1.00
C1169  C     0.84750   0.98881   0.73821   0.00000  Uiso   1.00
C1170  C     0.81807   0.67872   0.76200   0.00000  Uiso   1.00
C1171  C     0.82252   0.72278   0.75889   0.00000  Uiso   1.00
C1172  C     0.84349   0.94431   0.74138   0.00000  Uiso   1.00
C1173  C     0.85482   0.81174   0.64415   0.00000  Uiso   1.00
C1174  C     0.81233   0.85461   0.85608   0.00000  Uiso   1.00
C1175  C     0.80367   0.86352   0.89891   0.00000  Uiso   1.00
C1176  C     0.86295   0.80221   0.60200   0.00000  Uiso   1.00
C1177  C     0.77062   0.90285   0.96026   0.00000  Uiso   1.00
C1178  C     0.88874   0.72507   0.96085   0.00000  Uiso   1.00
C1179  C     0.82224   0.84091   0.91892   0.00000  Uiso   1.00
C1180  C     0.85806   0.68521   0.97163   0.00000  Uiso   1.00
C1181  C     0.87872   0.97943   0.95036   0.00000  Uiso   1.00
C1182  C     0.81422   0.84757   0.95999   0.00000  Uiso   1.00
C1183  C     0.78913   0.88009   0.98036   0.00000  Uiso   1.00
C1184  C     0.83124   0.82356   0.98115   0.00000  Uiso   1.00
C1185  C     0.82699   0.83552   0.52173   0.00000  Uiso   1.00
C1186  C     0.80200   0.86856   0.54079   0.00000  Uiso   1.00
C1187  C     0.78303   0.88989   0.52051   0.00000  Uiso   1.00
H1188  H     0.76381   0.91466   0.53640   0.00000  Uiso   1.00
H1189  H     0.76291   0.91232   0.90495   0.00000  Uiso   1.00
H1190  H     0.84394   0.81911   0.90152   0.00000  Uiso   1.00
H1191  H     0.79513   0.87812   0.57178   0.00000  Uiso   1.00
H1192  H     0.85104   0.77465   0.93362   0.00000  Uiso   1.00
H1193  H     0.88620   0.97966   0.91811   0.00000  Uiso   1.00
H1194  H     0.90893   0.97782   0.95835   0.00000  Uiso   1.00
H1195  H     0.85608   0.95114   0.95895   0.00000  Uiso   1.00
H1196  H     0.84929   0.68325   0.50371   0.00000  Uiso   1.00
H1197  H     0.82781   0.68595   0.96333   0.00000  Uiso   1.00
H1198  H     0.89594   0.72615   0.92868   0.00000  Uiso   1.00
H1199  H     0.90126   0.72721   0.53068   0.00000  Uiso   1.00
H1200  H     0.92053   0.72400   0.96612   0.00000  Uiso   1.00
H1201  H     0.68337   0.85999   0.71504   0.00000  Uiso   1.00
H1202  H     0.98473   0.80699   0.78499   0.00000  Uiso   1.00
H1203  H     0.87467   0.66946   0.71635   0.00000  Uiso   1.00
H1204  H     0.79048   0.99884   0.78391   0.00000  Uiso   1.00
H1205  H     0.83245   0.85326   0.59806   0.00000  Uiso   1.00
H1206  H     0.89500   0.74811   0.59923   0.00000  Uiso   1.00
H1207  H     0.75107   0.92748   0.97580   0.00000  Uiso   1.00
O1208  O     0.83333   0.83333   0.75000   0.00000  Uiso   1.00
O1209  O     0.82360   0.79060   0.66625   0.00000  Uiso   1.00
O1210  O     0.79354   0.87313   0.83749   0.00000  Uiso   1.00
O1211  O     0.87755   0.84159   0.65877   0.00000  Uiso   1.00
O1212  O     0.83865   0.82802   0.83749   0.00000  Uiso   1.00
O1213  O     0.84515   0.74768   0.77821   0.00000  Uiso   1.00
O1214  O     0.81247   0.92803   0.76767   0.00000  Uiso   1.00
O1215  O     0.74119   0.79917   0.73607   0.00000  Uiso   1.00
O1216  O     0.93452   0.85845   0.71806   0.00000  Uiso   1.00
O1217  O     0.73656   0.85627   0.77820   0.00000  Uiso   1.00
O1218  O     0.92106   0.81944   0.76768   0.00000  Uiso   1.00
O1219  O     0.80467   0.73570   0.73607   0.00000  Uiso   1.00
O1220  O     0.87104   0.92193   0.71806   0.00000  Uiso   1.00
Zn1221 Zn    0.85910   0.80756   0.78278   0.00000  Uiso   1.00
Zn1222 Zn    0.80125   0.79044   0.72258   0.00000  Uiso   1.00
Zn1223 Zn    0.87833   0.86331   0.71188   0.00000  Uiso   1.00
Zn1224 Zn    0.79465   0.87202   0.78277   0.00000  Uiso   1.00
loop_
_geom_bond_atom_site_label_1
_geom_bond_atom_site_label_2
_geom_bond_distance
_geom_bond_site_symmetry_2
_ccdc_geom_bond_type
C1     C11     1.438   .     S
C1     O59     1.269   .     A
C1     O61     1.269   .     A
C2     C3      1.395   .     A
C2     H36     1.076   .     S
C2     C28     1.411   .     A
C3     C22     1.521   .     S
C3     C617    1.413   .     S
C4     O60     1.284   .     A
C4     C10     1.455   .     S
C4     O62     1.280   .     A
C5     C6      1.429   .     A
C5     C7      1.413   .     A
C5     C615    1.413   1_554 S
C6     C9      1.412   .     A
C6     C29     1.426   .     A
C7     H43     1.080   .     S
C7     C8      1.388   .     A
C8     C20     1.390   .     A
C8     H50     1.084   .     S
C9     C20     1.389   .     A
C9     H49     1.077   .     S
C10    C79     1.335   .     S
C10    H113    1.088   .     S
C11    C146    1.335   1_455 S
C11    H182    1.086   1_455 S
C12    C21     1.392   .     A
C12    C19     1.400   .     A
C12    H33     1.083   .     S
C13    C16     1.451   .     S
C13    C218    1.331   .     S
C13    H251    1.088   .     S
C14    C15     1.435   .     S
C14    C421    1.331   1_545 S
C14    H456    1.086   1_545 S
C15    O57     1.277   .     A
C15    O63     1.277   .     A
C16    O58     1.273   .     A
C16    O64     1.272   .     A
C17    O53     1.270   .     A
C17    O55     1.275   .     A
C17    C20     1.451   .     S
C18    O56     1.284   .     A
C18    O54     1.282   .     A
C18    C19     1.471   .     S
C19    C23     1.399   .     A
C21    C27     1.403   .     A
C21    H51     1.084   .     S
C22    H42     1.113   .     S
C22    C24     1.536   .     S
C22    H44     1.110   .     S
C23    H34     1.076   .     S
C23    C26     1.408   .     A
C24    H41     1.112   .     S
C24    C433    1.526   1_545 S
C24    H652    1.110   .     S
C25    H38     1.111   .     S
C25    H39     1.109   .     S
C25    H37     1.111   .     S
C25    C228    1.526   .     S
C26    C28     1.427   .     A
C26    C27     1.417   .     A
C27    C643    1.390   .     S
C28    C641    1.421   .     S
C29    C30     1.418   .     A
C29    C640    1.421   1_554 S
C30    H35     1.076   .     S
C30    C31     1.387   .     A
C31    H32     1.084   .     S
C31    C639    1.390   1_554 S
H40    C636    1.110   1_554 S
H45    C146    1.088   1_455 S
H46    C79     1.086   .     S
H47    C421    1.088   1_545 S
H48    C218    1.086   .     S
O52    Zn68    1.933   .     S
O52    Zn67    1.938   .     S
O52    Zn66    1.939   .     S
O52    Zn65    1.963   .     S
O53    Zn66    1.937   .     S
O54    Zn68    1.946   .     S
O55    Zn67    1.937   .     S
O56    Zn65    1.931   .     S
O57    Zn65    1.926   .     S
O58    Zn68    1.932   .     S
O59    Zn66    1.928   .     S
O60    Zn67    1.936   .     S
O61    Zn68    1.930   .     S
O62    Zn65    1.924   .     S
O63    Zn66    1.937   .     S
O64    Zn67    1.929   .     S
C69    C79     1.438   .     S
C69    O127    1.269   .     A
C69    O129    1.269   .     A
C70    C71     1.395   .     A
C70    H104    1.076   .     S
C70    C96     1.411   .     A
C71    C90     1.521   .     S
C71    C685    1.413   .     S
C72    O128    1.284   .     A
C72    C78     1.455   .     S
C72    O130    1.280   .     A
C73    C74     1.429   .     A
C73    C75     1.413   .     A
C73    C683    1.413   1_554 S
C74    C77     1.412   .     A
C74    C97     1.426   .     A
C75    H111    1.080   .     S
C75    C76     1.388   .     A
C76    C88     1.390   .     A
C76    H118    1.084   .     S
C77    C88     1.389   .     A
C77    H117    1.077   .     S
C78    C147    1.335   .     S
C78    H181    1.088   .     S
C80    C89     1.392   .     A
C80    C87     1.400   .     A
C80    H101    1.083   .     S
C81    C84     1.451   .     S
C81    C286    1.331   .     S
C81    H319    1.088   .     S
C82    C83     1.435   .     S
C82    C489    1.331   1_545 S
C82    H524    1.086   1_545 S
C83    O125    1.277   .     A
C83    O131    1.277   .     A
C84    O126    1.273   .     A
C84    O132    1.272   .     A
C85    O121    1.270   .     A
C85    O123    1.275   .     A
C85    C88     1.451   .     S
C86    O124    1.284   .     A
C86    O122    1.282   .     A
C86    C87     1.471   .     S
C87    C91     1.399   .     A
C89    C95     1.403   .     A
C89    H119    1.084   .     S
C90    H110    1.113   .     S
C90    C92     1.536   .     S
C90    H112    1.110   .     S
C91    H102    1.076   .     S
C91    C94     1.408   .     A
C92    H109    1.112   .     S
C92    C501    1.526   1_545 S
C92    H720    1.110   .     S
C93    H106    1.111   .     S
C93    H107    1.109   .     S
C93    H105    1.111   .     S
C93    C296    1.526   .     S
C94    C96     1.427   .     A
C94    C95     1.417   .     A
C95    C711    1.390   .     S
C96    C709    1.421   .     S
C97    C98     1.418   .     A
C97    C708    1.421   1_554 S
C98    H103    1.076   .     S
C98    C99     1.387   .     A
C99    H100    1.084   .     S
C99    C707    1.390   1_554 S
H108   C704    1.110   1_554 S
H114   C147    1.086   .     S
H115   C489    1.088   1_545 S
H116   C286    1.086   .     S
O120   Zn136   1.933   .     S
O120   Zn135   1.938   .     S
O120   Zn134   1.939   .     S
O120   Zn133   1.963   .     S
O121   Zn134   1.937   .     S
O122   Zn136   1.946   .     S
O123   Zn135   1.937   .     S
O124   Zn133   1.931   .     S
O125   Zn133   1.926   .     S
O126   Zn136   1.932   .     S
O127   Zn134   1.928   .     S
O128   Zn135   1.936   .     S
O129   Zn136   1.930   .     S
O130   Zn133   1.924   .     S
O131   Zn134   1.937   .     S
O132   Zn135   1.929   .     S
C137   C147    1.438   .     S
C137   O195    1.269   .     A
C137   O197    1.269   .     A
C138   C139    1.395   .     A
C138   H172    1.076   .     S
C138   C164    1.411   .     A
C139   C158    1.521   .     S
C139   C753    1.413   .     S
C140   O196    1.284   .     A
C140   C146    1.455   .     S
C140   O198    1.280   .     A
C141   C142    1.429   .     A
C141   C143    1.413   .     A
C141   C751    1.413   1_554 S
C142   C145    1.412   .     A
C142   C165    1.426   .     A
C143   H179    1.080   .     S
C143   C144    1.388   .     A
C144   C156    1.390   .     A
C144   H186    1.084   .     S
C145   C156    1.389   .     A
C145   H185    1.077   .     S
C146   C11     1.335   1_655 S
C146   H45     1.088   1_655 S
C148   C157    1.392   .     A
C148   C155    1.400   .     A
C148   H169    1.083   .     S
C149   C152    1.451   .     S
C149   C354    1.331   .     S
C149   H387    1.088   .     S
C150   C151    1.435   .     S
C150   C557    1.331   1_545 S
C150   H592    1.086   1_545 S
C151   O193    1.277   .     A
C151   O199    1.277   .     A
C152   O194    1.273   .     A
C152   O200    1.272   .     A
C153   O189    1.270   .     A
C153   O191    1.275   .     A
C153   C156    1.451   .     S
C154   O192    1.284   .     A
C154   O190    1.282   .     A
C154   C155    1.471   .     S
C155   C159    1.399   .     A
C157   C163    1.403   .     A
C157   H187    1.084   .     S
C158   H178    1.113   .     S
C158   C160    1.536   .     S
C158   H180    1.110   .     S
C159   H170    1.076   .     S
C159   C162    1.408   .     A
C160   H177    1.112   .     S
C160   C569    1.526   1_545 S
C160   H788    1.110   .     S
C161   H174    1.111   .     S
C161   H175    1.109   .     S
C161   H173    1.111   .     S
C161   C364    1.526   .     S
C162   C164    1.427   .     A
C162   C163    1.417   .     A
C163   C779    1.390   .     S
C164   C777    1.421   .     S
C165   C166    1.418   .     A
C165   C776    1.421   1_554 S
C166   H171    1.076   .     S
C166   C167    1.387   .     A
C167   H168    1.084   .     S
C167   C775    1.390   1_554 S
H176   C772    1.110   1_554 S
H182   C11     1.086   1_655 S
H183   C557    1.088   1_545 S
H184   C354    1.086   .     S
O188   Zn204   1.933   .     S
O188   Zn203   1.938   .     S
O188   Zn202   1.939   .     S
O188   Zn201   1.963   .     S
O189   Zn202   1.937   .     S
O190   Zn204   1.946   .     S
O191   Zn203   1.937   .     S
O192   Zn201   1.931   .     S
O193   Zn201   1.926   .     S
O194   Zn204   1.932   .     S
O195   Zn202   1.928   .     S
O196   Zn203   1.936   .     S
O197   Zn204   1.930   .     S
O198   Zn201   1.924   .     S
O199   Zn202   1.937   .     S
O200   Zn203   1.929   .     S
C205   C215    1.438   .     S
C205   O263    1.269   .     A
C205   O265    1.269   .     A
C206   C207    1.395   .     A
C206   H240    1.076   .     S
C206   C232    1.411   .     A
C207   C226    1.521   .     S
C207   C821    1.413   .     S
C208   O264    1.284   .     A
C208   C214    1.455   .     S
C208   O266    1.280   .     A
C209   C210    1.429   .     A
C209   C211    1.413   .     A
C209   C819    1.413   1_554 S
C210   C213    1.412   .     A
C210   C233    1.426   .     A
C211   H247    1.080   .     S
C211   C212    1.388   .     A
C212   C224    1.390   .     A
C212   H254    1.084   .     S
C213   C224    1.389   .     A
C213   H253    1.077   .     S
C214   C283    1.335   .     S
C214   H317    1.088   .     S
C215   C350    1.335   1_455 S
C215   H386    1.086   1_455 S
C216   C225    1.392   .     A
C216   C223    1.400   .     A
C216   H237    1.083   .     S
C217   C220    1.451   .     S
C217   C422    1.331   .     S
C217   H455    1.088   .     S
C218   C219    1.435   .     S
C219   O261    1.277   .     A
C219   O267    1.277   .     A
C220   O262    1.273   .     A
C220   O268    1.272   .     A
C221   O257    1.270   .     A
C221   O259    1.275   .     A
C221   C224    1.451   .     S
C222   O260    1.284   .     A
C222   O258    1.282   .     A
C222   C223    1.471   .     S
C223   C227    1.399   .     A
C225   C231    1.403   .     A
C225   H255    1.084   .     S
C226   H246    1.113   .     S
C226   C228    1.536   .     S
C226   H248    1.110   .     S
C227   H238    1.076   .     S
C227   C230    1.408   .     A
C228   H245    1.112   .     S
C228   H856    1.110   .     S
C229   H242    1.111   .     S
C229   H243    1.109   .     S
C229   H241    1.111   .     S
C229   C432    1.526   .     S
C230   C232    1.427   .     A
C230   C231    1.417   .     A
C231   C847    1.390   .     S
C232   C845    1.421   .     S
C233   C234    1.418   .     A
C233   C844    1.421   1_554 S
C234   H239    1.076   .     S
C234   C235    1.387   .     A
C235   H236    1.084   .     S
C235   C843    1.390   1_554 S
H244   C840    1.110   1_554 S
H249   C350    1.088   1_455 S
H250   C283    1.086   .     S
H252   C422    1.086   .     S
O256   Zn272   1.933   .     S
O256   Zn271   1.938   .     S
O256   Zn270   1.939   .     S
O256   Zn269   1.963   .     S
O257   Zn270   1.937   .     S
O258   Zn272   1.946   .     S
O259   Zn271   1.937   .     S
O260   Zn269   1.931   .     S
O261   Zn269   1.926   .     S
O262   Zn272   1.932   .     S
O263   Zn270   1.928   .     S
O264   Zn271   1.936   .     S
O265   Zn272   1.930   .     S
O266   Zn269   1.924   .     S
O267   Zn270   1.937   .     S
O268   Zn271   1.929   .     S
C273   C283    1.438   .     S
C273   O331    1.269   .     A
C273   O333    1.269   .     A
C274   C275    1.395   .     A
C274   H308    1.076   .     S
C274   C300    1.411   .     A
C275   C294    1.521   .     S
C275   C889    1.413   .     S
C276   O332    1.284   .     A
C276   C282    1.455   .     S
C276   O334    1.280   .     A
C277   C278    1.429   .     A
C277   C279    1.413   .     A
C277   C887    1.413   1_554 S
C278   C281    1.412   .     A
C278   C301    1.426   .     A
C279   H315    1.080   .     S
C279   C280    1.388   .     A
C280   C292    1.390   .     A
C280   H322    1.084   .     S
C281   C292    1.389   .     A
C281   H321    1.077   .     S
C282   C351    1.335   .     S
C282   H385    1.088   .     S
C284   C293    1.392   .     A
C284   C291    1.400   .     A
C284   H305    1.083   .     S
C285   C288    1.451   .     S
C285   C490    1.331   .     S
C285   H523    1.088   .     S
C286   C287    1.435   .     S
C287   O329    1.277   .     A
C287   O335    1.277   .     A
C288   O330    1.273   .     A
C288   O336    1.272   .     A
C289   O325    1.270   .     A
C289   O327    1.275   .     A
C289   C292    1.451   .     S
C290   O328    1.284   .     A
C290   O326    1.282   .     A
C290   C291    1.471   .     S
C291   C295    1.399   .     A
C293   C299    1.403   .     A
C293   H323    1.084   .     S
C294   H314    1.113   .     S
C294   C296    1.536   .     S
C294   H316    1.110   .     S
C295   H306    1.076   .     S
C295   C298    1.408   .     A
C296   H313    1.112   .     S
C296   H924    1.110   .     S
C297   H310    1.111   .     S
C297   H311    1.109   .     S
C297   H309    1.111   .     S
C297   C500    1.526   .     S
C298   C300    1.427   .     A
C298   C299    1.417   .     A
C299   C915    1.390   .     S
C300   C913    1.421   .     S
C301   C302    1.418   .     A
C301   C912    1.421   1_554 S
C302   H307    1.076   .     S
C302   C303    1.387   .     A
C303   H304    1.084   .     S
C303   C911    1.390   1_554 S
H312   C908    1.110   1_554 S
H318   C351    1.086   .     S
H320   C490    1.086   .     S
O324   Zn340   1.933   .     S
O324   Zn339   1.938   .     S
O324   Zn338   1.939   .     S
O324   Zn337   1.963   .     S
O325   Zn338   1.937   .     S
O326   Zn340   1.946   .     S
O327   Zn339   1.937   .     S
O328   Zn337   1.931   .     S
O329   Zn337   1.926   .     S
O330   Zn340   1.932   .     S
O331   Zn338   1.928   .     S
O332   Zn339   1.936   .     S
O333   Zn340   1.930   .     S
O334   Zn337   1.924   .     S
O335   Zn338   1.937   .     S
O336   Zn339   1.929   .     S
C341   C351    1.438   .     S
C341   O399    1.269   .     A
C341   O401    1.269   .     A
C342   C343    1.395   .     A
C342   H376    1.076   .     S
C342   C368    1.411   .     A
C343   C362    1.521   .     S
C343   C957    1.413   .     S
C344   O400    1.284   .     A
C344   C350    1.455   .     S
C344   O402    1.280   .     A
C345   C346    1.429   .     A
C345   C347    1.413   .     A
C345   C955    1.413   1_554 S
C346   C349    1.412   .     A
C346   C369    1.426   .     A
C347   H383    1.080   .     S
C347   C348    1.388   .     A
C348   C360    1.390   .     A
C348   H390    1.084   .     S
C349   C360    1.389   .     A
C349   H389    1.077   .     S
C350   C215    1.335   1_655 S
C350   H249    1.088   1_655 S
C352   C361    1.392   .     A
C352   C359    1.400   .     A
C352   H373    1.083   .     S
C353   C356    1.451   .     S
C353   C558    1.331   .     S
C353   H591    1.088   .     S
C354   C355    1.435   .     S
C355   O397    1.277   .     A
C355   O403    1.277   .     A
C356   O398    1.273   .     A
C356   O404    1.272   .     A
C357   O393    1.270   .     A
C357   O395    1.275   .     A
C357   C360    1.451   .     S
C358   O396    1.284   .     A
C358   O394    1.282   .     A
C358   C359    1.471   .     S
C359   C363    1.399   .     A
C361   C367    1.403   .     A
C361   H391    1.084   .     S
C362   H382    1.113   .     S
C362   C364    1.536   .     S
C362   H384    1.110   .     S
C363   H374    1.076   .     S
C363   C366    1.408   .     A
C364   H381    1.112   .     S
C364   H992    1.110   .     S
C365   H378    1.111   .     S
C365   H379    1.109   .     S
C365   H377    1.111   .     S
C365   C568    1.526   .     S
C366   C368    1.427   .     A
C366   C367    1.417   .     A
C367   C983    1.390   .     S
C368   C981    1.421   .     S
C369   C370    1.418   .     A
C369   C980    1.421   1_554 S
C370   H375    1.076   .     S
C370   C371    1.387   .     A
C371   H372    1.084   .     S
C371   C979    1.390   1_554 S
H380   C976    1.110   1_554 S
H386   C215    1.086   1_655 S
H388   C558    1.086   .     S
O392   Zn408   1.933   .     S
O392   Zn407   1.938   .     S
O392   Zn406   1.939   .     S
O392   Zn405   1.963   .     S
O393   Zn406   1.937   .     S
O394   Zn408   1.946   .     S
O395   Zn407   1.937   .     S
O396   Zn405   1.931   .     S
O397   Zn405   1.926   .     S
O398   Zn408   1.932   .     S
O399   Zn406   1.928   .     S
O400   Zn407   1.936   .     S
O401   Zn408   1.930   .     S
O402   Zn405   1.924   .     S
O403   Zn406   1.937   .     S
O404   Zn407   1.929   .     S
C409   C419    1.438   .     S
C409   O467    1.269   .     A
C409   O469    1.269   .     A
C410   C411    1.395   .     A
C410   H444    1.076   .     S
C410   C436    1.411   .     A
C411   C430    1.521   .     S
C411   C1025   1.413   .     S
C412   O468    1.284   .     A
C412   C418    1.455   .     S
C412   O470    1.280   .     A
C413   C414    1.429   .     A
C413   C415    1.413   .     A
C413   C1023   1.413   1_554 S
C414   C417    1.412   .     A
C414   C437    1.426   .     A
C415   H451    1.080   .     S
C415   C416    1.388   .     A
C416   C428    1.390   .     A
C416   H458    1.084   .     S
C417   C428    1.389   .     A
C417   H457    1.077   .     S
C418   C487    1.335   .     S
C418   H521    1.088   .     S
C419   C554    1.335   1_455 S
C419   H590    1.086   1_455 S
C420   C429    1.392   .     A
C420   C427    1.400   .     A
C420   H441    1.083   .     S
C421   C424    1.451   .     S
C421   C14     1.331   1_565 S
C421   H47     1.088   1_565 S
C422   C423    1.435   .     S
C423   O465    1.277   .     A
C423   O471    1.277   .     A
C424   O466    1.273   .     A
C424   O472    1.272   .     A
C425   O461    1.270   .     A
C425   O463    1.275   .     A
C425   C428    1.451   .     S
C426   O464    1.284   .     A
C426   O462    1.282   .     A
C426   C427    1.471   .     S
C427   C431    1.399   .     A
C429   C435    1.403   .     A
C429   H459    1.084   .     S
C430   H450    1.113   .     S
C430   C432    1.536   .     S
C430   H452    1.110   .     S
C431   H442    1.076   .     S
C431   C434    1.408   .     A
C432   H449    1.112   .     S
C432   H1060   1.110   .     S
C433   H446    1.111   .     S
C433   H447    1.109   .     S
C433   H445    1.111   .     S
C433   C24     1.526   1_565 S
C434   C436    1.427   .     A
C434   C435    1.417   .     A
C435   C1051   1.390   .     S
C436   C1049   1.421   .     S
C437   C438    1.418   .     A
C437   C1048   1.421   1_554 S
C438   H443    1.076   .     S
C438   C439    1.387   .     A
C439   H440    1.084   .     S
C439   C1047   1.390   1_554 S
H448   C1044   1.110   1_554 S
H453   C554    1.088   1_455 S
H454   C487    1.086   .     S
H456   C14     1.086   1_565 S
O460   Zn476   1.933   .     S
O460   Zn475   1.938   .     S
O460   Zn474   1.939   .     S
O460   Zn473   1.963   .     S
O461   Zn474   1.937   .     S
O462   Zn476   1.946   .     S
O463   Zn475   1.937   .     S
O464   Zn473   1.931   .     S
O465   Zn473   1.926   .     S
O466   Zn476   1.932   .     S
O467   Zn474   1.928   .     S
O468   Zn475   1.936   .     S
O469   Zn476   1.930   .     S
O470   Zn473   1.924   .     S
O471   Zn474   1.937   .     S
O472   Zn475   1.929   .     S
C477   C487    1.438   .     S
C477   O535    1.269   .     A
C477   O537    1.269   .     A
C478   C479    1.395   .     A
C478   H512    1.076   .     S
C478   C504    1.411   .     A
C479   C498    1.521   .     S
C479   C1093   1.413   .     S
C480   O536    1.284   .     A
C480   C486    1.455   .     S
C480   O538    1.280   .     A
C481   C482    1.429   .     A
C481   C483    1.413   .     A
C481   C1091   1.413   1_554 S
C482   C485    1.412   .     A
C482   C505    1.426   .     A
C483   H519    1.080   .     S
C483   C484    1.388   .     A
C484   C496    1.390   .     A
C484   H526    1.084   .     S
C485   C496    1.389   .     A
C485   H525    1.077   .     S
C486   C555    1.335   .     S
C486   H589    1.088   .     S
C488   C497    1.392   .     A
C488   C495    1.400   .     A
C488   H509    1.083   .     S
C489   C492    1.451   .     S
C489   C82     1.331   1_565 S
C489   H115    1.088   1_565 S
C490   C491    1.435   .     S
C491   O533    1.277   .     A
C491   O539    1.277   .     A
C492   O534    1.273   .     A
C492   O540    1.272   .     A
C493   O529    1.270   .     A
C493   O531    1.275   .     A
C493   C496    1.451   .     S
C494   O532    1.284   .     A
C494   O530    1.282   .     A
C494   C495    1.471   .     S
C495   C499    1.399   .     A
C497   C503    1.403   .     A
C497   H527    1.084   .     S
C498   H518    1.113   .     S
C498   C500    1.536   .     S
C498   H520    1.110   .     S
C499   H510    1.076   .     S
C499   C502    1.408   .     A
C500   H517    1.112   .     S
C500   H1128   1.110   .     S
C501   H514    1.111   .     S
C501   H515    1.109   .     S
C501   H513    1.111   .     S
C501   C92     1.526   1_565 S
C502   C504    1.427   .     A
C502   C503    1.417   .     A
C503   C1119   1.390   .     S
C504   C1117   1.421   .     S
C505   C506    1.418   .     A
C505   C1116   1.421   1_554 S
C506   H511    1.076   .     S
C506   C507    1.387   .     A
C507   H508    1.084   .     S
C507   C1115   1.390   1_554 S
H516   C1112   1.110   1_554 S
H522   C555    1.086   .     S
H524   C82     1.086   1_565 S
O528   Zn544   1.933   .     S
O528   Zn543   1.938   .     S
O528   Zn542   1.939   .     S
O528   Zn541   1.963   .     S
O529   Zn542   1.937   .     S
O530   Zn544   1.946   .     S
O531   Zn543   1.937   .     S
O532   Zn541   1.931   .     S
O533   Zn541   1.926   .     S
O534   Zn544   1.932   .     S
O535   Zn542   1.928   .     S
O536   Zn543   1.936   .     S
O537   Zn544   1.930   .     S
O538   Zn541   1.924   .     S
O539   Zn542   1.937   .     S
O540   Zn543   1.929   .     S
C545   C555    1.438   .     S
C545   O603    1.269   .     A
C545   O605    1.269   .     A
C546   C547    1.395   .     A
C546   H580    1.076   .     S
C546   C572    1.411   .     A
C547   C566    1.521   .     S
C547   C1161   1.413   .     S
C548   O604    1.284   .     A
C548   C554    1.455   .     S
C548   O606    1.280   .     A
C549   C550    1.429   .     A
C549   C551    1.413   .     A
C549   C1159   1.413   1_554 S
C550   C553    1.412   .     A
C550   C573    1.426   .     A
C551   H587    1.080   .     S
C551   C552    1.388   .     A
C552   C564    1.390   .     A
C552   H594    1.084   .     S
C553   C564    1.389   .     A
C553   H593    1.077   .     S
C554   C419    1.335   1_655 S
C554   H453    1.088   1_655 S
C556   C565    1.392   .     A
C556   C563    1.400   .     A
C556   H577    1.083   .     S
C557   C560    1.451   .     S
C557   C150    1.331   1_565 S
C557   H183    1.088   1_565 S
C558   C559    1.435   .     S
C559   O601    1.277   .     A
C559   O607    1.277   .     A
C560   O602    1.273   .     A
C560   O608    1.272   .     A
C561   O597    1.270   .     A
C561   O599    1.275   .     A
C561   C564    1.451   .     S
C562   O600    1.284   .     A
C562   O598    1.282   .     A
C562   C563    1.471   .     S
C563   C567    1.399   .     A
C565   C571    1.403   .     A
C565   H595    1.084   .     S
C566   H586    1.113   .     S
C566   C568    1.536   .     S
C566   H588    1.110   .     S
C567   H578    1.076   .     S
C567   C570    1.408   .     A
C568   H585    1.112   .     S
C568   H1196   1.110   .     S
C569   H582    1.111   .     S
C569   H583    1.109   .     S
C569   H581    1.111   .     S
C569   C160    1.526   1_565 S
C570   C572    1.427   .     A
C570   C571    1.417   .     A
C571   C1187   1.390   .     S
C572   C1185   1.421   .     S
C573   C574    1.418   .     A
C573   C1184   1.421   1_554 S
C574   H579    1.076   .     S
C574   C575    1.387   .     A
C575   H576    1.084   .     S
C575   C1183   1.390   1_554 S
H584   C1180   1.110   1_554 S
H590   C419    1.086   1_655 S
H592   C150    1.086   1_565 S
O596   Zn612   1.933   .     S
O596   Zn611   1.938   .     S
O596   Zn610   1.939   .     S
O596   Zn609   1.963   .     S
O597   Zn610   1.937   .     S
O598   Zn612   1.946   .     S
O599   Zn611   1.937   .     S
O600   Zn609   1.931   .     S
O601   Zn609   1.926   .     S
O602   Zn612   1.932   .     S
O603   Zn610   1.928   .     S
O604   Zn611   1.936   .     S
O605   Zn612   1.930   .     S
O606   Zn609   1.924   .     S
O607   Zn610   1.937   .     S
O608   Zn611   1.929   .     S
C613   C623    1.438   .     S
C613   O671    1.269   .     A
C613   O673    1.269   .     A
C614   C615    1.395   .     A
C614   H648    1.076   .     S
C614   C640    1.411   .     A
C615   C634    1.521   .     S
C615   C5      1.413   1_556 S
C616   O672    1.284   .     A
C616   C622    1.455   .     S
C616   O674    1.280   .     A
C617   C618    1.429   .     A
C617   C619    1.413   .     A
C618   C621    1.412   .     A
C618   C641    1.426   .     A
C619   H655    1.080   .     S
C619   C620    1.388   .     A
C620   C632    1.390   .     A
C620   H662    1.084   .     S
C621   C632    1.389   .     A
C621   H661    1.077   .     S
C622   C691    1.335   .     S
C622   H725    1.088   .     S
C623   C758    1.335   1_455 S
C623   H794    1.086   1_455 S
C624   C633    1.392   .     A
C624   C631    1.400   .     A
C624   H645    1.083   .     S
C625   C628    1.451   .     S
C625   C830    1.331   .     S
C625   H863    1.088   .     S
C626   C627    1.435   .     S
C626   C1033   1.331   1_545 S
C626   H1068   1.086   1_545 S
C627   O669    1.277   .     A
C627   O675    1.277   .     A
C628   O670    1.273   .     A
C628   O676    1.272   .     A
C629   O665    1.270   .     A
C629   O667    1.275   .     A
C629   C632    1.451   .     S
C630   O668    1.284   .     A
C630   O666    1.282   .     A
C630   C631    1.471   .     S
C631   C635    1.399   .     A
C633   C639    1.403   .     A
C633   H663    1.084   .     S
C634   H654    1.113   .     S
C634   C636    1.536   .     S
C634   H656    1.110   .     S
C635   H646    1.076   .     S
C635   C638    1.408   .     A
C636   H653    1.112   .     S
C636   C1045   1.526   1_545 S
C636   H40     1.110   1_556 S
C637   H650    1.111   .     S
C637   H651    1.109   .     S
C637   H649    1.111   .     S
C637   C840    1.526   .     S
C638   C640    1.427   .     A
C638   C639    1.417   .     A
C639   C31     1.390   1_556 S
C640   C29     1.421   1_556 S
C641   C642    1.418   .     A
C642   H647    1.076   .     S
C642   C643    1.387   .     A
C643   H644    1.084   .     S
H657   C758    1.088   1_455 S
H658   C691    1.086   .     S
H659   C1033   1.088   1_545 S
H660   C830    1.086   .     S
O664   Zn680   1.933   .     S
O664   Zn679   1.938   .     S
O664   Zn678   1.939   .     S
O664   Zn677   1.963   .     S
O665   Zn678   1.937   .     S
O666   Zn680   1.946   .     S
O667   Zn679   1.937   .     S
O668   Zn677   1.931   .     S
O669   Zn677   1.926   .     S
O670   Zn680   1.932   .     S
O671   Zn678   1.928   .     S
O672   Zn679   1.936   .     S
O673   Zn680   1.930   .     S
O674   Zn677   1.924   .     S
O675   Zn678   1.937   .     S
O676   Zn679   1.929   .     S
C681   C691    1.438   .     S
C681   O739    1.269   .     A
C681   O741    1.269   .     A
C682   C683    1.395   .     A
C682   H716    1.076   .     S
C682   C708    1.411   .     A
C683   C702    1.521   .     S
C683   C73     1.413   1_556 S
C684   O740    1.284   .     A
C684   C690    1.455   .     S
C684   O742    1.280   .     A
C685   C686    1.429   .     A
C685   C687    1.413   .     A
C686   C689    1.412   .     A
C686   C709    1.426   .     A
C687   H723    1.080   .     S
C687   C688    1.388   .     A
C688   C700    1.390   .     A
C688   H730    1.084   .     S
C689   C700    1.389   .     A
C689   H729    1.077   .     S
C690   C759    1.335   .     S
C690   H793    1.088   .     S
C692   C701    1.392   .     A
C692   C699    1.400   .     A
C692   H713    1.083   .     S
C693   C696    1.451   .     S
C693   C898    1.331   .     S
C693   H931    1.088   .     S
C694   C695    1.435   .     S
C694   C1101   1.331   1_545 S
C694   H1136   1.086   1_545 S
C695   O737    1.277   .     A
C695   O743    1.277   .     A
C696   O738    1.273   .     A
C696   O744    1.272   .     A
C697   O733    1.270   .     A
C697   O735    1.275   .     A
C697   C700    1.451   .     S
C698   O736    1.284   .     A
C698   O734    1.282   .     A
C698   C699    1.471   .     S
C699   C703    1.399   .     A
C701   C707    1.403   .     A
C701   H731    1.084   .     S
C702   H722    1.113   .     S
C702   C704    1.536   .     S
C702   H724    1.110   .     S
C703   H714    1.076   .     S
C703   C706    1.408   .     A
C704   H721    1.112   .     S
C704   C1113   1.526   1_545 S
C704   H108    1.110   1_556 S
C705   H718    1.111   .     S
C705   H719    1.109   .     S
C705   H717    1.111   .     S
C705   C908    1.526   .     S
C706   C708    1.427   .     A
C706   C707    1.417   .     A
C707   C99     1.390   1_556 S
C708   C97     1.421   1_556 S
C709   C710    1.418   .     A
C710   H715    1.076   .     S
C710   C711    1.387   .     A
C711   H712    1.084   .     S
H726   C759    1.086   .     S
H727   C1101   1.088   1_545 S
H728   C898    1.086   .     S
O732   Zn748   1.933   .     S
O732   Zn747   1.938   .     S
O732   Zn746   1.939   .     S
O732   Zn745   1.963   .     S
O733   Zn746   1.937   .     S
O734   Zn748   1.946   .     S
O735   Zn747   1.937   .     S
O736   Zn745   1.931   .     S
O737   Zn745   1.926   .     S
O738   Zn748   1.932   .     S
O739   Zn746   1.928   .     S
O740   Zn747   1.936   .     S
O741   Zn748   1.930   .     S
O742   Zn745   1.924   .     S
O743   Zn746   1.937   .     S
O744   Zn747   1.929   .     S
C749   C759    1.438   .     S
C749   O807    1.269   .     A
C749   O809    1.269   .     A
C750   C751    1.395   .     A
C750   H784    1.076   .     S
C750   C776    1.411   .     A
C751   C770    1.521   .     S
C751   C141    1.413   1_556 S
C752   O808    1.284   .     A
C752   C758    1.455   .     S
C752   O810    1.280   .     A
C753   C754    1.429   .     A
C753   C755    1.413   .     A
C754   C757    1.412   .     A
C754   C777    1.426   .     A
C755   H791    1.080   .     S
C755   C756    1.388   .     A
C756   C768    1.390   .     A
C756   H798    1.084   .     S
C757   C768    1.389   .     A
C757   H797    1.077   .     S
C758   C623    1.335   1_655 S
C758   H657    1.088   1_655 S
C760   C769    1.392   .     A
C760   C767    1.400   .     A
C760   H781    1.083   .     S
C761   C764    1.451   .     S
C761   C966    1.331   .     S
C761   H999    1.088   .     S
C762   C763    1.435   .     S
C762   C1169   1.331   1_545 S
C762   H1204   1.086   1_545 S
C763   O805    1.277   .     A
C763   O811    1.277   .     A
C764   O806    1.273   .     A
C764   O812    1.272   .     A
C765   O801    1.270   .     A
C765   O803    1.275   .     A
C765   C768    1.451   .     S
C766   O804    1.284   .     A
C766   O802    1.282   .     A
C766   C767    1.471   .     S
C767   C771    1.399   .     A
C769   C775    1.403   .     A
C769   H799    1.084   .     S
C770   H790    1.113   .     S
C770   C772    1.536   .     S
C770   H792    1.110   .     S
C771   H782    1.076   .     S
C771   C774    1.408   .     A
C772   H789    1.112   .     S
C772   C1181   1.526   1_545 S
C772   H176    1.110   1_556 S
C773   H786    1.111   .     S
C773   H787    1.109   .     S
C773   H785    1.111   .     S
C773   C976    1.526   .     S
C774   C776    1.427   .     A
C774   C775    1.417   .     A
C775   C167    1.390   1_556 S
C776   C165    1.421   1_556 S
C777   C778    1.418   .     A
C778   H783    1.076   .     S
C778   C779    1.387   .     A
C779   H780    1.084   .     S
H794   C623    1.086   1_655 S
H795   C1169   1.088   1_545 S
H796   C966    1.086   .     S
O800   Zn816   1.933   .     S
O800   Zn815   1.938   .     S
O800   Zn814   1.939   .     S
O800   Zn813   1.963   .     S
O801   Zn814   1.937   .     S
O802   Zn816   1.946   .     S
O803   Zn815   1.937   .     S
O804   Zn813   1.931   .     S
O805   Zn813   1.926   .     S
O806   Zn816   1.932   .     S
O807   Zn814   1.928   .     S
O808   Zn815   1.936   .     S
O809   Zn816   1.930   .     S
O810   Zn813   1.924   .     S
O811   Zn814   1.937   .     S
O812   Zn815   1.929   .     S
C817   C827    1.438   .     S
C817   O875    1.269   .     A
C817   O877    1.269   .     A
C818   C819    1.395   .     A
C818   H852    1.076   .     S
C818   C844    1.411   .     A
C819   C838    1.521   .     S
C819   C209    1.413   1_556 S
C820   O876    1.284   .     A
C820   C826    1.455   .     S
C820   O878    1.280   .     A
C821   C822    1.429   .     A
C821   C823    1.413   .     A
C822   C825    1.412   .     A
C822   C845    1.426   .     A
C823   H859    1.080   .     S
C823   C824    1.388   .     A
C824   C836    1.390   .     A
C824   H866    1.084   .     S
C825   C836    1.389   .     A
C825   H865    1.077   .     S
C826   C895    1.335   .     S
C826   H929    1.088   .     S
C827   C962    1.335   1_455 S
C827   H998    1.086   1_455 S
C828   C837    1.392   .     A
C828   C835    1.400   .     A
C828   H849    1.083   .     S
C829   C832    1.451   .     S
C829   C1034   1.331   .     S
C829   H1067   1.088   .     S
C830   C831    1.435   .     S
C831   O873    1.277   .     A
C831   O879    1.277   .     A
C832   O874    1.273   .     A
C832   O880    1.272   .     A
C833   O869    1.270   .     A
C833   O871    1.275   .     A
C833   C836    1.451   .     S
C834   O872    1.284   .     A
C834   O870    1.282   .     A
C834   C835    1.471   .     S
C835   C839    1.399   .     A
C837   C843    1.403   .     A
C837   H867    1.084   .     S
C838   H858    1.113   .     S
C838   C840    1.536   .     S
C838   H860    1.110   .     S
C839   H850    1.076   .     S
C839   C842    1.408   .     A
C840   H857    1.112   .     S
C840   H244    1.110   1_556 S
C841   H854    1.111   .     S
C841   H855    1.109   .     S
C841   H853    1.111   .     S
C841   C1044   1.526   .     S
C842   C844    1.427   .     A
C842   C843    1.417   .     A
C843   C235    1.390   1_556 S
C844   C233    1.421   1_556 S
C845   C846    1.418   .     A
C846   H851    1.076   .     S
C846   C847    1.387   .     A
C847   H848    1.084   .     S
H861   C962    1.088   1_455 S
H862   C895    1.086   .     S
H864   C1034   1.086   .     S
O868   Zn884   1.933   .     S
O868   Zn883   1.938   .     S
O868   Zn882   1.939   .     S
O868   Zn881   1.963   .     S
O869   Zn882   1.937   .     S
O870   Zn884   1.946   .     S
O871   Zn883   1.937   .     S
O872   Zn881   1.931   .     S
O873   Zn881   1.926   .     S
O874   Zn884   1.932   .     S
O875   Zn882   1.928   .     S
O876   Zn883   1.936   .     S
O877   Zn884   1.930   .     S
O878   Zn881   1.924   .     S
O879   Zn882   1.937   .     S
O880   Zn883   1.929   .     S
C885   C895    1.438   .     S
C885   O943    1.269   .     A
C885   O945    1.269   .     A
C886   C887    1.395   .     A
C886   H920    1.076   .     S
C886   C912    1.411   .     A
C887   C906    1.521   .     S
C887   C277    1.413   1_556 S
C888   O944    1.284   .     A
C888   C894    1.455   .     S
C888   O946    1.280   .     A
C889   C890    1.429   .     A
C889   C891    1.413   .     A
C890   C893    1.412   .     A
C890   C913    1.426   .     A
C891   H927    1.080   .     S
C891   C892    1.388   .     A
C892   C904    1.390   .     A
C892   H934    1.084   .     S
C893   C904    1.389   .     A
C893   H933    1.077   .     S
C894   C963    1.335   .     S
C894   H997    1.088   .     S
C896   C905    1.392   .     A
C896   C903    1.400   .     A
C896   H917    1.083   .     S
C897   C900    1.451   .     S
C897   C1102   1.331   .     S
C897   H1135   1.088   .     S
C898   C899    1.435   .     S
C899   O941    1.277   .     A
C899   O947    1.277   .     A
C900   O942    1.273   .     A
C900   O948    1.272   .     A
C901   O937    1.270   .     A
C901   O939    1.275   .     A
C901   C904    1.451   .     S
C902   O940    1.284   .     A
C902   O938    1.282   .     A
C902   C903    1.471   .     S
C903   C907    1.399   .     A
C905   C911    1.403   .     A
C905   H935    1.084   .     S
C906   H926    1.113   .     S
C906   C908    1.536   .     S
C906   H928    1.110   .     S
C907   H918    1.076   .     S
C907   C910    1.408   .     A
C908   H925    1.112   .     S
C908   H312    1.110   1_556 S
C909   H922    1.111   .     S
C909   H923    1.109   .     S
C909   H921    1.111   .     S
C909   C1112   1.526   .     S
C910   C912    1.427   .     A
C910   C911    1.417   .     A
C911   C303    1.390   1_556 S
C912   C301    1.421   1_556 S
C913   C914    1.418   .     A
C914   H919    1.076   .     S
C914   C915    1.387   .     A
C915   H916    1.084   .     S
H930   C963    1.086   .     S
H932   C1102   1.086   .     S
O936   Zn952   1.933   .     S
O936   Zn951   1.938   .     S
O936   Zn950   1.939   .     S
O936   Zn949   1.963   .     S
O937   Zn950   1.937   .     S
O938   Zn952   1.946   .     S
O939   Zn951   1.937   .     S
O940   Zn949   1.931   .     S
O941   Zn949   1.926   .     S
O942   Zn952   1.932   .     S
O943   Zn950   1.928   .     S
O944   Zn951   1.936   .     S
O945   Zn952   1.930   .     S
O946   Zn949   1.924   .     S
O947   Zn950   1.937   .     S
O948   Zn951   1.929   .     S
C953   C963    1.438   .     S
C953   O1011   1.269   .     A
C953   O1013   1.269   .     A
C954   C955    1.395   .     A
C954   H988    1.076   .     S
C954   C980    1.411   .     A
C955   C974    1.521   .     S
C955   C345    1.413   1_556 S
C956   O1012   1.284   .     A
C956   C962    1.455   .     S
C956   O1014   1.280   .     A
C957   C958    1.429   .     A
C957   C959    1.413   .     A
C958   C961    1.412   .     A
C958   C981    1.426   .     A
C959   H995    1.080   .     S
C959   C960    1.388   .     A
C960   C972    1.390   .     A
C960   H1002   1.084   .     S
C961   C972    1.389   .     A
C961   H1001   1.077   .     S
C962   C827    1.335   1_655 S
C962   H861    1.088   1_655 S
C964   C973    1.392   .     A
C964   C971    1.400   .     A
C964   H985    1.083   .     S
C965   C968    1.451   .     S
C965   C1170   1.331   .     S
C965   H1203   1.088   .     S
C966   C967    1.435   .     S
C967   O1009   1.277   .     A
C967   O1015   1.277   .     A
C968   O1010   1.273   .     A
C968   O1016   1.272   .     A
C969   O1005   1.270   .     A
C969   O1007   1.275   .     A
C969   C972    1.451   .     S
C970   O1008   1.284   .     A
C970   O1006   1.282   .     A
C970   C971    1.471   .     S
C971   C975    1.399   .     A
C973   C979    1.403   .     A
C973   H1003   1.084   .     S
C974   H994    1.113   .     S
C974   C976    1.536   .     S
C974   H996    1.110   .     S
C975   H986    1.076   .     S
C975   C978    1.408   .     A
C976   H993    1.112   .     S
C976   H380    1.110   1_556 S
C977   H990    1.111   .     S
C977   H991    1.109   .     S
C977   H989    1.111   .     S
C977   C1180   1.526   .     S
C978   C980    1.427   .     A
C978   C979    1.417   .     A
C979   C371    1.390   1_556 S
C980   C369    1.421   1_556 S
C981   C982    1.418   .     A
C982   H987    1.076   .     S
C982   C983    1.387   .     A
C983   H984    1.084   .     S
H998   C827    1.086   1_655 S
H1000  C1170   1.086   .     S
O1004  Zn1020  1.933   .     S
O1004  Zn1019  1.938   .     S
O1004  Zn1018  1.939   .     S
O1004  Zn1017  1.963   .     S
O1005  Zn1018  1.937   .     S
O1006  Zn1020  1.946   .     S
O1007  Zn1019  1.937   .     S
O1008  Zn1017  1.931   .     S
O1009  Zn1017  1.926   .     S
O1010  Zn1020  1.932   .     S
O1011  Zn1018  1.928   .     S
O1012  Zn1019  1.936   .     S
O1013  Zn1020  1.930   .     S
O1014  Zn1017  1.924   .     S
O1015  Zn1018  1.937   .     S
O1016  Zn1019  1.929   .     S
C1021  C1031   1.438   .     S
C1021  O1079   1.269   .     A
C1021  O1081   1.269   .     A
C1022  C1023   1.395   .     A
C1022  H1056   1.076   .     S
C1022  C1048   1.411   .     A
C1023  C1042   1.521   .     S
C1023  C413    1.413   1_556 S
C1024  O1080   1.284   .     A
C1024  C1030   1.455   .     S
C1024  O1082   1.280   .     A
C1025  C1026   1.429   .     A
C1025  C1027   1.413   .     A
C1026  C1029   1.412   .     A
C1026  C1049   1.426   .     A
C1027  H1063   1.080   .     S
C1027  C1028   1.388   .     A
C1028  C1040   1.390   .     A
C1028  H1070   1.084   .     S
C1029  C1040   1.389   .     A
C1029  H1069   1.077   .     S
C1030  C1099   1.335   .     S
C1030  H1133   1.088   .     S
C1031  C1166   1.335   1_455 S
C1031  H1202   1.086   1_455 S
C1032  C1041   1.392   .     A
C1032  C1039   1.400   .     A
C1032  H1053   1.083   .     S
C1033  C1036   1.451   .     S
C1033  C626    1.331   1_565 S
C1033  H659    1.088   1_565 S
C1034  C1035   1.435   .     S
C1035  O1077   1.277   .     A
C1035  O1083   1.277   .     A
C1036  O1078   1.273   .     A
C1036  O1084   1.272   .     A
C1037  O1073   1.270   .     A
C1037  O1075   1.275   .     A
C1037  C1040   1.451   .     S
C1038  O1076   1.284   .     A
C1038  O1074   1.282   .     A
C1038  C1039   1.471   .     S
C1039  C1043   1.399   .     A
C1041  C1047   1.403   .     A
C1041  H1071   1.084   .     S
C1042  H1062   1.113   .     S
C1042  C1044   1.536   .     S
C1042  H1064   1.110   .     S
C1043  H1054   1.076   .     S
C1043  C1046   1.408   .     A
C1044  H1061   1.112   .     S
C1044  H448    1.110   1_556 S
C1045  H1058   1.111   .     S
C1045  H1059   1.109   .     S
C1045  H1057   1.111   .     S
C1045  C636    1.526   1_565 S
C1046  C1048   1.427   .     A
C1046  C1047   1.417   .     A
C1047  C439    1.390   1_556 S
C1048  C437    1.421   1_556 S
C1049  C1050   1.418   .     A
C1050  H1055   1.076   .     S
C1050  C1051   1.387   .     A
C1051  H1052   1.084   .     S
H1065  C1166   1.088   1_455 S
H1066  C1099   1.086   .     S
H1068  C626    1.086   1_565 S
O1072  Zn1088  1.933   .     S
O1072  Zn1087  1.938   .     S
O1072  Zn1086  1.939   .     S
O1072  Zn1085  1.963   .     S
O1073  Zn1086  1.937   .     S
O1074  Zn1088  1.946   .     S
O1075  Zn1087  1.937   .     S
O1076  Zn1085  1.931   .     S
O1077  Zn1085  1.926   .     S
O1078  Zn1088  1.932   .     S
O1079  Zn1086  1.928   .     S
O1080  Zn1087  1.936   .     S
O1081  Zn1088  1.930   .     S
O1082  Zn1085  1.924   .     S
O1083  Zn1086  1.937   .     S
O1084  Zn1087  1.929   .     S
C1089  C1099   1.438   .     S
C1089  O1147   1.269   .     A
C1089  O1149   1.269   .     A
C1090  C1091   1.395   .     A
C1090  H1124   1.076   .     S
C1090  C1116   1.411   .     A
C1091  C1110   1.521   .     S
C1091  C481    1.413   1_556 S
C1092  O1148   1.284   .     A
C1092  C1098   1.455   .     S
C1092  O1150   1.280   .     A
C1093  C1094   1.429   .     A
C1093  C1095   1.413   .     A
C1094  C1097   1.412   .     A
C1094  C1117   1.426   .     A
C1095  H1131   1.080   .     S
C1095  C1096   1.388   .     A
C1096  C1108   1.390   .     A
C1096  H1138   1.084   .     S
C1097  C1108   1.389   .     A
C1097  H1137   1.077   .     S
C1098  C1167   1.335   .     S
C1098  H1201   1.088   .     S
C1100  C1109   1.392   .     A
C1100  C1107   1.400   .     A
C1100  H1121   1.083   .     S
C1101  C1104   1.451   .     S
C1101  C694    1.331   1_565 S
C1101  H727    1.088   1_565 S
C1102  C1103   1.435   .     S
C1103  O1145   1.277   .     A
C1103  O1151   1.277   .     A
C1104  O1146   1.273   .     A
C1104  O1152   1.272   .     A
C1105  O1141   1.270   .     A
C1105  O1143   1.275   .     A
C1105  C1108   1.451   .     S
C1106  O1144   1.284   .     A
C1106  O1142   1.282   .     A
C1106  C1107   1.471   .     S
C1107  C1111   1.399   .     A
C1109  C1115   1.403   .     A
C1109  H1139   1.084   .     S
C1110  H1130   1.113   .     S
C1110  C1112   1.536   .     S
C1110  H1132   1.110   .     S
C1111  H1122   1.076   .     S
C1111  C1114   1.408   .     A
C1112  H1129   1.112   .     S
C1112  H516    1.110   1_556 S
C1113  H1126   1.111   .     S
C1113  H1127   1.109   .     S
C1113  H1125   1.111   .     S
C1113  C704    1.526   1_565 S
C1114  C1116   1.427   .     A
C1114  C1115   1.417   .     A
C1115  C507    1.390   1_556 S
C1116  C505    1.421   1_556 S
C1117  C1118   1.418   .     A
C1118  H1123   1.076   .     S
C1118  C1119   1.387   .     A
C1119  H1120   1.084   .     S
H1134  C1167   1.086   .     S
H1136  C694    1.086   1_565 S
O1140  Zn1156  1.933   .     S
O1140  Zn1155  1.938   .     S
O1140  Zn1154  1.939   .     S
O1140  Zn1153  1.963   .     S
O1141  Zn1154  1.937   .     S
O1142  Zn1156  1.946   .     S
O1143  Zn1155  1.937   .     S
O1144  Zn1153  1.931   .     S
O1145  Zn1153  1.926   .     S
O1146  Zn1156  1.932   .     S
O1147  Zn1154  1.928   .     S
O1148  Zn1155  1.936   .     S
O1149  Zn1156  1.930   .     S
O1150  Zn1153  1.924   .     S
O1151  Zn1154  1.937   .     S
O1152  Zn1155  1.929   .     S
C1157  C1167   1.438   .     S
C1157  O1215   1.269   .     A
C1157  O1217   1.269   .     A
C1158  C1159   1.395   .     A
C1158  H1192   1.076   .     S
C1158  C1184   1.411   .     A
C1159  C1178   1.521   .     S
C1159  C549    1.413   1_556 S
C1160  O1216   1.284   .     A
C1160  C1166   1.455   .     S
C1160  O1218   1.280   .     A
C1161  C1162   1.429   .     A
C1161  C1163   1.413   .     A
C1162  C1165   1.412   .     A
C1162  C1185   1.426   .     A
C1163  H1199   1.080   .     S
C1163  C1164   1.388   .     A
C1164  C1176   1.390   .     A
C1164  H1206   1.084   .     S
C1165  C1176   1.389   .     A
C1165  H1205   1.077   .     S
C1166  C1031   1.335   1_655 S
C1166  H1065   1.088   1_655 S
C1168  C1177   1.392   .     A
C1168  C1175   1.400   .     A
C1168  H1189   1.083   .     S
C1169  C1172   1.451   .     S
C1169  C762    1.331   1_565 S
C1169  H795    1.088   1_565 S
C1170  C1171   1.435   .     S
C1171  O1213   1.277   .     A
C1171  O1219   1.277   .     A
C1172  O1214   1.273   .     A
C1172  O1220   1.272   .     A
C1173  O1209   1.270   .     A
C1173  O1211   1.275   .     A
C1173  C1176   1.451   .     S
C1174  O1212   1.284   .     A
C1174  O1210   1.282   .     A
C1174  C1175   1.471   .     S
C1175  C1179   1.399   .     A
C1177  C1183   1.403   .     A
C1177  H1207   1.084   .     S
C1178  H1198   1.113   .     S
C1178  C1180   1.536   .     S
C1178  H1200   1.110   .     S
C1179  H1190   1.076   .     S
C1179  C1182   1.408   .     A
C1180  H1197   1.112   .     S
C1180  H584    1.110   1_556 S
C1181  H1194   1.111   .     S
C1181  H1195   1.109   .     S
C1181  H1193   1.111   .     S
C1181  C772    1.526   1_565 S
C1182  C1184   1.427   .     A
C1182  C1183   1.417   .     A
C1183  C575    1.390   1_556 S
C1184  C573    1.421   1_556 S
C1185  C1186   1.418   .     A
C1186  H1191   1.076   .     S
C1186  C1187   1.387   .     A
C1187  H1188   1.084   .     S
H1202  C1031   1.086   1_655 S
H1204  C762    1.086   1_565 S
O1208  Zn1224  1.933   .     S
O1208  Zn1223  1.938   .     S
O1208  Zn1222  1.939   .     S
O1208  Zn1221  1.963   .     S
O1209  Zn1222  1.937   .     S
O1210  Zn1224  1.946   .     S
O1211  Zn1223  1.937   .     S
O1212  Zn1221  1.931   .     S
O1213  Zn1221  1.926   .     S
O1214  Zn1224  1.932   .     S
O1215  Zn1222  1.928   .     S
O1216  Zn1223  1.936   .     S
O1217  Zn1224  1.930   .     S
O1218  Zn1221  1.924   .     S
O1219  Zn1222  1.937   .     S
O1220  Zn1223  1.929   .     S
