data_str_m1_o10_o16_pcu_sym.138
_audit_creation_date              2020-01-03
_audit_creation_method            'Materials Studio'
_symmetry_space_group_name_H-M    'P1'
_symmetry_Int_Tables_number       1
_symmetry_cell_setting            triclinic
loop_
_symmetry_equiv_pos_as_xyz
  x,y,z
_cell_length_a                    32.7479
_cell_length_b                    32.6537
_cell_length_c                    31.1368
_cell_angle_alpha                 96.3425
_cell_angle_beta                  74.5853
_cell_angle_gamma                 98.7191
loop_
_atom_site_label
_atom_site_type_symbol
_atom_site_fract_x
_atom_site_fract_y
_atom_site_fract_z
_atom_site_U_iso_or_equiv
_atom_site_adp_type
_atom_site_occupancy
C1     C     0.05314   0.15965   0.25971   0.00000  Uiso   1.00
C2     C     0.16616   0.15971   0.06079   0.00000  Uiso   1.00
C3     C     0.22966   0.12756   0.05619   0.00000  Uiso   1.00
C4     C     0.28067   0.17411   0.24043   0.00000  Uiso   1.00
C5     C     0.13685   0.18755   0.41973   0.00000  Uiso   1.00
C6     C     0.32613   0.17907   0.23915   0.00000  Uiso   1.00
C7     C     0.00820   0.15585   0.26341   0.00000  Uiso   1.00
C8     C     0.18080   0.32269   0.23722   0.00000  Uiso   1.00
C9     C     0.15132   0.01202   0.26393   0.00000  Uiso   1.00
C10    C     0.15616   0.05617   0.26011   0.00000  Uiso   1.00
C11    C     0.17663   0.27791   0.24024   0.00000  Uiso   1.00
C12    C     0.07753   0.18157   0.48537   0.00000  Uiso   1.00
C13    C     0.18562   0.14812   0.12956   0.00000  Uiso   1.00
C14    C     0.14897   0.18492   0.37066   0.00000  Uiso   1.00
C15    C     0.24248   0.12997   0.01023   0.00000  Uiso   1.00
C16    C     0.19265   0.14325   0.08137   0.00000  Uiso   1.00
C17    C     0.09405   0.19141   0.44139   0.00000  Uiso   1.00
C18    C     0.31649   0.12242   0.28977   0.00000  Uiso   1.00
C19    C     0.21747   0.00856   0.20497   0.00000  Uiso   1.00
C20    C     0.13495   0.18507   0.08865   0.00000  Uiso   1.00
C21    C     0.02064   0.21092   0.21239   0.00000  Uiso   1.00
C22    C     0.10364   0.16880   0.00859   0.00000  Uiso   1.00
C23    C     0.14809   0.16942   0.48970   0.00000  Uiso   1.00
C24    C     0.16462   0.17830   0.44429   0.00000  Uiso   1.00
C25    C     0.17608   0.15848   0.01351   0.00000  Uiso   1.00
C26    C     0.21714   0.14821   0.48900   0.00000  Uiso   1.00
C27    C     0.23338   0.15968   0.44510   0.00000  Uiso   1.00
C28    C     0.20829   0.17673   0.42416   0.00000  Uiso   1.00
H29    H     0.24988   0.11514   0.07270   0.00000  Uiso   1.00
H30    H     0.26626   0.15753   0.42716   0.00000  Uiso   1.00
H31    H     0.07232   0.19843   0.42317   0.00000  Uiso   1.00
H32    H     0.08793   0.15665   0.04050   0.00000  Uiso   1.00
H33    H     0.04374   0.18160   0.00077   0.00000  Uiso   1.00
H34    H     0.22348   0.18773   0.39149   0.00000  Uiso   1.00
H35    H     0.09824   0.01576   0.30989   0.00000  Uiso   1.00
H36    H     0.27860   0.10517   0.45690   0.00000  Uiso   1.00
N37    N     0.29668   0.09572   0.31084   0.00000  Uiso   1.00
N38    N     0.24665   0.02387   0.17930   0.00000  Uiso   1.00
N39    N     0.11031   0.20543   0.11098   0.00000  Uiso   1.00
N40    N     0.04271   0.23651   0.19126   0.00000  Uiso   1.00
O41    O     0.16667   0.16667   0.25000   0.00000  Uiso   1.00
O42    O     0.15451   0.12637   0.15458   0.00000  Uiso   1.00
O43    O     0.12940   0.20391   0.34968   0.00000  Uiso   1.00
O44    O     0.20824   0.17759   0.14606   0.00000  Uiso   1.00
O45    O     0.17451   0.15880   0.34968   0.00000  Uiso   1.00
O46    O     0.11572   0.32711   0.29389   0.00000  Uiso   1.00
O47    O     0.28020   0.11497   0.48771   0.00000  Uiso   1.00
O48    O     0.17930   0.08019   0.28213   0.00000  Uiso   1.00
O49    O     0.14632   0.26085   0.27013   0.00000  Uiso   1.00
O50    O     0.07412   0.13291   0.23413   0.00000  Uiso   1.00
O51    O     0.26693   0.19272   0.21360   0.00000  Uiso   1.00
O52    O     0.07071   0.18878   0.28213   0.00000  Uiso   1.00
O53    O     0.25491   0.15226   0.27013   0.00000  Uiso   1.00
O54    O     0.13760   0.06944   0.23413   0.00000  Uiso   1.00
O55    O     0.20345   0.25620   0.21360   0.00000  Uiso   1.00
Zn56   Zn    0.19338   0.13994   0.28734   0.00000  Uiso   1.00
Zn57   Zn    0.13379   0.12458   0.21875   0.00000  Uiso   1.00
Zn58   Zn    0.21056   0.19775   0.20657   0.00000  Uiso   1.00
Zn59   Zn    0.12893   0.20439   0.28733   0.00000  Uiso   1.00
C60    C     0.38648   0.15965   0.25971   0.00000  Uiso   1.00
C61    C     0.49950   0.15971   0.06079   0.00000  Uiso   1.00
C62    C     0.56299   0.12756   0.05619   0.00000  Uiso   1.00
C63    C     0.61401   0.17411   0.24043   0.00000  Uiso   1.00
C64    C     0.47018   0.18755   0.41973   0.00000  Uiso   1.00
C65    C     0.65946   0.17907   0.23915   0.00000  Uiso   1.00
C66    C     0.34153   0.15585   0.26341   0.00000  Uiso   1.00
C67    C     0.51414   0.32269   0.23722   0.00000  Uiso   1.00
C68    C     0.48465   0.01202   0.26393   0.00000  Uiso   1.00
C69    C     0.48950   0.05617   0.26011   0.00000  Uiso   1.00
C70    C     0.50997   0.27791   0.24024   0.00000  Uiso   1.00
C71    C     0.41086   0.18157   0.48537   0.00000  Uiso   1.00
C72    C     0.51896   0.14812   0.12956   0.00000  Uiso   1.00
C73    C     0.48230   0.18492   0.37066   0.00000  Uiso   1.00
C74    C     0.57581   0.12997   0.01023   0.00000  Uiso   1.00
C75    C     0.52599   0.14325   0.08137   0.00000  Uiso   1.00
C76    C     0.42739   0.19141   0.44139   0.00000  Uiso   1.00
C77    C     0.64983   0.12242   0.28977   0.00000  Uiso   1.00
C78    C     0.55080   0.00856   0.20497   0.00000  Uiso   1.00
C79    C     0.46829   0.18507   0.08865   0.00000  Uiso   1.00
C80    C     0.35397   0.21092   0.21239   0.00000  Uiso   1.00
C81    C     0.43697   0.16880   0.00859   0.00000  Uiso   1.00
C82    C     0.48142   0.16942   0.48970   0.00000  Uiso   1.00
C83    C     0.49795   0.17830   0.44429   0.00000  Uiso   1.00
C84    C     0.50941   0.15848   0.01351   0.00000  Uiso   1.00
C85    C     0.55048   0.14821   0.48900   0.00000  Uiso   1.00
C86    C     0.56671   0.15968   0.44510   0.00000  Uiso   1.00
C87    C     0.54163   0.17673   0.42416   0.00000  Uiso   1.00
H88    H     0.58322   0.11514   0.07270   0.00000  Uiso   1.00
H89    H     0.59959   0.15753   0.42716   0.00000  Uiso   1.00
H90    H     0.40565   0.19843   0.42317   0.00000  Uiso   1.00
H91    H     0.42127   0.15665   0.04050   0.00000  Uiso   1.00
H92    H     0.37707   0.18160   0.00077   0.00000  Uiso   1.00
H93    H     0.55682   0.18773   0.39149   0.00000  Uiso   1.00
H94    H     0.43157   0.01576   0.30989   0.00000  Uiso   1.00
H95    H     0.61193   0.10517   0.45690   0.00000  Uiso   1.00
N96    N     0.63001   0.09572   0.31084   0.00000  Uiso   1.00
N97    N     0.57999   0.02387   0.17930   0.00000  Uiso   1.00
N98    N     0.44364   0.20543   0.11098   0.00000  Uiso   1.00
N99    N     0.37604   0.23651   0.19126   0.00000  Uiso   1.00
O100   O     0.50000   0.16667   0.25000   0.00000  Uiso   1.00
O101   O     0.48784   0.12637   0.15458   0.00000  Uiso   1.00
O102   O     0.46274   0.20391   0.34968   0.00000  Uiso   1.00
O103   O     0.54157   0.17759   0.14606   0.00000  Uiso   1.00
O104   O     0.50785   0.15880   0.34968   0.00000  Uiso   1.00
O105   O     0.44906   0.32711   0.29389   0.00000  Uiso   1.00
O106   O     0.61354   0.11497   0.48771   0.00000  Uiso   1.00
O107   O     0.51264   0.08019   0.28213   0.00000  Uiso   1.00
O108   O     0.47965   0.26085   0.27013   0.00000  Uiso   1.00
O109   O     0.40745   0.13291   0.23413   0.00000  Uiso   1.00
O110   O     0.60026   0.19272   0.21360   0.00000  Uiso   1.00
O111   O     0.40405   0.18878   0.28213   0.00000  Uiso   1.00
O112   O     0.58824   0.15226   0.27013   0.00000  Uiso   1.00
O113   O     0.47093   0.06944   0.23413   0.00000  Uiso   1.00
O114   O     0.53678   0.25620   0.21360   0.00000  Uiso   1.00
Zn115  Zn    0.52672   0.13994   0.28734   0.00000  Uiso   1.00
Zn116  Zn    0.46713   0.12458   0.21875   0.00000  Uiso   1.00
Zn117  Zn    0.54389   0.19775   0.20657   0.00000  Uiso   1.00
Zn118  Zn    0.46226   0.20439   0.28733   0.00000  Uiso   1.00
C119   C     0.71981   0.15965   0.25971   0.00000  Uiso   1.00
C120   C     0.83283   0.15971   0.06079   0.00000  Uiso   1.00
C121   C     0.89633   0.12756   0.05619   0.00000  Uiso   1.00
C122   C     0.94734   0.17411   0.24043   0.00000  Uiso   1.00
C123   C     0.80351   0.18755   0.41973   0.00000  Uiso   1.00
C124   C     0.99279   0.17907   0.23915   0.00000  Uiso   1.00
C125   C     0.67487   0.15585   0.26341   0.00000  Uiso   1.00
C126   C     0.84747   0.32269   0.23722   0.00000  Uiso   1.00
C127   C     0.81799   0.01202   0.26393   0.00000  Uiso   1.00
C128   C     0.82283   0.05617   0.26011   0.00000  Uiso   1.00
C129   C     0.84330   0.27791   0.24024   0.00000  Uiso   1.00
C130   C     0.74420   0.18157   0.48537   0.00000  Uiso   1.00
C131   C     0.85229   0.14812   0.12956   0.00000  Uiso   1.00
C132   C     0.81564   0.18492   0.37066   0.00000  Uiso   1.00
C133   C     0.90914   0.12997   0.01023   0.00000  Uiso   1.00
C134   C     0.85932   0.14325   0.08137   0.00000  Uiso   1.00
C135   C     0.76072   0.19141   0.44139   0.00000  Uiso   1.00
C136   C     0.98316   0.12242   0.28977   0.00000  Uiso   1.00
C137   C     0.88413   0.00856   0.20497   0.00000  Uiso   1.00
C138   C     0.80162   0.18507   0.08865   0.00000  Uiso   1.00
C139   C     0.68731   0.21092   0.21239   0.00000  Uiso   1.00
C140   C     0.77031   0.16880   0.00859   0.00000  Uiso   1.00
C141   C     0.81476   0.16942   0.48970   0.00000  Uiso   1.00
C142   C     0.83128   0.17830   0.44429   0.00000  Uiso   1.00
C143   C     0.84275   0.15848   0.01351   0.00000  Uiso   1.00
C144   C     0.88381   0.14821   0.48900   0.00000  Uiso   1.00
C145   C     0.90004   0.15968   0.44510   0.00000  Uiso   1.00
C146   C     0.87496   0.17673   0.42416   0.00000  Uiso   1.00
H147   H     0.91655   0.11514   0.07270   0.00000  Uiso   1.00
H148   H     0.93292   0.15753   0.42716   0.00000  Uiso   1.00
H149   H     0.73898   0.19843   0.42317   0.00000  Uiso   1.00
H150   H     0.75460   0.15665   0.04050   0.00000  Uiso   1.00
H151   H     0.71041   0.18160   0.00077   0.00000  Uiso   1.00
H152   H     0.89015   0.18773   0.39149   0.00000  Uiso   1.00
H153   H     0.76491   0.01576   0.30989   0.00000  Uiso   1.00
H154   H     0.94527   0.10517   0.45690   0.00000  Uiso   1.00
N155   N     0.96335   0.09572   0.31084   0.00000  Uiso   1.00
N156   N     0.91332   0.02387   0.17930   0.00000  Uiso   1.00
N157   N     0.77697   0.20543   0.11098   0.00000  Uiso   1.00
N158   N     0.70937   0.23651   0.19126   0.00000  Uiso   1.00
O159   O     0.83333   0.16667   0.25000   0.00000  Uiso   1.00
O160   O     0.82118   0.12637   0.15458   0.00000  Uiso   1.00
O161   O     0.79607   0.20391   0.34968   0.00000  Uiso   1.00
O162   O     0.87491   0.17759   0.14606   0.00000  Uiso   1.00
O163   O     0.84118   0.15880   0.34968   0.00000  Uiso   1.00
O164   O     0.78239   0.32711   0.29389   0.00000  Uiso   1.00
O165   O     0.94687   0.11497   0.48771   0.00000  Uiso   1.00
O166   O     0.84597   0.08019   0.28213   0.00000  Uiso   1.00
O167   O     0.81298   0.26085   0.27013   0.00000  Uiso   1.00
O168   O     0.74078   0.13291   0.23413   0.00000  Uiso   1.00
O169   O     0.93360   0.19272   0.21360   0.00000  Uiso   1.00
O170   O     0.73738   0.18878   0.28213   0.00000  Uiso   1.00
O171   O     0.92158   0.15226   0.27013   0.00000  Uiso   1.00
O172   O     0.80426   0.06944   0.23413   0.00000  Uiso   1.00
O173   O     0.87012   0.25620   0.21360   0.00000  Uiso   1.00
Zn174  Zn    0.86005   0.13994   0.28734   0.00000  Uiso   1.00
Zn175  Zn    0.80046   0.12458   0.21875   0.00000  Uiso   1.00
Zn176  Zn    0.87723   0.19775   0.20657   0.00000  Uiso   1.00
Zn177  Zn    0.79560   0.20439   0.28733   0.00000  Uiso   1.00
C178   C     0.05314   0.49298   0.25971   0.00000  Uiso   1.00
C179   C     0.16616   0.49304   0.06079   0.00000  Uiso   1.00
C180   C     0.22966   0.46090   0.05619   0.00000  Uiso   1.00
C181   C     0.28067   0.50744   0.24043   0.00000  Uiso   1.00
C182   C     0.13685   0.52089   0.41973   0.00000  Uiso   1.00
C183   C     0.32613   0.51240   0.23915   0.00000  Uiso   1.00
C184   C     0.00820   0.48918   0.26341   0.00000  Uiso   1.00
C185   C     0.18080   0.65602   0.23722   0.00000  Uiso   1.00
C186   C     0.15132   0.34535   0.26393   0.00000  Uiso   1.00
C187   C     0.15616   0.38951   0.26011   0.00000  Uiso   1.00
C188   C     0.17663   0.61125   0.24024   0.00000  Uiso   1.00
C189   C     0.07753   0.51490   0.48537   0.00000  Uiso   1.00
C190   C     0.18562   0.48146   0.12956   0.00000  Uiso   1.00
C191   C     0.14897   0.51825   0.37066   0.00000  Uiso   1.00
C192   C     0.24248   0.46331   0.01023   0.00000  Uiso   1.00
C193   C     0.19265   0.47658   0.08137   0.00000  Uiso   1.00
C194   C     0.09405   0.52475   0.44139   0.00000  Uiso   1.00
C195   C     0.31649   0.45575   0.28977   0.00000  Uiso   1.00
C196   C     0.21747   0.34189   0.20497   0.00000  Uiso   1.00
C197   C     0.13495   0.51840   0.08865   0.00000  Uiso   1.00
C198   C     0.02064   0.54425   0.21239   0.00000  Uiso   1.00
C199   C     0.10364   0.50214   0.00859   0.00000  Uiso   1.00
C200   C     0.14809   0.50275   0.48970   0.00000  Uiso   1.00
C201   C     0.16462   0.51163   0.44429   0.00000  Uiso   1.00
C202   C     0.17608   0.49181   0.01351   0.00000  Uiso   1.00
C203   C     0.21714   0.48155   0.48900   0.00000  Uiso   1.00
C204   C     0.23338   0.49302   0.44510   0.00000  Uiso   1.00
C205   C     0.20829   0.51006   0.42416   0.00000  Uiso   1.00
H206   H     0.24988   0.44847   0.07270   0.00000  Uiso   1.00
H207   H     0.26626   0.49086   0.42716   0.00000  Uiso   1.00
H208   H     0.07232   0.53177   0.42317   0.00000  Uiso   1.00
H209   H     0.08793   0.48998   0.04050   0.00000  Uiso   1.00
H210   H     0.04374   0.51493   0.00077   0.00000  Uiso   1.00
H211   H     0.22348   0.52106   0.39149   0.00000  Uiso   1.00
H212   H     0.09824   0.34909   0.30989   0.00000  Uiso   1.00
H213   H     0.27860   0.43850   0.45690   0.00000  Uiso   1.00
N214   N     0.29668   0.42905   0.31084   0.00000  Uiso   1.00
N215   N     0.24665   0.35721   0.17930   0.00000  Uiso   1.00
N216   N     0.11031   0.53876   0.11098   0.00000  Uiso   1.00
N217   N     0.04271   0.56984   0.19126   0.00000  Uiso   1.00
O218   O     0.16667   0.50000   0.25000   0.00000  Uiso   1.00
O219   O     0.15451   0.45970   0.15458   0.00000  Uiso   1.00
O220   O     0.12940   0.53724   0.34968   0.00000  Uiso   1.00
O221   O     0.20824   0.51092   0.14606   0.00000  Uiso   1.00
O222   O     0.17451   0.49213   0.34968   0.00000  Uiso   1.00
O223   O     0.11572   0.66044   0.29389   0.00000  Uiso   1.00
O224   O     0.28020   0.44831   0.48771   0.00000  Uiso   1.00
O225   O     0.17930   0.41352   0.28213   0.00000  Uiso   1.00
O226   O     0.14632   0.59418   0.27013   0.00000  Uiso   1.00
O227   O     0.07412   0.46625   0.23413   0.00000  Uiso   1.00
O228   O     0.26693   0.52605   0.21360   0.00000  Uiso   1.00
O229   O     0.07071   0.52211   0.28213   0.00000  Uiso   1.00
O230   O     0.25491   0.48559   0.27013   0.00000  Uiso   1.00
O231   O     0.13760   0.40277   0.23413   0.00000  Uiso   1.00
O232   O     0.20345   0.58953   0.21360   0.00000  Uiso   1.00
Zn233  Zn    0.19338   0.47327   0.28734   0.00000  Uiso   1.00
Zn234  Zn    0.13379   0.45791   0.21875   0.00000  Uiso   1.00
Zn235  Zn    0.21056   0.53109   0.20657   0.00000  Uiso   1.00
Zn236  Zn    0.12893   0.53773   0.28733   0.00000  Uiso   1.00
C237   C     0.38648   0.49298   0.25971   0.00000  Uiso   1.00
C238   C     0.49950   0.49304   0.06079   0.00000  Uiso   1.00
C239   C     0.56299   0.46090   0.05619   0.00000  Uiso   1.00
C240   C     0.61401   0.50744   0.24043   0.00000  Uiso   1.00
C241   C     0.47018   0.52089   0.41973   0.00000  Uiso   1.00
C242   C     0.65946   0.51240   0.23915   0.00000  Uiso   1.00
C243   C     0.34153   0.48918   0.26341   0.00000  Uiso   1.00
C244   C     0.51414   0.65602   0.23722   0.00000  Uiso   1.00
C245   C     0.48465   0.34535   0.26393   0.00000  Uiso   1.00
C246   C     0.48950   0.38951   0.26011   0.00000  Uiso   1.00
C247   C     0.50997   0.61125   0.24024   0.00000  Uiso   1.00
C248   C     0.41086   0.51490   0.48537   0.00000  Uiso   1.00
C249   C     0.51896   0.48146   0.12956   0.00000  Uiso   1.00
C250   C     0.48230   0.51825   0.37066   0.00000  Uiso   1.00
C251   C     0.57581   0.46331   0.01023   0.00000  Uiso   1.00
C252   C     0.52599   0.47658   0.08137   0.00000  Uiso   1.00
C253   C     0.42739   0.52475   0.44139   0.00000  Uiso   1.00
C254   C     0.64983   0.45575   0.28977   0.00000  Uiso   1.00
C255   C     0.55080   0.34189   0.20497   0.00000  Uiso   1.00
C256   C     0.46829   0.51840   0.08865   0.00000  Uiso   1.00
C257   C     0.35397   0.54425   0.21239   0.00000  Uiso   1.00
C258   C     0.43697   0.50214   0.00859   0.00000  Uiso   1.00
C259   C     0.48142   0.50275   0.48970   0.00000  Uiso   1.00
C260   C     0.49795   0.51163   0.44429   0.00000  Uiso   1.00
C261   C     0.50941   0.49181   0.01351   0.00000  Uiso   1.00
C262   C     0.55048   0.48155   0.48900   0.00000  Uiso   1.00
C263   C     0.56671   0.49302   0.44510   0.00000  Uiso   1.00
C264   C     0.54163   0.51006   0.42416   0.00000  Uiso   1.00
H265   H     0.58322   0.44847   0.07270   0.00000  Uiso   1.00
H266   H     0.59959   0.49086   0.42716   0.00000  Uiso   1.00
H267   H     0.40565   0.53177   0.42317   0.00000  Uiso   1.00
H268   H     0.42127   0.48998   0.04050   0.00000  Uiso   1.00
H269   H     0.37707   0.51493   0.00077   0.00000  Uiso   1.00
H270   H     0.55682   0.52106   0.39149   0.00000  Uiso   1.00
H271   H     0.43157   0.34909   0.30989   0.00000  Uiso   1.00
H272   H     0.61193   0.43850   0.45690   0.00000  Uiso   1.00
N273   N     0.63001   0.42905   0.31084   0.00000  Uiso   1.00
N274   N     0.57999   0.35721   0.17930   0.00000  Uiso   1.00
N275   N     0.44364   0.53876   0.11098   0.00000  Uiso   1.00
N276   N     0.37604   0.56984   0.19126   0.00000  Uiso   1.00
O277   O     0.50000   0.50000   0.25000   0.00000  Uiso   1.00
O278   O     0.48784   0.45970   0.15458   0.00000  Uiso   1.00
O279   O     0.46274   0.53724   0.34968   0.00000  Uiso   1.00
O280   O     0.54157   0.51092   0.14606   0.00000  Uiso   1.00
O281   O     0.50785   0.49213   0.34968   0.00000  Uiso   1.00
O282   O     0.44906   0.66044   0.29389   0.00000  Uiso   1.00
O283   O     0.61354   0.44831   0.48771   0.00000  Uiso   1.00
O284   O     0.51264   0.41352   0.28213   0.00000  Uiso   1.00
O285   O     0.47965   0.59418   0.27013   0.00000  Uiso   1.00
O286   O     0.40745   0.46625   0.23413   0.00000  Uiso   1.00
O287   O     0.60026   0.52605   0.21360   0.00000  Uiso   1.00
O288   O     0.40405   0.52211   0.28213   0.00000  Uiso   1.00
O289   O     0.58824   0.48559   0.27013   0.00000  Uiso   1.00
O290   O     0.47093   0.40277   0.23413   0.00000  Uiso   1.00
O291   O     0.53678   0.58953   0.21360   0.00000  Uiso   1.00
Zn292  Zn    0.52672   0.47327   0.28734   0.00000  Uiso   1.00
Zn293  Zn    0.46713   0.45791   0.21875   0.00000  Uiso   1.00
Zn294  Zn    0.54389   0.53109   0.20657   0.00000  Uiso   1.00
Zn295  Zn    0.46226   0.53773   0.28733   0.00000  Uiso   1.00
C296   C     0.71981   0.49298   0.25971   0.00000  Uiso   1.00
C297   C     0.83283   0.49304   0.06079   0.00000  Uiso   1.00
C298   C     0.89633   0.46090   0.05619   0.00000  Uiso   1.00
C299   C     0.94734   0.50744   0.24043   0.00000  Uiso   1.00
C300   C     0.80351   0.52089   0.41973   0.00000  Uiso   1.00
C301   C     0.99279   0.51240   0.23915   0.00000  Uiso   1.00
C302   C     0.67487   0.48918   0.26341   0.00000  Uiso   1.00
C303   C     0.84747   0.65602   0.23722   0.00000  Uiso   1.00
C304   C     0.81799   0.34535   0.26393   0.00000  Uiso   1.00
C305   C     0.82283   0.38951   0.26011   0.00000  Uiso   1.00
C306   C     0.84330   0.61125   0.24024   0.00000  Uiso   1.00
C307   C     0.74420   0.51490   0.48537   0.00000  Uiso   1.00
C308   C     0.85229   0.48146   0.12956   0.00000  Uiso   1.00
C309   C     0.81564   0.51825   0.37066   0.00000  Uiso   1.00
C310   C     0.90914   0.46331   0.01023   0.00000  Uiso   1.00
C311   C     0.85932   0.47658   0.08137   0.00000  Uiso   1.00
C312   C     0.76072   0.52475   0.44139   0.00000  Uiso   1.00
C313   C     0.98316   0.45575   0.28977   0.00000  Uiso   1.00
C314   C     0.88413   0.34189   0.20497   0.00000  Uiso   1.00
C315   C     0.80162   0.51840   0.08865   0.00000  Uiso   1.00
C316   C     0.68731   0.54425   0.21239   0.00000  Uiso   1.00
C317   C     0.77031   0.50214   0.00859   0.00000  Uiso   1.00
C318   C     0.81476   0.50275   0.48970   0.00000  Uiso   1.00
C319   C     0.83128   0.51163   0.44429   0.00000  Uiso   1.00
C320   C     0.84275   0.49181   0.01351   0.00000  Uiso   1.00
C321   C     0.88381   0.48155   0.48900   0.00000  Uiso   1.00
C322   C     0.90004   0.49302   0.44510   0.00000  Uiso   1.00
C323   C     0.87496   0.51006   0.42416   0.00000  Uiso   1.00
H324   H     0.91655   0.44847   0.07270   0.00000  Uiso   1.00
H325   H     0.93292   0.49086   0.42716   0.00000  Uiso   1.00
H326   H     0.73898   0.53177   0.42317   0.00000  Uiso   1.00
H327   H     0.75460   0.48998   0.04050   0.00000  Uiso   1.00
H328   H     0.71041   0.51493   0.00077   0.00000  Uiso   1.00
H329   H     0.89015   0.52106   0.39149   0.00000  Uiso   1.00
H330   H     0.76491   0.34909   0.30989   0.00000  Uiso   1.00
H331   H     0.94527   0.43850   0.45690   0.00000  Uiso   1.00
N332   N     0.96335   0.42905   0.31084   0.00000  Uiso   1.00
N333   N     0.91332   0.35721   0.17930   0.00000  Uiso   1.00
N334   N     0.77697   0.53876   0.11098   0.00000  Uiso   1.00
N335   N     0.70937   0.56984   0.19126   0.00000  Uiso   1.00
O336   O     0.83333   0.50000   0.25000   0.00000  Uiso   1.00
O337   O     0.82118   0.45970   0.15458   0.00000  Uiso   1.00
O338   O     0.79607   0.53724   0.34968   0.00000  Uiso   1.00
O339   O     0.87491   0.51092   0.14606   0.00000  Uiso   1.00
O340   O     0.84118   0.49213   0.34968   0.00000  Uiso   1.00
O341   O     0.78239   0.66044   0.29389   0.00000  Uiso   1.00
O342   O     0.94687   0.44831   0.48771   0.00000  Uiso   1.00
O343   O     0.84597   0.41352   0.28213   0.00000  Uiso   1.00
O344   O     0.81298   0.59418   0.27013   0.00000  Uiso   1.00
O345   O     0.74078   0.46625   0.23413   0.00000  Uiso   1.00
O346   O     0.93360   0.52605   0.21360   0.00000  Uiso   1.00
O347   O     0.73738   0.52211   0.28213   0.00000  Uiso   1.00
O348   O     0.92158   0.48559   0.27013   0.00000  Uiso   1.00
O349   O     0.80426   0.40277   0.23413   0.00000  Uiso   1.00
O350   O     0.87012   0.58953   0.21360   0.00000  Uiso   1.00
Zn351  Zn    0.86005   0.47327   0.28734   0.00000  Uiso   1.00
Zn352  Zn    0.80046   0.45791   0.21875   0.00000  Uiso   1.00
Zn353  Zn    0.87723   0.53109   0.20657   0.00000  Uiso   1.00
Zn354  Zn    0.79560   0.53773   0.28733   0.00000  Uiso   1.00
C355   C     0.05314   0.82632   0.25971   0.00000  Uiso   1.00
C356   C     0.16616   0.82637   0.06079   0.00000  Uiso   1.00
C357   C     0.22966   0.79423   0.05619   0.00000  Uiso   1.00
C358   C     0.28067   0.84077   0.24043   0.00000  Uiso   1.00
C359   C     0.13685   0.85422   0.41973   0.00000  Uiso   1.00
C360   C     0.32613   0.84573   0.23915   0.00000  Uiso   1.00
C361   C     0.00820   0.82251   0.26341   0.00000  Uiso   1.00
C362   C     0.18080   0.98935   0.23722   0.00000  Uiso   1.00
C363   C     0.15132   0.67869   0.26393   0.00000  Uiso   1.00
C364   C     0.15616   0.72284   0.26011   0.00000  Uiso   1.00
C365   C     0.17663   0.94458   0.24024   0.00000  Uiso   1.00
C366   C     0.07753   0.84823   0.48537   0.00000  Uiso   1.00
C367   C     0.18562   0.81479   0.12956   0.00000  Uiso   1.00
C368   C     0.14897   0.85158   0.37066   0.00000  Uiso   1.00
C369   C     0.24248   0.79664   0.01023   0.00000  Uiso   1.00
C370   C     0.19265   0.80992   0.08137   0.00000  Uiso   1.00
C371   C     0.09405   0.85808   0.44139   0.00000  Uiso   1.00
C372   C     0.31649   0.78908   0.28977   0.00000  Uiso   1.00
C373   C     0.21747   0.67523   0.20497   0.00000  Uiso   1.00
C374   C     0.13495   0.85174   0.08865   0.00000  Uiso   1.00
C375   C     0.02064   0.87759   0.21239   0.00000  Uiso   1.00
C376   C     0.10364   0.83547   0.00859   0.00000  Uiso   1.00
C377   C     0.14809   0.83609   0.48970   0.00000  Uiso   1.00
C378   C     0.16462   0.84496   0.44429   0.00000  Uiso   1.00
C379   C     0.17608   0.82515   0.01351   0.00000  Uiso   1.00
C380   C     0.21714   0.81488   0.48900   0.00000  Uiso   1.00
C381   C     0.23338   0.82635   0.44510   0.00000  Uiso   1.00
C382   C     0.20829   0.84339   0.42416   0.00000  Uiso   1.00
H383   H     0.24988   0.78180   0.07270   0.00000  Uiso   1.00
H384   H     0.26626   0.82420   0.42716   0.00000  Uiso   1.00
H385   H     0.07232   0.86510   0.42317   0.00000  Uiso   1.00
H386   H     0.08793   0.82332   0.04050   0.00000  Uiso   1.00
H387   H     0.04374   0.84827   0.00077   0.00000  Uiso   1.00
H388   H     0.22348   0.85439   0.39149   0.00000  Uiso   1.00
H389   H     0.09824   0.68242   0.30989   0.00000  Uiso   1.00
H390   H     0.27860   0.77183   0.45690   0.00000  Uiso   1.00
N391   N     0.29668   0.76238   0.31084   0.00000  Uiso   1.00
N392   N     0.24665   0.69054   0.17930   0.00000  Uiso   1.00
N393   N     0.11031   0.87209   0.11098   0.00000  Uiso   1.00
N394   N     0.04271   0.90317   0.19126   0.00000  Uiso   1.00
O395   O     0.16667   0.83333   0.25000   0.00000  Uiso   1.00
O396   O     0.15451   0.79304   0.15458   0.00000  Uiso   1.00
O397   O     0.12940   0.87058   0.34968   0.00000  Uiso   1.00
O398   O     0.20824   0.84425   0.14606   0.00000  Uiso   1.00
O399   O     0.17451   0.82546   0.34968   0.00000  Uiso   1.00
O400   O     0.11572   0.99378   0.29389   0.00000  Uiso   1.00
O401   O     0.28020   0.78164   0.48771   0.00000  Uiso   1.00
O402   O     0.17930   0.74686   0.28213   0.00000  Uiso   1.00
O403   O     0.14632   0.92751   0.27013   0.00000  Uiso   1.00
O404   O     0.07412   0.79958   0.23413   0.00000  Uiso   1.00
O405   O     0.26693   0.85939   0.21360   0.00000  Uiso   1.00
O406   O     0.07071   0.85544   0.28213   0.00000  Uiso   1.00
O407   O     0.25491   0.81892   0.27013   0.00000  Uiso   1.00
O408   O     0.13760   0.73610   0.23413   0.00000  Uiso   1.00
O409   O     0.20345   0.92286   0.21360   0.00000  Uiso   1.00
Zn410  Zn    0.19338   0.80661   0.28734   0.00000  Uiso   1.00
Zn411  Zn    0.13379   0.79124   0.21875   0.00000  Uiso   1.00
Zn412  Zn    0.21056   0.86442   0.20657   0.00000  Uiso   1.00
Zn413  Zn    0.12893   0.87106   0.28733   0.00000  Uiso   1.00
C414   C     0.38648   0.82632   0.25971   0.00000  Uiso   1.00
C415   C     0.49950   0.82637   0.06079   0.00000  Uiso   1.00
C416   C     0.56299   0.79423   0.05619   0.00000  Uiso   1.00
C417   C     0.61401   0.84077   0.24043   0.00000  Uiso   1.00
C418   C     0.47018   0.85422   0.41973   0.00000  Uiso   1.00
C419   C     0.65946   0.84573   0.23915   0.00000  Uiso   1.00
C420   C     0.34153   0.82251   0.26341   0.00000  Uiso   1.00
C421   C     0.51414   0.98935   0.23722   0.00000  Uiso   1.00
C422   C     0.48465   0.67869   0.26393   0.00000  Uiso   1.00
C423   C     0.48950   0.72284   0.26011   0.00000  Uiso   1.00
C424   C     0.50997   0.94458   0.24024   0.00000  Uiso   1.00
C425   C     0.41086   0.84823   0.48537   0.00000  Uiso   1.00
C426   C     0.51896   0.81479   0.12956   0.00000  Uiso   1.00
C427   C     0.48230   0.85158   0.37066   0.00000  Uiso   1.00
C428   C     0.57581   0.79664   0.01023   0.00000  Uiso   1.00
C429   C     0.52599   0.80992   0.08137   0.00000  Uiso   1.00
C430   C     0.42739   0.85808   0.44139   0.00000  Uiso   1.00
C431   C     0.64983   0.78908   0.28977   0.00000  Uiso   1.00
C432   C     0.55080   0.67523   0.20497   0.00000  Uiso   1.00
C433   C     0.46829   0.85174   0.08865   0.00000  Uiso   1.00
C434   C     0.35397   0.87759   0.21239   0.00000  Uiso   1.00
C435   C     0.43697   0.83547   0.00859   0.00000  Uiso   1.00
C436   C     0.48142   0.83609   0.48970   0.00000  Uiso   1.00
C437   C     0.49795   0.84496   0.44429   0.00000  Uiso   1.00
C438   C     0.50941   0.82515   0.01351   0.00000  Uiso   1.00
C439   C     0.55048   0.81488   0.48900   0.00000  Uiso   1.00
C440   C     0.56671   0.82635   0.44510   0.00000  Uiso   1.00
C441   C     0.54163   0.84339   0.42416   0.00000  Uiso   1.00
H442   H     0.58322   0.78180   0.07270   0.00000  Uiso   1.00
H443   H     0.59959   0.82420   0.42716   0.00000  Uiso   1.00
H444   H     0.40565   0.86510   0.42317   0.00000  Uiso   1.00
H445   H     0.42127   0.82332   0.04050   0.00000  Uiso   1.00
H446   H     0.37707   0.84827   0.00077   0.00000  Uiso   1.00
H447   H     0.55682   0.85439   0.39149   0.00000  Uiso   1.00
H448   H     0.43157   0.68242   0.30989   0.00000  Uiso   1.00
H449   H     0.61193   0.77183   0.45690   0.00000  Uiso   1.00
N450   N     0.63001   0.76238   0.31084   0.00000  Uiso   1.00
N451   N     0.57999   0.69054   0.17930   0.00000  Uiso   1.00
N452   N     0.44364   0.87209   0.11098   0.00000  Uiso   1.00
N453   N     0.37604   0.90317   0.19126   0.00000  Uiso   1.00
O454   O     0.50000   0.83333   0.25000   0.00000  Uiso   1.00
O455   O     0.48784   0.79304   0.15458   0.00000  Uiso   1.00
O456   O     0.46274   0.87058   0.34968   0.00000  Uiso   1.00
O457   O     0.54157   0.84425   0.14606   0.00000  Uiso   1.00
O458   O     0.50785   0.82546   0.34968   0.00000  Uiso   1.00
O459   O     0.44906   0.99378   0.29389   0.00000  Uiso   1.00
O460   O     0.61354   0.78164   0.48771   0.00000  Uiso   1.00
O461   O     0.51264   0.74686   0.28213   0.00000  Uiso   1.00
O462   O     0.47965   0.92751   0.27013   0.00000  Uiso   1.00
O463   O     0.40745   0.79958   0.23413   0.00000  Uiso   1.00
O464   O     0.60026   0.85939   0.21360   0.00000  Uiso   1.00
O465   O     0.40405   0.85544   0.28213   0.00000  Uiso   1.00
O466   O     0.58824   0.81892   0.27013   0.00000  Uiso   1.00
O467   O     0.47093   0.73610   0.23413   0.00000  Uiso   1.00
O468   O     0.53678   0.92286   0.21360   0.00000  Uiso   1.00
Zn469  Zn    0.52672   0.80661   0.28734   0.00000  Uiso   1.00
Zn470  Zn    0.46713   0.79124   0.21875   0.00000  Uiso   1.00
Zn471  Zn    0.54389   0.86442   0.20657   0.00000  Uiso   1.00
Zn472  Zn    0.46226   0.87106   0.28733   0.00000  Uiso   1.00
C473   C     0.71981   0.82632   0.25971   0.00000  Uiso   1.00
C474   C     0.83283   0.82637   0.06079   0.00000  Uiso   1.00
C475   C     0.89633   0.79423   0.05619   0.00000  Uiso   1.00
C476   C     0.94734   0.84077   0.24043   0.00000  Uiso   1.00
C477   C     0.80351   0.85422   0.41973   0.00000  Uiso   1.00
C478   C     0.99279   0.84573   0.23915   0.00000  Uiso   1.00
C479   C     0.67487   0.82251   0.26341   0.00000  Uiso   1.00
C480   C     0.84747   0.98935   0.23722   0.00000  Uiso   1.00
C481   C     0.81799   0.67869   0.26393   0.00000  Uiso   1.00
C482   C     0.82283   0.72284   0.26011   0.00000  Uiso   1.00
C483   C     0.84330   0.94458   0.24024   0.00000  Uiso   1.00
C484   C     0.74420   0.84823   0.48537   0.00000  Uiso   1.00
C485   C     0.85229   0.81479   0.12956   0.00000  Uiso   1.00
C486   C     0.81564   0.85158   0.37066   0.00000  Uiso   1.00
C487   C     0.90914   0.79664   0.01023   0.00000  Uiso   1.00
C488   C     0.85932   0.80992   0.08137   0.00000  Uiso   1.00
C489   C     0.76072   0.85808   0.44139   0.00000  Uiso   1.00
C490   C     0.98316   0.78908   0.28977   0.00000  Uiso   1.00
C491   C     0.88413   0.67523   0.20497   0.00000  Uiso   1.00
C492   C     0.80162   0.85174   0.08865   0.00000  Uiso   1.00
C493   C     0.68731   0.87759   0.21239   0.00000  Uiso   1.00
C494   C     0.77031   0.83547   0.00859   0.00000  Uiso   1.00
C495   C     0.81476   0.83609   0.48970   0.00000  Uiso   1.00
C496   C     0.83128   0.84496   0.44429   0.00000  Uiso   1.00
C497   C     0.84275   0.82515   0.01351   0.00000  Uiso   1.00
C498   C     0.88381   0.81488   0.48900   0.00000  Uiso   1.00
C499   C     0.90004   0.82635   0.44510   0.00000  Uiso   1.00
C500   C     0.87496   0.84339   0.42416   0.00000  Uiso   1.00
H501   H     0.91655   0.78180   0.07270   0.00000  Uiso   1.00
H502   H     0.93292   0.82420   0.42716   0.00000  Uiso   1.00
H503   H     0.73898   0.86510   0.42317   0.00000  Uiso   1.00
H504   H     0.75460   0.82332   0.04050   0.00000  Uiso   1.00
H505   H     0.71041   0.84827   0.00077   0.00000  Uiso   1.00
H506   H     0.89015   0.85439   0.39149   0.00000  Uiso   1.00
H507   H     0.76491   0.68242   0.30989   0.00000  Uiso   1.00
H508   H     0.94527   0.77183   0.45690   0.00000  Uiso   1.00
N509   N     0.96335   0.76238   0.31084   0.00000  Uiso   1.00
N510   N     0.91332   0.69054   0.17930   0.00000  Uiso   1.00
N511   N     0.77697   0.87209   0.11098   0.00000  Uiso   1.00
N512   N     0.70937   0.90317   0.19126   0.00000  Uiso   1.00
O513   O     0.83333   0.83333   0.25000   0.00000  Uiso   1.00
O514   O     0.82118   0.79304   0.15458   0.00000  Uiso   1.00
O515   O     0.79607   0.87058   0.34968   0.00000  Uiso   1.00
O516   O     0.87491   0.84425   0.14606   0.00000  Uiso   1.00
O517   O     0.84118   0.82546   0.34968   0.00000  Uiso   1.00
O518   O     0.78239   0.99378   0.29389   0.00000  Uiso   1.00
O519   O     0.94687   0.78164   0.48771   0.00000  Uiso   1.00
O520   O     0.84597   0.74686   0.28213   0.00000  Uiso   1.00
O521   O     0.81298   0.92751   0.27013   0.00000  Uiso   1.00
O522   O     0.74078   0.79958   0.23413   0.00000  Uiso   1.00
O523   O     0.93360   0.85939   0.21360   0.00000  Uiso   1.00
O524   O     0.73738   0.85544   0.28213   0.00000  Uiso   1.00
O525   O     0.92158   0.81892   0.27013   0.00000  Uiso   1.00
O526   O     0.80426   0.73610   0.23413   0.00000  Uiso   1.00
O527   O     0.87012   0.92286   0.21360   0.00000  Uiso   1.00
Zn528  Zn    0.86005   0.80661   0.28734   0.00000  Uiso   1.00
Zn529  Zn    0.80046   0.79124   0.21875   0.00000  Uiso   1.00
Zn530  Zn    0.87723   0.86442   0.20657   0.00000  Uiso   1.00
Zn531  Zn    0.79560   0.87106   0.28733   0.00000  Uiso   1.00
C532   C     0.05314   0.15965   0.75971   0.00000  Uiso   1.00
C533   C     0.16616   0.15971   0.56079   0.00000  Uiso   1.00
C534   C     0.22966   0.12756   0.55619   0.00000  Uiso   1.00
C535   C     0.28067   0.17411   0.74043   0.00000  Uiso   1.00
C536   C     0.13685   0.18755   0.91973   0.00000  Uiso   1.00
C537   C     0.32613   0.17907   0.73915   0.00000  Uiso   1.00
C538   C     0.00820   0.15585   0.76341   0.00000  Uiso   1.00
C539   C     0.18080   0.32269   0.73722   0.00000  Uiso   1.00
C540   C     0.15132   0.01202   0.76393   0.00000  Uiso   1.00
C541   C     0.15616   0.05617   0.76011   0.00000  Uiso   1.00
C542   C     0.17663   0.27791   0.74024   0.00000  Uiso   1.00
C543   C     0.07753   0.18157   0.98537   0.00000  Uiso   1.00
C544   C     0.18562   0.14812   0.62956   0.00000  Uiso   1.00
C545   C     0.14897   0.18492   0.87066   0.00000  Uiso   1.00
C546   C     0.24248   0.12997   0.51023   0.00000  Uiso   1.00
C547   C     0.19265   0.14325   0.58137   0.00000  Uiso   1.00
C548   C     0.09405   0.19141   0.94139   0.00000  Uiso   1.00
C549   C     0.31649   0.12242   0.78977   0.00000  Uiso   1.00
C550   C     0.21747   0.00856   0.70497   0.00000  Uiso   1.00
C551   C     0.13495   0.18507   0.58865   0.00000  Uiso   1.00
C552   C     0.02064   0.21092   0.71239   0.00000  Uiso   1.00
C553   C     0.10364   0.16880   0.50859   0.00000  Uiso   1.00
C554   C     0.14809   0.16942   0.98970   0.00000  Uiso   1.00
C555   C     0.16462   0.17830   0.94429   0.00000  Uiso   1.00
C556   C     0.17608   0.15848   0.51351   0.00000  Uiso   1.00
C557   C     0.21714   0.14821   0.98900   0.00000  Uiso   1.00
C558   C     0.23338   0.15968   0.94510   0.00000  Uiso   1.00
C559   C     0.20829   0.17673   0.92416   0.00000  Uiso   1.00
H560   H     0.24988   0.11514   0.57270   0.00000  Uiso   1.00
H561   H     0.26626   0.15753   0.92716   0.00000  Uiso   1.00
H562   H     0.07232   0.19843   0.92317   0.00000  Uiso   1.00
H563   H     0.08793   0.15665   0.54050   0.00000  Uiso   1.00
H564   H     0.04374   0.18160   0.50077   0.00000  Uiso   1.00
H565   H     0.22348   0.18773   0.89149   0.00000  Uiso   1.00
H566   H     0.09824   0.01576   0.80989   0.00000  Uiso   1.00
H567   H     0.27860   0.10517   0.95690   0.00000  Uiso   1.00
N568   N     0.29668   0.09572   0.81084   0.00000  Uiso   1.00
N569   N     0.24665   0.02387   0.67930   0.00000  Uiso   1.00
N570   N     0.11031   0.20543   0.61098   0.00000  Uiso   1.00
N571   N     0.04271   0.23651   0.69126   0.00000  Uiso   1.00
O572   O     0.16667   0.16667   0.75000   0.00000  Uiso   1.00
O573   O     0.15451   0.12637   0.65458   0.00000  Uiso   1.00
O574   O     0.12940   0.20391   0.84968   0.00000  Uiso   1.00
O575   O     0.20824   0.17759   0.64606   0.00000  Uiso   1.00
O576   O     0.17451   0.15880   0.84968   0.00000  Uiso   1.00
O577   O     0.11572   0.32711   0.79389   0.00000  Uiso   1.00
O578   O     0.28020   0.11497   0.98771   0.00000  Uiso   1.00
O579   O     0.17930   0.08019   0.78213   0.00000  Uiso   1.00
O580   O     0.14632   0.26085   0.77013   0.00000  Uiso   1.00
O581   O     0.07412   0.13291   0.73413   0.00000  Uiso   1.00
O582   O     0.26693   0.19272   0.71360   0.00000  Uiso   1.00
O583   O     0.07071   0.18878   0.78213   0.00000  Uiso   1.00
O584   O     0.25491   0.15226   0.77013   0.00000  Uiso   1.00
O585   O     0.13760   0.06944   0.73413   0.00000  Uiso   1.00
O586   O     0.20345   0.25620   0.71360   0.00000  Uiso   1.00
Zn587  Zn    0.19338   0.13994   0.78734   0.00000  Uiso   1.00
Zn588  Zn    0.13379   0.12458   0.71875   0.00000  Uiso   1.00
Zn589  Zn    0.21056   0.19775   0.70657   0.00000  Uiso   1.00
Zn590  Zn    0.12893   0.20439   0.78733   0.00000  Uiso   1.00
C591   C     0.38648   0.15965   0.75971   0.00000  Uiso   1.00
C592   C     0.49950   0.15971   0.56079   0.00000  Uiso   1.00
C593   C     0.56299   0.12756   0.55619   0.00000  Uiso   1.00
C594   C     0.61401   0.17411   0.74043   0.00000  Uiso   1.00
C595   C     0.47018   0.18755   0.91973   0.00000  Uiso   1.00
C596   C     0.65946   0.17907   0.73915   0.00000  Uiso   1.00
C597   C     0.34153   0.15585   0.76341   0.00000  Uiso   1.00
C598   C     0.51414   0.32269   0.73722   0.00000  Uiso   1.00
C599   C     0.48465   0.01202   0.76393   0.00000  Uiso   1.00
C600   C     0.48950   0.05617   0.76011   0.00000  Uiso   1.00
C601   C     0.50997   0.27791   0.74024   0.00000  Uiso   1.00
C602   C     0.41086   0.18157   0.98537   0.00000  Uiso   1.00
C603   C     0.51896   0.14812   0.62956   0.00000  Uiso   1.00
C604   C     0.48230   0.18492   0.87066   0.00000  Uiso   1.00
C605   C     0.57581   0.12997   0.51023   0.00000  Uiso   1.00
C606   C     0.52599   0.14325   0.58137   0.00000  Uiso   1.00
C607   C     0.42739   0.19141   0.94139   0.00000  Uiso   1.00
C608   C     0.64983   0.12242   0.78977   0.00000  Uiso   1.00
C609   C     0.55080   0.00856   0.70497   0.00000  Uiso   1.00
C610   C     0.46829   0.18507   0.58865   0.00000  Uiso   1.00
C611   C     0.35397   0.21092   0.71239   0.00000  Uiso   1.00
C612   C     0.43697   0.16880   0.50859   0.00000  Uiso   1.00
C613   C     0.48142   0.16942   0.98970   0.00000  Uiso   1.00
C614   C     0.49795   0.17830   0.94429   0.00000  Uiso   1.00
C615   C     0.50941   0.15848   0.51351   0.00000  Uiso   1.00
C616   C     0.55048   0.14821   0.98900   0.00000  Uiso   1.00
C617   C     0.56671   0.15968   0.94510   0.00000  Uiso   1.00
C618   C     0.54163   0.17673   0.92416   0.00000  Uiso   1.00
H619   H     0.58322   0.11514   0.57270   0.00000  Uiso   1.00
H620   H     0.59959   0.15753   0.92716   0.00000  Uiso   1.00
H621   H     0.40565   0.19843   0.92317   0.00000  Uiso   1.00
H622   H     0.42127   0.15665   0.54050   0.00000  Uiso   1.00
H623   H     0.37707   0.18160   0.50077   0.00000  Uiso   1.00
H624   H     0.55682   0.18773   0.89149   0.00000  Uiso   1.00
H625   H     0.43157   0.01576   0.80989   0.00000  Uiso   1.00
H626   H     0.61193   0.10517   0.95690   0.00000  Uiso   1.00
N627   N     0.63001   0.09572   0.81084   0.00000  Uiso   1.00
N628   N     0.57999   0.02387   0.67930   0.00000  Uiso   1.00
N629   N     0.44364   0.20543   0.61098   0.00000  Uiso   1.00
N630   N     0.37604   0.23651   0.69126   0.00000  Uiso   1.00
O631   O     0.50000   0.16667   0.75000   0.00000  Uiso   1.00
O632   O     0.48784   0.12637   0.65458   0.00000  Uiso   1.00
O633   O     0.46274   0.20391   0.84968   0.00000  Uiso   1.00
O634   O     0.54157   0.17759   0.64606   0.00000  Uiso   1.00
O635   O     0.50785   0.15880   0.84968   0.00000  Uiso   1.00
O636   O     0.44906   0.32711   0.79389   0.00000  Uiso   1.00
O637   O     0.61354   0.11497   0.98771   0.00000  Uiso   1.00
O638   O     0.51264   0.08019   0.78213   0.00000  Uiso   1.00
O639   O     0.47965   0.26085   0.77013   0.00000  Uiso   1.00
O640   O     0.40745   0.13291   0.73413   0.00000  Uiso   1.00
O641   O     0.60026   0.19272   0.71360   0.00000  Uiso   1.00
O642   O     0.40405   0.18878   0.78213   0.00000  Uiso   1.00
O643   O     0.58824   0.15226   0.77013   0.00000  Uiso   1.00
O644   O     0.47093   0.06944   0.73413   0.00000  Uiso   1.00
O645   O     0.53678   0.25620   0.71360   0.00000  Uiso   1.00
Zn646  Zn    0.52672   0.13994   0.78734   0.00000  Uiso   1.00
Zn647  Zn    0.46713   0.12458   0.71875   0.00000  Uiso   1.00
Zn648  Zn    0.54389   0.19775   0.70657   0.00000  Uiso   1.00
Zn649  Zn    0.46226   0.20439   0.78733   0.00000  Uiso   1.00
C650   C     0.71981   0.15965   0.75971   0.00000  Uiso   1.00
C651   C     0.83283   0.15971   0.56079   0.00000  Uiso   1.00
C652   C     0.89633   0.12756   0.55619   0.00000  Uiso   1.00
C653   C     0.94734   0.17411   0.74043   0.00000  Uiso   1.00
C654   C     0.80351   0.18755   0.91973   0.00000  Uiso   1.00
C655   C     0.99279   0.17907   0.73915   0.00000  Uiso   1.00
C656   C     0.67487   0.15585   0.76341   0.00000  Uiso   1.00
C657   C     0.84747   0.32269   0.73722   0.00000  Uiso   1.00
C658   C     0.81799   0.01202   0.76393   0.00000  Uiso   1.00
C659   C     0.82283   0.05617   0.76011   0.00000  Uiso   1.00
C660   C     0.84330   0.27791   0.74024   0.00000  Uiso   1.00
C661   C     0.74420   0.18157   0.98537   0.00000  Uiso   1.00
C662   C     0.85229   0.14812   0.62956   0.00000  Uiso   1.00
C663   C     0.81564   0.18492   0.87066   0.00000  Uiso   1.00
C664   C     0.90914   0.12997   0.51023   0.00000  Uiso   1.00
C665   C     0.85932   0.14325   0.58137   0.00000  Uiso   1.00
C666   C     0.76072   0.19141   0.94139   0.00000  Uiso   1.00
C667   C     0.98316   0.12242   0.78977   0.00000  Uiso   1.00
C668   C     0.88413   0.00856   0.70497   0.00000  Uiso   1.00
C669   C     0.80162   0.18507   0.58865   0.00000  Uiso   1.00
C670   C     0.68731   0.21092   0.71239   0.00000  Uiso   1.00
C671   C     0.77031   0.16880   0.50859   0.00000  Uiso   1.00
C672   C     0.81476   0.16942   0.98970   0.00000  Uiso   1.00
C673   C     0.83128   0.17830   0.94429   0.00000  Uiso   1.00
C674   C     0.84275   0.15848   0.51351   0.00000  Uiso   1.00
C675   C     0.88381   0.14821   0.98900   0.00000  Uiso   1.00
C676   C     0.90004   0.15968   0.94510   0.00000  Uiso   1.00
C677   C     0.87496   0.17673   0.92416   0.00000  Uiso   1.00
H678   H     0.91655   0.11514   0.57270   0.00000  Uiso   1.00
H679   H     0.93292   0.15753   0.92716   0.00000  Uiso   1.00
H680   H     0.73898   0.19843   0.92317   0.00000  Uiso   1.00
H681   H     0.75460   0.15665   0.54050   0.00000  Uiso   1.00
H682   H     0.71041   0.18160   0.50077   0.00000  Uiso   1.00
H683   H     0.89015   0.18773   0.89149   0.00000  Uiso   1.00
H684   H     0.76491   0.01576   0.80989   0.00000  Uiso   1.00
H685   H     0.94527   0.10517   0.95690   0.00000  Uiso   1.00
N686   N     0.96335   0.09572   0.81084   0.00000  Uiso   1.00
N687   N     0.91332   0.02387   0.67930   0.00000  Uiso   1.00
N688   N     0.77697   0.20543   0.61098   0.00000  Uiso   1.00
N689   N     0.70937   0.23651   0.69126   0.00000  Uiso   1.00
O690   O     0.83333   0.16667   0.75000   0.00000  Uiso   1.00
O691   O     0.82118   0.12637   0.65458   0.00000  Uiso   1.00
O692   O     0.79607   0.20391   0.84968   0.00000  Uiso   1.00
O693   O     0.87491   0.17759   0.64606   0.00000  Uiso   1.00
O694   O     0.84118   0.15880   0.84968   0.00000  Uiso   1.00
O695   O     0.78239   0.32711   0.79389   0.00000  Uiso   1.00
O696   O     0.94687   0.11497   0.98771   0.00000  Uiso   1.00
O697   O     0.84597   0.08019   0.78213   0.00000  Uiso   1.00
O698   O     0.81298   0.26085   0.77013   0.00000  Uiso   1.00
O699   O     0.74078   0.13291   0.73413   0.00000  Uiso   1.00
O700   O     0.93360   0.19272   0.71360   0.00000  Uiso   1.00
O701   O     0.73738   0.18878   0.78213   0.00000  Uiso   1.00
O702   O     0.92158   0.15226   0.77013   0.00000  Uiso   1.00
O703   O     0.80426   0.06944   0.73413   0.00000  Uiso   1.00
O704   O     0.87012   0.25620   0.71360   0.00000  Uiso   1.00
Zn705  Zn    0.86005   0.13994   0.78734   0.00000  Uiso   1.00
Zn706  Zn    0.80046   0.12458   0.71875   0.00000  Uiso   1.00
Zn707  Zn    0.87723   0.19775   0.70657   0.00000  Uiso   1.00
Zn708  Zn    0.79560   0.20439   0.78733   0.00000  Uiso   1.00
C709   C     0.05314   0.49298   0.75971   0.00000  Uiso   1.00
C710   C     0.16616   0.49304   0.56079   0.00000  Uiso   1.00
C711   C     0.22966   0.46090   0.55619   0.00000  Uiso   1.00
C712   C     0.28067   0.50744   0.74043   0.00000  Uiso   1.00
C713   C     0.13685   0.52089   0.91973   0.00000  Uiso   1.00
C714   C     0.32613   0.51240   0.73915   0.00000  Uiso   1.00
C715   C     0.00820   0.48918   0.76341   0.00000  Uiso   1.00
C716   C     0.18080   0.65602   0.73722   0.00000  Uiso   1.00
C717   C     0.15132   0.34535   0.76393   0.00000  Uiso   1.00
C718   C     0.15616   0.38951   0.76011   0.00000  Uiso   1.00
C719   C     0.17663   0.61125   0.74024   0.00000  Uiso   1.00
C720   C     0.07753   0.51490   0.98537   0.00000  Uiso   1.00
C721   C     0.18562   0.48146   0.62956   0.00000  Uiso   1.00
C722   C     0.14897   0.51825   0.87066   0.00000  Uiso   1.00
C723   C     0.24248   0.46331   0.51023   0.00000  Uiso   1.00
C724   C     0.19265   0.47658   0.58137   0.00000  Uiso   1.00
C725   C     0.09405   0.52475   0.94139   0.00000  Uiso   1.00
C726   C     0.31649   0.45575   0.78977   0.00000  Uiso   1.00
C727   C     0.21747   0.34189   0.70497   0.00000  Uiso   1.00
C728   C     0.13495   0.51840   0.58865   0.00000  Uiso   1.00
C729   C     0.02064   0.54425   0.71239   0.00000  Uiso   1.00
C730   C     0.10364   0.50214   0.50859   0.00000  Uiso   1.00
C731   C     0.14809   0.50275   0.98970   0.00000  Uiso   1.00
C732   C     0.16462   0.51163   0.94429   0.00000  Uiso   1.00
C733   C     0.17608   0.49181   0.51351   0.00000  Uiso   1.00
C734   C     0.21714   0.48155   0.98900   0.00000  Uiso   1.00
C735   C     0.23338   0.49302   0.94510   0.00000  Uiso   1.00
C736   C     0.20829   0.51006   0.92416   0.00000  Uiso   1.00
H737   H     0.24988   0.44847   0.57270   0.00000  Uiso   1.00
H738   H     0.26626   0.49086   0.92716   0.00000  Uiso   1.00
H739   H     0.07232   0.53177   0.92317   0.00000  Uiso   1.00
H740   H     0.08793   0.48998   0.54050   0.00000  Uiso   1.00
H741   H     0.04374   0.51493   0.50077   0.00000  Uiso   1.00
H742   H     0.22348   0.52106   0.89149   0.00000  Uiso   1.00
H743   H     0.09824   0.34909   0.80989   0.00000  Uiso   1.00
H744   H     0.27860   0.43850   0.95690   0.00000  Uiso   1.00
N745   N     0.29668   0.42905   0.81084   0.00000  Uiso   1.00
N746   N     0.24665   0.35721   0.67930   0.00000  Uiso   1.00
N747   N     0.11031   0.53876   0.61098   0.00000  Uiso   1.00
N748   N     0.04271   0.56984   0.69126   0.00000  Uiso   1.00
O749   O     0.16667   0.50000   0.75000   0.00000  Uiso   1.00
O750   O     0.15451   0.45970   0.65458   0.00000  Uiso   1.00
O751   O     0.12940   0.53724   0.84968   0.00000  Uiso   1.00
O752   O     0.20824   0.51092   0.64606   0.00000  Uiso   1.00
O753   O     0.17451   0.49213   0.84968   0.00000  Uiso   1.00
O754   O     0.11572   0.66044   0.79389   0.00000  Uiso   1.00
O755   O     0.28020   0.44831   0.98771   0.00000  Uiso   1.00
O756   O     0.17930   0.41352   0.78213   0.00000  Uiso   1.00
O757   O     0.14632   0.59418   0.77013   0.00000  Uiso   1.00
O758   O     0.07412   0.46625   0.73413   0.00000  Uiso   1.00
O759   O     0.26693   0.52605   0.71360   0.00000  Uiso   1.00
O760   O     0.07071   0.52211   0.78213   0.00000  Uiso   1.00
O761   O     0.25491   0.48559   0.77013   0.00000  Uiso   1.00
O762   O     0.13760   0.40277   0.73413   0.00000  Uiso   1.00
O763   O     0.20345   0.58953   0.71360   0.00000  Uiso   1.00
Zn764  Zn    0.19338   0.47327   0.78734   0.00000  Uiso   1.00
Zn765  Zn    0.13379   0.45791   0.71875   0.00000  Uiso   1.00
Zn766  Zn    0.21056   0.53109   0.70657   0.00000  Uiso   1.00
Zn767  Zn    0.12893   0.53773   0.78733   0.00000  Uiso   1.00
C768   C     0.38648   0.49298   0.75971   0.00000  Uiso   1.00
C769   C     0.49950   0.49304   0.56079   0.00000  Uiso   1.00
C770   C     0.56299   0.46090   0.55619   0.00000  Uiso   1.00
C771   C     0.61401   0.50744   0.74043   0.00000  Uiso   1.00
C772   C     0.47018   0.52089   0.91973   0.00000  Uiso   1.00
C773   C     0.65946   0.51240   0.73915   0.00000  Uiso   1.00
C774   C     0.34153   0.48918   0.76341   0.00000  Uiso   1.00
C775   C     0.51414   0.65602   0.73722   0.00000  Uiso   1.00
C776   C     0.48465   0.34535   0.76393   0.00000  Uiso   1.00
C777   C     0.48950   0.38951   0.76011   0.00000  Uiso   1.00
C778   C     0.50997   0.61125   0.74024   0.00000  Uiso   1.00
C779   C     0.41086   0.51490   0.98537   0.00000  Uiso   1.00
C780   C     0.51896   0.48146   0.62956   0.00000  Uiso   1.00
C781   C     0.48230   0.51825   0.87066   0.00000  Uiso   1.00
C782   C     0.57581   0.46331   0.51023   0.00000  Uiso   1.00
C783   C     0.52599   0.47658   0.58137   0.00000  Uiso   1.00
C784   C     0.42739   0.52475   0.94139   0.00000  Uiso   1.00
C785   C     0.64983   0.45575   0.78977   0.00000  Uiso   1.00
C786   C     0.55080   0.34189   0.70497   0.00000  Uiso   1.00
C787   C     0.46829   0.51840   0.58865   0.00000  Uiso   1.00
C788   C     0.35397   0.54425   0.71239   0.00000  Uiso   1.00
C789   C     0.43697   0.50214   0.50859   0.00000  Uiso   1.00
C790   C     0.48142   0.50275   0.98970   0.00000  Uiso   1.00
C791   C     0.49795   0.51163   0.94429   0.00000  Uiso   1.00
C792   C     0.50941   0.49181   0.51351   0.00000  Uiso   1.00
C793   C     0.55048   0.48155   0.98900   0.00000  Uiso   1.00
C794   C     0.56671   0.49302   0.94510   0.00000  Uiso   1.00
C795   C     0.54163   0.51006   0.92416   0.00000  Uiso   1.00
H796   H     0.58322   0.44847   0.57270   0.00000  Uiso   1.00
H797   H     0.59959   0.49086   0.92716   0.00000  Uiso   1.00
H798   H     0.40565   0.53177   0.92317   0.00000  Uiso   1.00
H799   H     0.42127   0.48998   0.54050   0.00000  Uiso   1.00
H800   H     0.37707   0.51493   0.50077   0.00000  Uiso   1.00
H801   H     0.55682   0.52106   0.89149   0.00000  Uiso   1.00
H802   H     0.43157   0.34909   0.80989   0.00000  Uiso   1.00
H803   H     0.61193   0.43850   0.95690   0.00000  Uiso   1.00
N804   N     0.63001   0.42905   0.81084   0.00000  Uiso   1.00
N805   N     0.57999   0.35721   0.67930   0.00000  Uiso   1.00
N806   N     0.44364   0.53876   0.61098   0.00000  Uiso   1.00
N807   N     0.37604   0.56984   0.69126   0.00000  Uiso   1.00
O808   O     0.50000   0.50000   0.75000   0.00000  Uiso   1.00
O809   O     0.48784   0.45970   0.65458   0.00000  Uiso   1.00
O810   O     0.46274   0.53724   0.84968   0.00000  Uiso   1.00
O811   O     0.54157   0.51092   0.64606   0.00000  Uiso   1.00
O812   O     0.50785   0.49213   0.84968   0.00000  Uiso   1.00
O813   O     0.44906   0.66044   0.79389   0.00000  Uiso   1.00
O814   O     0.61354   0.44831   0.98771   0.00000  Uiso   1.00
O815   O     0.51264   0.41352   0.78213   0.00000  Uiso   1.00
O816   O     0.47965   0.59418   0.77013   0.00000  Uiso   1.00
O817   O     0.40745   0.46625   0.73413   0.00000  Uiso   1.00
O818   O     0.60026   0.52605   0.71360   0.00000  Uiso   1.00
O819   O     0.40405   0.52211   0.78213   0.00000  Uiso   1.00
O820   O     0.58824   0.48559   0.77013   0.00000  Uiso   1.00
O821   O     0.47093   0.40277   0.73413   0.00000  Uiso   1.00
O822   O     0.53678   0.58953   0.71360   0.00000  Uiso   1.00
Zn823  Zn    0.52672   0.47327   0.78734   0.00000  Uiso   1.00
Zn824  Zn    0.46713   0.45791   0.71875   0.00000  Uiso   1.00
Zn825  Zn    0.54389   0.53109   0.70657   0.00000  Uiso   1.00
Zn826  Zn    0.46226   0.53773   0.78733   0.00000  Uiso   1.00
C827   C     0.71981   0.49298   0.75971   0.00000  Uiso   1.00
C828   C     0.83283   0.49304   0.56079   0.00000  Uiso   1.00
C829   C     0.89633   0.46090   0.55619   0.00000  Uiso   1.00
C830   C     0.94734   0.50744   0.74043   0.00000  Uiso   1.00
C831   C     0.80351   0.52089   0.91973   0.00000  Uiso   1.00
C832   C     0.99279   0.51240   0.73915   0.00000  Uiso   1.00
C833   C     0.67487   0.48918   0.76341   0.00000  Uiso   1.00
C834   C     0.84747   0.65602   0.73722   0.00000  Uiso   1.00
C835   C     0.81799   0.34535   0.76393   0.00000  Uiso   1.00
C836   C     0.82283   0.38951   0.76011   0.00000  Uiso   1.00
C837   C     0.84330   0.61125   0.74024   0.00000  Uiso   1.00
C838   C     0.74420   0.51490   0.98537   0.00000  Uiso   1.00
C839   C     0.85229   0.48146   0.62956   0.00000  Uiso   1.00
C840   C     0.81564   0.51825   0.87066   0.00000  Uiso   1.00
C841   C     0.90914   0.46331   0.51023   0.00000  Uiso   1.00
C842   C     0.85932   0.47658   0.58137   0.00000  Uiso   1.00
C843   C     0.76072   0.52475   0.94139   0.00000  Uiso   1.00
C844   C     0.98316   0.45575   0.78977   0.00000  Uiso   1.00
C845   C     0.88413   0.34189   0.70497   0.00000  Uiso   1.00
C846   C     0.80162   0.51840   0.58865   0.00000  Uiso   1.00
C847   C     0.68731   0.54425   0.71239   0.00000  Uiso   1.00
C848   C     0.77031   0.50214   0.50859   0.00000  Uiso   1.00
C849   C     0.81476   0.50275   0.98970   0.00000  Uiso   1.00
C850   C     0.83128   0.51163   0.94429   0.00000  Uiso   1.00
C851   C     0.84275   0.49181   0.51351   0.00000  Uiso   1.00
C852   C     0.88381   0.48155   0.98900   0.00000  Uiso   1.00
C853   C     0.90004   0.49302   0.94510   0.00000  Uiso   1.00
C854   C     0.87496   0.51006   0.92416   0.00000  Uiso   1.00
H855   H     0.91655   0.44847   0.57270   0.00000  Uiso   1.00
H856   H     0.93292   0.49086   0.92716   0.00000  Uiso   1.00
H857   H     0.73898   0.53177   0.92317   0.00000  Uiso   1.00
H858   H     0.75460   0.48998   0.54050   0.00000  Uiso   1.00
H859   H     0.71041   0.51493   0.50077   0.00000  Uiso   1.00
H860   H     0.89015   0.52106   0.89149   0.00000  Uiso   1.00
H861   H     0.76491   0.34909   0.80989   0.00000  Uiso   1.00
H862   H     0.94527   0.43850   0.95690   0.00000  Uiso   1.00
N863   N     0.96335   0.42905   0.81084   0.00000  Uiso   1.00
N864   N     0.91332   0.35721   0.67930   0.00000  Uiso   1.00
N865   N     0.77697   0.53876   0.61098   0.00000  Uiso   1.00
N866   N     0.70937   0.56984   0.69126   0.00000  Uiso   1.00
O867   O     0.83333   0.50000   0.75000   0.00000  Uiso   1.00
O868   O     0.82118   0.45970   0.65458   0.00000  Uiso   1.00
O869   O     0.79607   0.53724   0.84968   0.00000  Uiso   1.00
O870   O     0.87491   0.51092   0.64606   0.00000  Uiso   1.00
O871   O     0.84118   0.49213   0.84968   0.00000  Uiso   1.00
O872   O     0.78239   0.66044   0.79389   0.00000  Uiso   1.00
O873   O     0.94687   0.44831   0.98771   0.00000  Uiso   1.00
O874   O     0.84597   0.41352   0.78213   0.00000  Uiso   1.00
O875   O     0.81298   0.59418   0.77013   0.00000  Uiso   1.00
O876   O     0.74078   0.46625   0.73413   0.00000  Uiso   1.00
O877   O     0.93360   0.52605   0.71360   0.00000  Uiso   1.00
O878   O     0.73738   0.52211   0.78213   0.00000  Uiso   1.00
O879   O     0.92158   0.48559   0.77013   0.00000  Uiso   1.00
O880   O     0.80426   0.40277   0.73413   0.00000  Uiso   1.00
O881   O     0.87012   0.58953   0.71360   0.00000  Uiso   1.00
Zn882  Zn    0.86005   0.47327   0.78734   0.00000  Uiso   1.00
Zn883  Zn    0.80046   0.45791   0.71875   0.00000  Uiso   1.00
Zn884  Zn    0.87723   0.53109   0.70657   0.00000  Uiso   1.00
Zn885  Zn    0.79560   0.53773   0.78733   0.00000  Uiso   1.00
C886   C     0.05314   0.82632   0.75971   0.00000  Uiso   1.00
C887   C     0.16616   0.82637   0.56079   0.00000  Uiso   1.00
C888   C     0.22966   0.79423   0.55619   0.00000  Uiso   1.00
C889   C     0.28067   0.84077   0.74043   0.00000  Uiso   1.00
C890   C     0.13685   0.85422   0.91973   0.00000  Uiso   1.00
C891   C     0.32613   0.84573   0.73915   0.00000  Uiso   1.00
C892   C     0.00820   0.82251   0.76341   0.00000  Uiso   1.00
C893   C     0.18080   0.98935   0.73722   0.00000  Uiso   1.00
C894   C     0.15132   0.67869   0.76393   0.00000  Uiso   1.00
C895   C     0.15616   0.72284   0.76011   0.00000  Uiso   1.00
C896   C     0.17663   0.94458   0.74024   0.00000  Uiso   1.00
C897   C     0.07753   0.84823   0.98537   0.00000  Uiso   1.00
C898   C     0.18562   0.81479   0.62956   0.00000  Uiso   1.00
C899   C     0.14897   0.85158   0.87066   0.00000  Uiso   1.00
C900   C     0.24248   0.79664   0.51023   0.00000  Uiso   1.00
C901   C     0.19265   0.80992   0.58137   0.00000  Uiso   1.00
C902   C     0.09405   0.85808   0.94139   0.00000  Uiso   1.00
C903   C     0.31649   0.78908   0.78977   0.00000  Uiso   1.00
C904   C     0.21747   0.67523   0.70497   0.00000  Uiso   1.00
C905   C     0.13495   0.85174   0.58865   0.00000  Uiso   1.00
C906   C     0.02064   0.87759   0.71239   0.00000  Uiso   1.00
C907   C     0.10364   0.83547   0.50859   0.00000  Uiso   1.00
C908   C     0.14809   0.83609   0.98970   0.00000  Uiso   1.00
C909   C     0.16462   0.84496   0.94429   0.00000  Uiso   1.00
C910   C     0.17608   0.82515   0.51351   0.00000  Uiso   1.00
C911   C     0.21714   0.81488   0.98900   0.00000  Uiso   1.00
C912   C     0.23338   0.82635   0.94510   0.00000  Uiso   1.00
C913   C     0.20829   0.84339   0.92416   0.00000  Uiso   1.00
H914   H     0.24988   0.78180   0.57270   0.00000  Uiso   1.00
H915   H     0.26626   0.82420   0.92716   0.00000  Uiso   1.00
H916   H     0.07232   0.86510   0.92317   0.00000  Uiso   1.00
H917   H     0.08793   0.82332   0.54050   0.00000  Uiso   1.00
H918   H     0.04374   0.84827   0.50077   0.00000  Uiso   1.00
H919   H     0.22348   0.85439   0.89149   0.00000  Uiso   1.00
H920   H     0.09824   0.68242   0.80989   0.00000  Uiso   1.00
H921   H     0.27860   0.77183   0.95690   0.00000  Uiso   1.00
N922   N     0.29668   0.76238   0.81084   0.00000  Uiso   1.00
N923   N     0.24665   0.69054   0.67930   0.00000  Uiso   1.00
N924   N     0.11031   0.87209   0.61098   0.00000  Uiso   1.00
N925   N     0.04271   0.90317   0.69126   0.00000  Uiso   1.00
O926   O     0.16667   0.83333   0.75000   0.00000  Uiso   1.00
O927   O     0.15451   0.79304   0.65458   0.00000  Uiso   1.00
O928   O     0.12940   0.87058   0.84968   0.00000  Uiso   1.00
O929   O     0.20824   0.84425   0.64606   0.00000  Uiso   1.00
O930   O     0.17451   0.82546   0.84968   0.00000  Uiso   1.00
O931   O     0.11572   0.99378   0.79389   0.00000  Uiso   1.00
O932   O     0.28020   0.78164   0.98771   0.00000  Uiso   1.00
O933   O     0.17930   0.74686   0.78213   0.00000  Uiso   1.00
O934   O     0.14632   0.92751   0.77013   0.00000  Uiso   1.00
O935   O     0.07412   0.79958   0.73413   0.00000  Uiso   1.00
O936   O     0.26693   0.85939   0.71360   0.00000  Uiso   1.00
O937   O     0.07071   0.85544   0.78213   0.00000  Uiso   1.00
O938   O     0.25491   0.81892   0.77013   0.00000  Uiso   1.00
O939   O     0.13760   0.73610   0.73413   0.00000  Uiso   1.00
O940   O     0.20345   0.92286   0.71360   0.00000  Uiso   1.00
Zn941  Zn    0.19338   0.80661   0.78734   0.00000  Uiso   1.00
Zn942  Zn    0.13379   0.79124   0.71875   0.00000  Uiso   1.00
Zn943  Zn    0.21056   0.86442   0.70657   0.00000  Uiso   1.00
Zn944  Zn    0.12893   0.87106   0.78733   0.00000  Uiso   1.00
C945   C     0.38648   0.82632   0.75971   0.00000  Uiso   1.00
C946   C     0.49950   0.82637   0.56079   0.00000  Uiso   1.00
C947   C     0.56299   0.79423   0.55619   0.00000  Uiso   1.00
C948   C     0.61401   0.84077   0.74043   0.00000  Uiso   1.00
C949   C     0.47018   0.85422   0.91973   0.00000  Uiso   1.00
C950   C     0.65946   0.84573   0.73915   0.00000  Uiso   1.00
C951   C     0.34153   0.82251   0.76341   0.00000  Uiso   1.00
C952   C     0.51414   0.98935   0.73722   0.00000  Uiso   1.00
C953   C     0.48465   0.67869   0.76393   0.00000  Uiso   1.00
C954   C     0.48950   0.72284   0.76011   0.00000  Uiso   1.00
C955   C     0.50997   0.94458   0.74024   0.00000  Uiso   1.00
C956   C     0.41086   0.84823   0.98537   0.00000  Uiso   1.00
C957   C     0.51896   0.81479   0.62956   0.00000  Uiso   1.00
C958   C     0.48230   0.85158   0.87066   0.00000  Uiso   1.00
C959   C     0.57581   0.79664   0.51023   0.00000  Uiso   1.00
C960   C     0.52599   0.80992   0.58137   0.00000  Uiso   1.00
C961   C     0.42739   0.85808   0.94139   0.00000  Uiso   1.00
C962   C     0.64983   0.78908   0.78977   0.00000  Uiso   1.00
C963   C     0.55080   0.67523   0.70497   0.00000  Uiso   1.00
C964   C     0.46829   0.85174   0.58865   0.00000  Uiso   1.00
C965   C     0.35397   0.87759   0.71239   0.00000  Uiso   1.00
C966   C     0.43697   0.83547   0.50859   0.00000  Uiso   1.00
C967   C     0.48142   0.83609   0.98970   0.00000  Uiso   1.00
C968   C     0.49795   0.84496   0.94429   0.00000  Uiso   1.00
C969   C     0.50941   0.82515   0.51351   0.00000  Uiso   1.00
C970   C     0.55048   0.81488   0.98900   0.00000  Uiso   1.00
C971   C     0.56671   0.82635   0.94510   0.00000  Uiso   1.00
C972   C     0.54163   0.84339   0.92416   0.00000  Uiso   1.00
H973   H     0.58322   0.78180   0.57270   0.00000  Uiso   1.00
H974   H     0.59959   0.82420   0.92716   0.00000  Uiso   1.00
H975   H     0.40565   0.86510   0.92317   0.00000  Uiso   1.00
H976   H     0.42127   0.82332   0.54050   0.00000  Uiso   1.00
H977   H     0.37707   0.84827   0.50077   0.00000  Uiso   1.00
H978   H     0.55682   0.85439   0.89149   0.00000  Uiso   1.00
H979   H     0.43157   0.68242   0.80989   0.00000  Uiso   1.00
H980   H     0.61193   0.77183   0.95690   0.00000  Uiso   1.00
N981   N     0.63001   0.76238   0.81084   0.00000  Uiso   1.00
N982   N     0.57999   0.69054   0.67930   0.00000  Uiso   1.00
N983   N     0.44364   0.87209   0.61098   0.00000  Uiso   1.00
N984   N     0.37604   0.90317   0.69126   0.00000  Uiso   1.00
O985   O     0.50000   0.83333   0.75000   0.00000  Uiso   1.00
O986   O     0.48784   0.79304   0.65458   0.00000  Uiso   1.00
O987   O     0.46274   0.87058   0.84968   0.00000  Uiso   1.00
O988   O     0.54157   0.84425   0.64606   0.00000  Uiso   1.00
O989   O     0.50785   0.82546   0.84968   0.00000  Uiso   1.00
O990   O     0.44906   0.99378   0.79389   0.00000  Uiso   1.00
O991   O     0.61354   0.78164   0.98771   0.00000  Uiso   1.00
O992   O     0.51264   0.74686   0.78213   0.00000  Uiso   1.00
O993   O     0.47965   0.92751   0.77013   0.00000  Uiso   1.00
O994   O     0.40745   0.79958   0.73413   0.00000  Uiso   1.00
O995   O     0.60026   0.85939   0.71360   0.00000  Uiso   1.00
O996   O     0.40405   0.85544   0.78213   0.00000  Uiso   1.00
O997   O     0.58824   0.81892   0.77013   0.00000  Uiso   1.00
O998   O     0.47093   0.73610   0.73413   0.00000  Uiso   1.00
O999   O     0.53678   0.92286   0.71360   0.00000  Uiso   1.00
Zn1000 Zn    0.52672   0.80661   0.78734   0.00000  Uiso   1.00
Zn1001 Zn    0.46713   0.79124   0.71875   0.00000  Uiso   1.00
Zn1002 Zn    0.54389   0.86442   0.70657   0.00000  Uiso   1.00
Zn1003 Zn    0.46226   0.87106   0.78733   0.00000  Uiso   1.00
C1004  C     0.71981   0.82632   0.75971   0.00000  Uiso   1.00
C1005  C     0.83283   0.82637   0.56079   0.00000  Uiso   1.00
C1006  C     0.89633   0.79423   0.55619   0.00000  Uiso   1.00
C1007  C     0.94734   0.84077   0.74043   0.00000  Uiso   1.00
C1008  C     0.80351   0.85422   0.91973   0.00000  Uiso   1.00
C1009  C     0.99279   0.84573   0.73915   0.00000  Uiso   1.00
C1010  C     0.67487   0.82251   0.76341   0.00000  Uiso   1.00
C1011  C     0.84747   0.98935   0.73722   0.00000  Uiso   1.00
C1012  C     0.81799   0.67869   0.76393   0.00000  Uiso   1.00
C1013  C     0.82283   0.72284   0.76011   0.00000  Uiso   1.00
C1014  C     0.84330   0.94458   0.74024   0.00000  Uiso   1.00
C1015  C     0.74420   0.84823   0.98537   0.00000  Uiso   1.00
C1016  C     0.85229   0.81479   0.62956   0.00000  Uiso   1.00
C1017  C     0.81564   0.85158   0.87066   0.00000  Uiso   1.00
C1018  C     0.90914   0.79664   0.51023   0.00000  Uiso   1.00
C1019  C     0.85932   0.80992   0.58137   0.00000  Uiso   1.00
C1020  C     0.76072   0.85808   0.94139   0.00000  Uiso   1.00
C1021  C     0.98316   0.78908   0.78977   0.00000  Uiso   1.00
C1022  C     0.88413   0.67523   0.70497   0.00000  Uiso   1.00
C1023  C     0.80162   0.85174   0.58865   0.00000  Uiso   1.00
C1024  C     0.68731   0.87759   0.71239   0.00000  Uiso   1.00
C1025  C     0.77031   0.83547   0.50859   0.00000  Uiso   1.00
C1026  C     0.81476   0.83609   0.98970   0.00000  Uiso   1.00
C1027  C     0.83128   0.84496   0.94429   0.00000  Uiso   1.00
C1028  C     0.84275   0.82515   0.51351   0.00000  Uiso   1.00
C1029  C     0.88381   0.81488   0.98900   0.00000  Uiso   1.00
C1030  C     0.90004   0.82635   0.94510   0.00000  Uiso   1.00
C1031  C     0.87496   0.84339   0.92416   0.00000  Uiso   1.00
H1032  H     0.91655   0.78180   0.57270   0.00000  Uiso   1.00
H1033  H     0.93292   0.82420   0.92716   0.00000  Uiso   1.00
H1034  H     0.73898   0.86510   0.92317   0.00000  Uiso   1.00
H1035  H     0.75460   0.82332   0.54050   0.00000  Uiso   1.00
H1036  H     0.71041   0.84827   0.50077   0.00000  Uiso   1.00
H1037  H     0.89015   0.85439   0.89149   0.00000  Uiso   1.00
H1038  H     0.76491   0.68242   0.80989   0.00000  Uiso   1.00
H1039  H     0.94527   0.77183   0.95690   0.00000  Uiso   1.00
N1040  N     0.96335   0.76238   0.81084   0.00000  Uiso   1.00
N1041  N     0.91332   0.69054   0.67930   0.00000  Uiso   1.00
N1042  N     0.77697   0.87209   0.61098   0.00000  Uiso   1.00
N1043  N     0.70937   0.90317   0.69126   0.00000  Uiso   1.00
O1044  O     0.83333   0.83333   0.75000   0.00000  Uiso   1.00
O1045  O     0.82118   0.79304   0.65458   0.00000  Uiso   1.00
O1046  O     0.79607   0.87058   0.84968   0.00000  Uiso   1.00
O1047  O     0.87491   0.84425   0.64606   0.00000  Uiso   1.00
O1048  O     0.84118   0.82546   0.84968   0.00000  Uiso   1.00
O1049  O     0.78239   0.99378   0.79389   0.00000  Uiso   1.00
O1050  O     0.94687   0.78164   0.98771   0.00000  Uiso   1.00
O1051  O     0.84597   0.74686   0.78213   0.00000  Uiso   1.00
O1052  O     0.81298   0.92751   0.77013   0.00000  Uiso   1.00
O1053  O     0.74078   0.79958   0.73413   0.00000  Uiso   1.00
O1054  O     0.93360   0.85939   0.71360   0.00000  Uiso   1.00
O1055  O     0.73738   0.85544   0.78213   0.00000  Uiso   1.00
O1056  O     0.92158   0.81892   0.77013   0.00000  Uiso   1.00
O1057  O     0.80426   0.73610   0.73413   0.00000  Uiso   1.00
O1058  O     0.87012   0.92286   0.71360   0.00000  Uiso   1.00
Zn1059 Zn    0.86005   0.80661   0.78734   0.00000  Uiso   1.00
Zn1060 Zn    0.80046   0.79124   0.71875   0.00000  Uiso   1.00
Zn1061 Zn    0.87723   0.86442   0.70657   0.00000  Uiso   1.00
Zn1062 Zn    0.79560   0.87106   0.78733   0.00000  Uiso   1.00
loop_
_geom_bond_atom_site_label_1
_geom_bond_atom_site_label_2
_geom_bond_distance
_geom_bond_site_symmetry_2
_ccdc_geom_bond_type
C1     O52     1.274   .     A
C1     O50     1.267   .     A
C1     C7      1.433   .     S
C2     C16     1.402   .     A
C2     C25     1.418   .     A
C2     C20     1.453   .     S
C3     H29     1.084   .     S
C3     C15     1.388   .     A
C3     C16     1.393   .     A
C4     O53     1.275   .     A
C4     O51     1.290   .     A
C4     C6      1.463   .     S
C5     C14     1.469   .     S
C5     C24     1.417   .     A
C5     C17     1.402   .     A
C6     C66     1.358   .     S
C6     C80     1.452   .     S
C7     C124    1.358   1_455 S
C7     C136    1.451   1_455 S
C8     C11     1.459   .     S
C8     C186    1.351   .     S
C8     C196    1.454   .     S
C9     C10     1.441   .     S
C9     C362    1.351   1_545 S
C9     O400    1.385   1_545 S
C10    O48     1.279   .     A
C10    O54     1.277   .     A
C11    O49     1.272   .     A
C11    O55     1.278   .     A
C12    C17     1.386   .     A
C12    C553    1.390   .     S
C12    H564    1.083   .     S
C13    C16     1.450   .     S
C13    O42     1.277   .     A
C13    O44     1.271   .     A
C14    O45     1.287   .     A
C14    O43     1.286   .     A
C15    C557    1.417   1_554 S
C15    O578    1.380   1_554 S
C17    H31     1.083   .     S
C18    N37     1.158   .     T
C18    C66     1.451   .     S
C19    N38     1.157   .     T
C19    C362    1.454   1_545 S
C20    N39     1.157   .     T
C21    N40     1.157   .     T
C21    C124    1.452   1_455 S
C22    H32     1.078   .     S
C22    C543    1.390   1_554 S
C22    C554    1.416   1_554 S
C23    C24     1.418   .     A
C23    C553    1.416   .     S
C23    C556    1.427   .     S
C24    C28     1.407   .     A
C25    C554    1.427   1_554 S
C25    C557    1.427   1_554 S
C26    C27     1.399   .     A
C26    C546    1.417   .     S
C26    C556    1.427   .     S
C27    H30     1.082   .     S
C27    C28     1.383   .     A
C28    H34     1.081   .     S
H33    C543    1.083   1_554 S
H35    O400    0.993   1_545 S
H36    O47     0.990   .     S
O41    Zn56    1.969   .     S
O41    Zn57    1.951   .     S
O41    Zn58    1.937   .     S
O41    Zn59    1.944   .     S
O42    Zn57    1.936   .     S
O43    Zn59    1.947   .     S
O44    Zn58    1.943   .     S
O45    Zn56    1.935   .     S
O46    H212    0.993   .     S
O46    C186    1.385   .     S
O47    C546    1.380   .     S
O48    Zn56    1.935   .     S
O49    Zn59    1.936   .     S
O50    Zn57    1.938   .     S
O51    Zn58    1.949   .     S
O52    Zn59    1.942   .     S
O53    Zn56    1.933   .     S
O54    Zn57    1.943   .     S
O55    Zn58    1.939   .     S
C60    O111    1.274   .     A
C60    O109    1.267   .     A
C60    C66     1.433   .     S
C61    C75     1.402   .     A
C61    C84     1.418   .     A
C61    C79     1.453   .     S
C62    H88     1.084   .     S
C62    C74     1.388   .     A
C62    C75     1.393   .     A
C63    O112    1.275   .     A
C63    O110    1.290   .     A
C63    C65     1.463   .     S
C64    C73     1.469   .     S
C64    C83     1.417   .     A
C64    C76     1.402   .     A
C65    C125    1.358   .     S
C65    C139    1.452   .     S
C67    C70     1.459   .     S
C67    C245    1.351   .     S
C67    C255    1.454   .     S
C68    C69     1.441   .     S
C68    C421    1.351   1_545 S
C68    O459    1.385   1_545 S
C69    O107    1.279   .     A
C69    O113    1.277   .     A
C70    O108    1.272   .     A
C70    O114    1.278   .     A
C71    C76     1.386   .     A
C71    C612    1.390   .     S
C71    H623    1.083   .     S
C72    C75     1.450   .     S
C72    O101    1.277   .     A
C72    O103    1.271   .     A
C73    O104    1.287   .     A
C73    O102    1.286   .     A
C74    C616    1.417   1_554 S
C74    O637    1.380   1_554 S
C76    H90     1.083   .     S
C77    N96     1.158   .     T
C77    C125    1.451   .     S
C78    N97     1.157   .     T
C78    C421    1.454   1_545 S
C79    N98     1.157   .     T
C80    N99     1.157   .     T
C81    H91     1.078   .     S
C81    C602    1.390   1_554 S
C81    C613    1.416   1_554 S
C82    C83     1.418   .     A
C82    C612    1.416   .     S
C82    C615    1.427   .     S
C83    C87     1.407   .     A
C84    C613    1.427   1_554 S
C84    C616    1.427   1_554 S
C85    C86     1.399   .     A
C85    C605    1.417   .     S
C85    C615    1.427   .     S
C86    H89     1.082   .     S
C86    C87     1.383   .     A
C87    H93     1.081   .     S
H92    C602    1.083   1_554 S
H94    O459    0.993   1_545 S
H95    O106    0.990   .     S
O100   Zn115   1.969   .     S
O100   Zn116   1.951   .     S
O100   Zn117   1.937   .     S
O100   Zn118   1.944   .     S
O101   Zn116   1.936   .     S
O102   Zn118   1.947   .     S
O103   Zn117   1.943   .     S
O104   Zn115   1.935   .     S
O105   H271    0.993   .     S
O105   C245    1.385   .     S
O106   C605    1.380   .     S
O107   Zn115   1.935   .     S
O108   Zn118   1.936   .     S
O109   Zn116   1.938   .     S
O110   Zn117   1.949   .     S
O111   Zn118   1.942   .     S
O112   Zn115   1.933   .     S
O113   Zn116   1.943   .     S
O114   Zn117   1.939   .     S
C119   O170    1.274   .     A
C119   O168    1.267   .     A
C119   C125    1.433   .     S
C120   C134    1.402   .     A
C120   C143    1.418   .     A
C120   C138    1.453   .     S
C121   H147    1.084   .     S
C121   C133    1.388   .     A
C121   C134    1.393   .     A
C122   O171    1.275   .     A
C122   O169    1.290   .     A
C122   C124    1.463   .     S
C123   C132    1.469   .     S
C123   C142    1.417   .     A
C123   C135    1.402   .     A
C124   C7      1.358   1_655 S
C124   C21     1.452   1_655 S
C126   C129    1.459   .     S
C126   C304    1.351   .     S
C126   C314    1.454   .     S
C127   C128    1.441   .     S
C127   C480    1.351   1_545 S
C127   O518    1.385   1_545 S
C128   O166    1.279   .     A
C128   O172    1.277   .     A
C129   O167    1.272   .     A
C129   O173    1.278   .     A
C130   C135    1.386   .     A
C130   C671    1.390   .     S
C130   H682    1.083   .     S
C131   C134    1.450   .     S
C131   O160    1.277   .     A
C131   O162    1.271   .     A
C132   O163    1.287   .     A
C132   O161    1.286   .     A
C133   C675    1.417   1_554 S
C133   O696    1.380   1_554 S
C135   H149    1.083   .     S
C136   N155    1.158   .     T
C136   C7      1.451   1_655 S
C137   N156    1.157   .     T
C137   C480    1.454   1_545 S
C138   N157    1.157   .     T
C139   N158    1.157   .     T
C140   H150    1.078   .     S
C140   C661    1.390   1_554 S
C140   C672    1.416   1_554 S
C141   C142    1.418   .     A
C141   C671    1.416   .     S
C141   C674    1.427   .     S
C142   C146    1.407   .     A
C143   C672    1.427   1_554 S
C143   C675    1.427   1_554 S
C144   C145    1.399   .     A
C144   C664    1.417   .     S
C144   C674    1.427   .     S
C145   H148    1.082   .     S
C145   C146    1.383   .     A
C146   H152    1.081   .     S
H151   C661    1.083   1_554 S
H153   O518    0.993   1_545 S
H154   O165    0.990   .     S
O159   Zn174   1.969   .     S
O159   Zn175   1.951   .     S
O159   Zn176   1.937   .     S
O159   Zn177   1.944   .     S
O160   Zn175   1.936   .     S
O161   Zn177   1.947   .     S
O162   Zn176   1.943   .     S
O163   Zn174   1.935   .     S
O164   H330    0.993   .     S
O164   C304    1.385   .     S
O165   C664    1.380   .     S
O166   Zn174   1.935   .     S
O167   Zn177   1.936   .     S
O168   Zn175   1.938   .     S
O169   Zn176   1.949   .     S
O170   Zn177   1.942   .     S
O171   Zn174   1.933   .     S
O172   Zn175   1.943   .     S
O173   Zn176   1.939   .     S
C178   O229    1.274   .     A
C178   O227    1.267   .     A
C178   C184    1.433   .     S
C179   C193    1.402   .     A
C179   C202    1.418   .     A
C179   C197    1.453   .     S
C180   H206    1.084   .     S
C180   C192    1.388   .     A
C180   C193    1.393   .     A
C181   O230    1.275   .     A
C181   O228    1.290   .     A
C181   C183    1.463   .     S
C182   C191    1.469   .     S
C182   C201    1.417   .     A
C182   C194    1.402   .     A
C183   C243    1.358   .     S
C183   C257    1.452   .     S
C184   C301    1.358   1_455 S
C184   C313    1.451   1_455 S
C185   C188    1.459   .     S
C185   C363    1.351   .     S
C185   C373    1.454   .     S
C186   C187    1.441   .     S
C187   O225    1.279   .     A
C187   O231    1.277   .     A
C188   O226    1.272   .     A
C188   O232    1.278   .     A
C189   C194    1.386   .     A
C189   C730    1.390   .     S
C189   H741    1.083   .     S
C190   C193    1.450   .     S
C190   O219    1.277   .     A
C190   O221    1.271   .     A
C191   O222    1.287   .     A
C191   O220    1.286   .     A
C192   C734    1.417   1_554 S
C192   O755    1.380   1_554 S
C194   H208    1.083   .     S
C195   N214    1.158   .     T
C195   C243    1.451   .     S
C196   N215    1.157   .     T
C197   N216    1.157   .     T
C198   N217    1.157   .     T
C198   C301    1.452   1_455 S
C199   H209    1.078   .     S
C199   C720    1.390   1_554 S
C199   C731    1.416   1_554 S
C200   C201    1.418   .     A
C200   C730    1.416   .     S
C200   C733    1.427   .     S
C201   C205    1.407   .     A
C202   C731    1.427   1_554 S
C202   C734    1.427   1_554 S
C203   C204    1.399   .     A
C203   C723    1.417   .     S
C203   C733    1.427   .     S
C204   H207    1.082   .     S
C204   C205    1.383   .     A
C205   H211    1.081   .     S
H210   C720    1.083   1_554 S
H213   O224    0.990   .     S
O218   Zn233   1.969   .     S
O218   Zn234   1.951   .     S
O218   Zn235   1.937   .     S
O218   Zn236   1.944   .     S
O219   Zn234   1.936   .     S
O220   Zn236   1.947   .     S
O221   Zn235   1.943   .     S
O222   Zn233   1.935   .     S
O223   H389    0.993   .     S
O223   C363    1.385   .     S
O224   C723    1.380   .     S
O225   Zn233   1.935   .     S
O226   Zn236   1.936   .     S
O227   Zn234   1.938   .     S
O228   Zn235   1.949   .     S
O229   Zn236   1.942   .     S
O230   Zn233   1.933   .     S
O231   Zn234   1.943   .     S
O232   Zn235   1.939   .     S
C237   O288    1.274   .     A
C237   O286    1.267   .     A
C237   C243    1.433   .     S
C238   C252    1.402   .     A
C238   C261    1.418   .     A
C238   C256    1.453   .     S
C239   H265    1.084   .     S
C239   C251    1.388   .     A
C239   C252    1.393   .     A
C240   O289    1.275   .     A
C240   O287    1.290   .     A
C240   C242    1.463   .     S
C241   C250    1.469   .     S
C241   C260    1.417   .     A
C241   C253    1.402   .     A
C242   C302    1.358   .     S
C242   C316    1.452   .     S
C244   C247    1.459   .     S
C244   C422    1.351   .     S
C244   C432    1.454   .     S
C245   C246    1.441   .     S
C246   O284    1.279   .     A
C246   O290    1.277   .     A
C247   O285    1.272   .     A
C247   O291    1.278   .     A
C248   C253    1.386   .     A
C248   C789    1.390   .     S
C248   H800    1.083   .     S
C249   C252    1.450   .     S
C249   O278    1.277   .     A
C249   O280    1.271   .     A
C250   O281    1.287   .     A
C250   O279    1.286   .     A
C251   C793    1.417   1_554 S
C251   O814    1.380   1_554 S
C253   H267    1.083   .     S
C254   N273    1.158   .     T
C254   C302    1.451   .     S
C255   N274    1.157   .     T
C256   N275    1.157   .     T
C257   N276    1.157   .     T
C258   H268    1.078   .     S
C258   C779    1.390   1_554 S
C258   C790    1.416   1_554 S
C259   C260    1.418   .     A
C259   C789    1.416   .     S
C259   C792    1.427   .     S
C260   C264    1.407   .     A
C261   C790    1.427   1_554 S
C261   C793    1.427   1_554 S
C262   C263    1.399   .     A
C262   C782    1.417   .     S
C262   C792    1.427   .     S
C263   H266    1.082   .     S
C263   C264    1.383   .     A
C264   H270    1.081   .     S
H269   C779    1.083   1_554 S
H272   O283    0.990   .     S
O277   Zn292   1.969   .     S
O277   Zn293   1.951   .     S
O277   Zn294   1.937   .     S
O277   Zn295   1.944   .     S
O278   Zn293   1.936   .     S
O279   Zn295   1.947   .     S
O280   Zn294   1.943   .     S
O281   Zn292   1.935   .     S
O282   H448    0.993   .     S
O282   C422    1.385   .     S
O283   C782    1.380   .     S
O284   Zn292   1.935   .     S
O285   Zn295   1.936   .     S
O286   Zn293   1.938   .     S
O287   Zn294   1.949   .     S
O288   Zn295   1.942   .     S
O289   Zn292   1.933   .     S
O290   Zn293   1.943   .     S
O291   Zn294   1.939   .     S
C296   O347    1.274   .     A
C296   O345    1.267   .     A
C296   C302    1.433   .     S
C297   C311    1.402   .     A
C297   C320    1.418   .     A
C297   C315    1.453   .     S
C298   H324    1.084   .     S
C298   C310    1.388   .     A
C298   C311    1.393   .     A
C299   O348    1.275   .     A
C299   O346    1.290   .     A
C299   C301    1.463   .     S
C300   C309    1.469   .     S
C300   C319    1.417   .     A
C300   C312    1.402   .     A
C301   C184    1.358   1_655 S
C301   C198    1.452   1_655 S
C303   C306    1.459   .     S
C303   C481    1.351   .     S
C303   C491    1.454   .     S
C304   C305    1.441   .     S
C305   O343    1.279   .     A
C305   O349    1.277   .     A
C306   O344    1.272   .     A
C306   O350    1.278   .     A
C307   C312    1.386   .     A
C307   C848    1.390   .     S
C307   H859    1.083   .     S
C308   C311    1.450   .     S
C308   O337    1.277   .     A
C308   O339    1.271   .     A
C309   O340    1.287   .     A
C309   O338    1.286   .     A
C310   C852    1.417   1_554 S
C310   O873    1.380   1_554 S
C312   H326    1.083   .     S
C313   N332    1.158   .     T
C313   C184    1.451   1_655 S
C314   N333    1.157   .     T
C315   N334    1.157   .     T
C316   N335    1.157   .     T
C317   H327    1.078   .     S
C317   C838    1.390   1_554 S
C317   C849    1.416   1_554 S
C318   C319    1.418   .     A
C318   C848    1.416   .     S
C318   C851    1.427   .     S
C319   C323    1.407   .     A
C320   C849    1.427   1_554 S
C320   C852    1.427   1_554 S
C321   C322    1.399   .     A
C321   C841    1.417   .     S
C321   C851    1.427   .     S
C322   H325    1.082   .     S
C322   C323    1.383   .     A
C323   H329    1.081   .     S
H328   C838    1.083   1_554 S
H331   O342    0.990   .     S
O336   Zn351   1.969   .     S
O336   Zn352   1.951   .     S
O336   Zn353   1.937   .     S
O336   Zn354   1.944   .     S
O337   Zn352   1.936   .     S
O338   Zn354   1.947   .     S
O339   Zn353   1.943   .     S
O340   Zn351   1.935   .     S
O341   H507    0.993   .     S
O341   C481    1.385   .     S
O342   C841    1.380   .     S
O343   Zn351   1.935   .     S
O344   Zn354   1.936   .     S
O345   Zn352   1.938   .     S
O346   Zn353   1.949   .     S
O347   Zn354   1.942   .     S
O348   Zn351   1.933   .     S
O349   Zn352   1.943   .     S
O350   Zn353   1.939   .     S
C355   O406    1.274   .     A
C355   O404    1.267   .     A
C355   C361    1.433   .     S
C356   C370    1.402   .     A
C356   C379    1.418   .     A
C356   C374    1.453   .     S
C357   H383    1.084   .     S
C357   C369    1.388   .     A
C357   C370    1.393   .     A
C358   O407    1.275   .     A
C358   O405    1.290   .     A
C358   C360    1.463   .     S
C359   C368    1.469   .     S
C359   C378    1.417   .     A
C359   C371    1.402   .     A
C360   C420    1.358   .     S
C360   C434    1.452   .     S
C361   C478    1.358   1_455 S
C361   C490    1.451   1_455 S
C362   C365    1.459   .     S
C362   C9      1.351   1_565 S
C362   C19     1.454   1_565 S
C363   C364    1.441   .     S
C364   O402    1.279   .     A
C364   O408    1.277   .     A
C365   O403    1.272   .     A
C365   O409    1.278   .     A
C366   C371    1.386   .     A
C366   C907    1.390   .     S
C366   H918    1.083   .     S
C367   C370    1.450   .     S
C367   O396    1.277   .     A
C367   O398    1.271   .     A
C368   O399    1.287   .     A
C368   O397    1.286   .     A
C369   C911    1.417   1_554 S
C369   O932    1.380   1_554 S
C371   H385    1.083   .     S
C372   N391    1.158   .     T
C372   C420    1.451   .     S
C373   N392    1.157   .     T
C374   N393    1.157   .     T
C375   N394    1.157   .     T
C375   C478    1.452   1_455 S
C376   H386    1.078   .     S
C376   C897    1.390   1_554 S
C376   C908    1.416   1_554 S
C377   C378    1.418   .     A
C377   C907    1.416   .     S
C377   C910    1.427   .     S
C378   C382    1.407   .     A
C379   C908    1.427   1_554 S
C379   C911    1.427   1_554 S
C380   C381    1.399   .     A
C380   C900    1.417   .     S
C380   C910    1.427   .     S
C381   H384    1.082   .     S
C381   C382    1.383   .     A
C382   H388    1.081   .     S
H387   C897    1.083   1_554 S
H390   O401    0.990   .     S
O395   Zn410   1.969   .     S
O395   Zn411   1.951   .     S
O395   Zn412   1.937   .     S
O395   Zn413   1.944   .     S
O396   Zn411   1.936   .     S
O397   Zn413   1.947   .     S
O398   Zn412   1.943   .     S
O399   Zn410   1.935   .     S
O400   H35     0.993   1_565 S
O400   C9      1.385   1_565 S
O401   C900    1.380   .     S
O402   Zn410   1.935   .     S
O403   Zn413   1.936   .     S
O404   Zn411   1.938   .     S
O405   Zn412   1.949   .     S
O406   Zn413   1.942   .     S
O407   Zn410   1.933   .     S
O408   Zn411   1.943   .     S
O409   Zn412   1.939   .     S
C414   O465    1.274   .     A
C414   O463    1.267   .     A
C414   C420    1.433   .     S
C415   C429    1.402   .     A
C415   C438    1.418   .     A
C415   C433    1.453   .     S
C416   H442    1.084   .     S
C416   C428    1.388   .     A
C416   C429    1.393   .     A
C417   O466    1.275   .     A
C417   O464    1.290   .     A
C417   C419    1.463   .     S
C418   C427    1.469   .     S
C418   C437    1.417   .     A
C418   C430    1.402   .     A
C419   C479    1.358   .     S
C419   C493    1.452   .     S
C421   C424    1.459   .     S
C421   C68     1.351   1_565 S
C421   C78     1.454   1_565 S
C422   C423    1.441   .     S
C423   O461    1.279   .     A
C423   O467    1.277   .     A
C424   O462    1.272   .     A
C424   O468    1.278   .     A
C425   C430    1.386   .     A
C425   C966    1.390   .     S
C425   H977    1.083   .     S
C426   C429    1.450   .     S
C426   O455    1.277   .     A
C426   O457    1.271   .     A
C427   O458    1.287   .     A
C427   O456    1.286   .     A
C428   C970    1.417   1_554 S
C428   O991    1.380   1_554 S
C430   H444    1.083   .     S
C431   N450    1.158   .     T
C431   C479    1.451   .     S
C432   N451    1.157   .     T
C433   N452    1.157   .     T
C434   N453    1.157   .     T
C435   H445    1.078   .     S
C435   C956    1.390   1_554 S
C435   C967    1.416   1_554 S
C436   C437    1.418   .     A
C436   C966    1.416   .     S
C436   C969    1.427   .     S
C437   C441    1.407   .     A
C438   C967    1.427   1_554 S
C438   C970    1.427   1_554 S
C439   C440    1.399   .     A
C439   C959    1.417   .     S
C439   C969    1.427   .     S
C440   H443    1.082   .     S
C440   C441    1.383   .     A
C441   H447    1.081   .     S
H446   C956    1.083   1_554 S
H449   O460    0.990   .     S
O454   Zn469   1.969   .     S
O454   Zn470   1.951   .     S
O454   Zn471   1.937   .     S
O454   Zn472   1.944   .     S
O455   Zn470   1.936   .     S
O456   Zn472   1.947   .     S
O457   Zn471   1.943   .     S
O458   Zn469   1.935   .     S
O459   H94     0.993   1_565 S
O459   C68     1.385   1_565 S
O460   C959    1.380   .     S
O461   Zn469   1.935   .     S
O462   Zn472   1.936   .     S
O463   Zn470   1.938   .     S
O464   Zn471   1.949   .     S
O465   Zn472   1.942   .     S
O466   Zn469   1.933   .     S
O467   Zn470   1.943   .     S
O468   Zn471   1.939   .     S
C473   O524    1.274   .     A
C473   O522    1.267   .     A
C473   C479    1.433   .     S
C474   C488    1.402   .     A
C474   C497    1.418   .     A
C474   C492    1.453   .     S
C475   H501    1.084   .     S
C475   C487    1.388   .     A
C475   C488    1.393   .     A
C476   O525    1.275   .     A
C476   O523    1.290   .     A
C476   C478    1.463   .     S
C477   C486    1.469   .     S
C477   C496    1.417   .     A
C477   C489    1.402   .     A
C478   C361    1.358   1_655 S
C478   C375    1.452   1_655 S
C480   C483    1.459   .     S
C480   C127    1.351   1_565 S
C480   C137    1.454   1_565 S
C481   C482    1.441   .     S
C482   O520    1.279   .     A
C482   O526    1.277   .     A
C483   O521    1.272   .     A
C483   O527    1.278   .     A
C484   C489    1.386   .     A
C484   C1025   1.390   .     S
C484   H1036   1.083   .     S
C485   C488    1.450   .     S
C485   O514    1.277   .     A
C485   O516    1.271   .     A
C486   O517    1.287   .     A
C486   O515    1.286   .     A
C487   C1029   1.417   1_554 S
C487   O1050   1.380   1_554 S
C489   H503    1.083   .     S
C490   N509    1.158   .     T
C490   C361    1.451   1_655 S
C491   N510    1.157   .     T
C492   N511    1.157   .     T
C493   N512    1.157   .     T
C494   H504    1.078   .     S
C494   C1015   1.390   1_554 S
C494   C1026   1.416   1_554 S
C495   C496    1.418   .     A
C495   C1025   1.416   .     S
C495   C1028   1.427   .     S
C496   C500    1.407   .     A
C497   C1026   1.427   1_554 S
C497   C1029   1.427   1_554 S
C498   C499    1.399   .     A
C498   C1018   1.417   .     S
C498   C1028   1.427   .     S
C499   H502    1.082   .     S
C499   C500    1.383   .     A
C500   H506    1.081   .     S
H505   C1015   1.083   1_554 S
H508   O519    0.990   .     S
O513   Zn528   1.969   .     S
O513   Zn529   1.951   .     S
O513   Zn530   1.937   .     S
O513   Zn531   1.944   .     S
O514   Zn529   1.936   .     S
O515   Zn531   1.947   .     S
O516   Zn530   1.943   .     S
O517   Zn528   1.935   .     S
O518   H153    0.993   1_565 S
O518   C127    1.385   1_565 S
O519   C1018   1.380   .     S
O520   Zn528   1.935   .     S
O521   Zn531   1.936   .     S
O522   Zn529   1.938   .     S
O523   Zn530   1.949   .     S
O524   Zn531   1.942   .     S
O525   Zn528   1.933   .     S
O526   Zn529   1.943   .     S
O527   Zn530   1.939   .     S
C532   O583    1.274   .     A
C532   O581    1.267   .     A
C532   C538    1.433   .     S
C533   C547    1.402   .     A
C533   C556    1.418   .     A
C533   C551    1.453   .     S
C534   H560    1.084   .     S
C534   C546    1.388   .     A
C534   C547    1.393   .     A
C535   O584    1.275   .     A
C535   O582    1.290   .     A
C535   C537    1.463   .     S
C536   C545    1.469   .     S
C536   C555    1.417   .     A
C536   C548    1.402   .     A
C537   C597    1.358   .     S
C537   C611    1.452   .     S
C538   C655    1.358   1_455 S
C538   C667    1.451   1_455 S
C539   C542    1.459   .     S
C539   C717    1.351   .     S
C539   C727    1.454   .     S
C540   C541    1.441   .     S
C540   C893    1.351   1_545 S
C540   O931    1.385   1_545 S
C541   O579    1.279   .     A
C541   O585    1.277   .     A
C542   O580    1.272   .     A
C542   O586    1.278   .     A
C543   C548    1.386   .     A
C543   C22     1.390   1_556 S
C543   H33     1.083   1_556 S
C544   C547    1.450   .     S
C544   O573    1.277   .     A
C544   O575    1.271   .     A
C545   O576    1.287   .     A
C545   O574    1.286   .     A
C548   H562    1.083   .     S
C549   N568    1.158   .     T
C549   C597    1.451   .     S
C550   N569    1.157   .     T
C550   C893    1.454   1_545 S
C551   N570    1.157   .     T
C552   N571    1.157   .     T
C552   C655    1.452   1_455 S
C553   H563    1.078   .     S
C554   C555    1.418   .     A
C554   C22     1.416   1_556 S
C554   C25     1.427   1_556 S
C555   C559    1.407   .     A
C557   C558    1.399   .     A
C557   C15     1.417   1_556 S
C557   C25     1.427   1_556 S
C558   H561    1.082   .     S
C558   C559    1.383   .     A
C559   H565    1.081   .     S
H566   O931    0.993   1_545 S
H567   O578    0.990   .     S
O572   Zn587   1.969   .     S
O572   Zn588   1.951   .     S
O572   Zn589   1.937   .     S
O572   Zn590   1.944   .     S
O573   Zn588   1.936   .     S
O574   Zn590   1.947   .     S
O575   Zn589   1.943   .     S
O576   Zn587   1.935   .     S
O577   H743    0.993   .     S
O577   C717    1.385   .     S
O578   C15     1.380   1_556 S
O579   Zn587   1.935   .     S
O580   Zn590   1.936   .     S
O581   Zn588   1.938   .     S
O582   Zn589   1.949   .     S
O583   Zn590   1.942   .     S
O584   Zn587   1.933   .     S
O585   Zn588   1.943   .     S
O586   Zn589   1.939   .     S
C591   O642    1.274   .     A
C591   O640    1.267   .     A
C591   C597    1.433   .     S
C592   C606    1.402   .     A
C592   C615    1.418   .     A
C592   C610    1.453   .     S
C593   H619    1.084   .     S
C593   C605    1.388   .     A
C593   C606    1.393   .     A
C594   O643    1.275   .     A
C594   O641    1.290   .     A
C594   C596    1.463   .     S
C595   C604    1.469   .     S
C595   C614    1.417   .     A
C595   C607    1.402   .     A
C596   C656    1.358   .     S
C596   C670    1.452   .     S
C598   C601    1.459   .     S
C598   C776    1.351   .     S
C598   C786    1.454   .     S
C599   C600    1.441   .     S
C599   C952    1.351   1_545 S
C599   O990    1.385   1_545 S
C600   O638    1.279   .     A
C600   O644    1.277   .     A
C601   O639    1.272   .     A
C601   O645    1.278   .     A
C602   C607    1.386   .     A
C602   C81     1.390   1_556 S
C602   H92     1.083   1_556 S
C603   C606    1.450   .     S
C603   O632    1.277   .     A
C603   O634    1.271   .     A
C604   O635    1.287   .     A
C604   O633    1.286   .     A
C607   H621    1.083   .     S
C608   N627    1.158   .     T
C608   C656    1.451   .     S
C609   N628    1.157   .     T
C609   C952    1.454   1_545 S
C610   N629    1.157   .     T
C611   N630    1.157   .     T
C612   H622    1.078   .     S
C613   C614    1.418   .     A
C613   C81     1.416   1_556 S
C613   C84     1.427   1_556 S
C614   C618    1.407   .     A
C616   C617    1.399   .     A
C616   C74     1.417   1_556 S
C616   C84     1.427   1_556 S
C617   H620    1.082   .     S
C617   C618    1.383   .     A
C618   H624    1.081   .     S
H625   O990    0.993   1_545 S
H626   O637    0.990   .     S
O631   Zn646   1.969   .     S
O631   Zn647   1.951   .     S
O631   Zn648   1.937   .     S
O631   Zn649   1.944   .     S
O632   Zn647   1.936   .     S
O633   Zn649   1.947   .     S
O634   Zn648   1.943   .     S
O635   Zn646   1.935   .     S
O636   H802    0.993   .     S
O636   C776    1.385   .     S
O637   C74     1.380   1_556 S
O638   Zn646   1.935   .     S
O639   Zn649   1.936   .     S
O640   Zn647   1.938   .     S
O641   Zn648   1.949   .     S
O642   Zn649   1.942   .     S
O643   Zn646   1.933   .     S
O644   Zn647   1.943   .     S
O645   Zn648   1.939   .     S
C650   O701    1.274   .     A
C650   O699    1.267   .     A
C650   C656    1.433   .     S
C651   C665    1.402   .     A
C651   C674    1.418   .     A
C651   C669    1.453   .     S
C652   H678    1.084   .     S
C652   C664    1.388   .     A
C652   C665    1.393   .     A
C653   O702    1.275   .     A
C653   O700    1.290   .     A
C653   C655    1.463   .     S
C654   C663    1.469   .     S
C654   C673    1.417   .     A
C654   C666    1.402   .     A
C655   C538    1.358   1_655 S
C655   C552    1.452   1_655 S
C657   C660    1.459   .     S
C657   C835    1.351   .     S
C657   C845    1.454   .     S
C658   C659    1.441   .     S
C658   C1011   1.351   1_545 S
C658   O1049   1.385   1_545 S
C659   O697    1.279   .     A
C659   O703    1.277   .     A
C660   O698    1.272   .     A
C660   O704    1.278   .     A
C661   C666    1.386   .     A
C661   C140    1.390   1_556 S
C661   H151    1.083   1_556 S
C662   C665    1.450   .     S
C662   O691    1.277   .     A
C662   O693    1.271   .     A
C663   O694    1.287   .     A
C663   O692    1.286   .     A
C666   H680    1.083   .     S
C667   N686    1.158   .     T
C667   C538    1.451   1_655 S
C668   N687    1.157   .     T
C668   C1011   1.454   1_545 S
C669   N688    1.157   .     T
C670   N689    1.157   .     T
C671   H681    1.078   .     S
C672   C673    1.418   .     A
C672   C140    1.416   1_556 S
C672   C143    1.427   1_556 S
C673   C677    1.407   .     A
C675   C676    1.399   .     A
C675   C133    1.417   1_556 S
C675   C143    1.427   1_556 S
C676   H679    1.082   .     S
C676   C677    1.383   .     A
C677   H683    1.081   .     S
H684   O1049   0.993   1_545 S
H685   O696    0.990   .     S
O690   Zn705   1.969   .     S
O690   Zn706   1.951   .     S
O690   Zn707   1.937   .     S
O690   Zn708   1.944   .     S
O691   Zn706   1.936   .     S
O692   Zn708   1.947   .     S
O693   Zn707   1.943   .     S
O694   Zn705   1.935   .     S
O695   H861    0.993   .     S
O695   C835    1.385   .     S
O696   C133    1.380   1_556 S
O697   Zn705   1.935   .     S
O698   Zn708   1.936   .     S
O699   Zn706   1.938   .     S
O700   Zn707   1.949   .     S
O701   Zn708   1.942   .     S
O702   Zn705   1.933   .     S
O703   Zn706   1.943   .     S
O704   Zn707   1.939   .     S
C709   O760    1.274   .     A
C709   O758    1.267   .     A
C709   C715    1.433   .     S
C710   C724    1.402   .     A
C710   C733    1.418   .     A
C710   C728    1.453   .     S
C711   H737    1.084   .     S
C711   C723    1.388   .     A
C711   C724    1.393   .     A
C712   O761    1.275   .     A
C712   O759    1.290   .     A
C712   C714    1.463   .     S
C713   C722    1.469   .     S
C713   C732    1.417   .     A
C713   C725    1.402   .     A
C714   C774    1.358   .     S
C714   C788    1.452   .     S
C715   C832    1.358   1_455 S
C715   C844    1.451   1_455 S
C716   C719    1.459   .     S
C716   C894    1.351   .     S
C716   C904    1.454   .     S
C717   C718    1.441   .     S
C718   O756    1.279   .     A
C718   O762    1.277   .     A
C719   O757    1.272   .     A
C719   O763    1.278   .     A
C720   C725    1.386   .     A
C720   C199    1.390   1_556 S
C720   H210    1.083   1_556 S
C721   C724    1.450   .     S
C721   O750    1.277   .     A
C721   O752    1.271   .     A
C722   O753    1.287   .     A
C722   O751    1.286   .     A
C725   H739    1.083   .     S
C726   N745    1.158   .     T
C726   C774    1.451   .     S
C727   N746    1.157   .     T
C728   N747    1.157   .     T
C729   N748    1.157   .     T
C729   C832    1.452   1_455 S
C730   H740    1.078   .     S
C731   C732    1.418   .     A
C731   C199    1.416   1_556 S
C731   C202    1.427   1_556 S
C732   C736    1.407   .     A
C734   C735    1.399   .     A
C734   C192    1.417   1_556 S
C734   C202    1.427   1_556 S
C735   H738    1.082   .     S
C735   C736    1.383   .     A
C736   H742    1.081   .     S
H744   O755    0.990   .     S
O749   Zn764   1.969   .     S
O749   Zn765   1.951   .     S
O749   Zn766   1.937   .     S
O749   Zn767   1.944   .     S
O750   Zn765   1.936   .     S
O751   Zn767   1.947   .     S
O752   Zn766   1.943   .     S
O753   Zn764   1.935   .     S
O754   H920    0.993   .     S
O754   C894    1.385   .     S
O755   C192    1.380   1_556 S
O756   Zn764   1.935   .     S
O757   Zn767   1.936   .     S
O758   Zn765   1.938   .     S
O759   Zn766   1.949   .     S
O760   Zn767   1.942   .     S
O761   Zn764   1.933   .     S
O762   Zn765   1.943   .     S
O763   Zn766   1.939   .     S
C768   O819    1.274   .     A
C768   O817    1.267   .     A
C768   C774    1.433   .     S
C769   C783    1.402   .     A
C769   C792    1.418   .     A
C769   C787    1.453   .     S
C770   H796    1.084   .     S
C770   C782    1.388   .     A
C770   C783    1.393   .     A
C771   O820    1.275   .     A
C771   O818    1.290   .     A
C771   C773    1.463   .     S
C772   C781    1.469   .     S
C772   C791    1.417   .     A
C772   C784    1.402   .     A
C773   C833    1.358   .     S
C773   C847    1.452   .     S
C775   C778    1.459   .     S
C775   C953    1.351   .     S
C775   C963    1.454   .     S
C776   C777    1.441   .     S
C777   O815    1.279   .     A
C777   O821    1.277   .     A
C778   O816    1.272   .     A
C778   O822    1.278   .     A
C779   C784    1.386   .     A
C779   C258    1.390   1_556 S
C779   H269    1.083   1_556 S
C780   C783    1.450   .     S
C780   O809    1.277   .     A
C780   O811    1.271   .     A
C781   O812    1.287   .     A
C781   O810    1.286   .     A
C784   H798    1.083   .     S
C785   N804    1.158   .     T
C785   C833    1.451   .     S
C786   N805    1.157   .     T
C787   N806    1.157   .     T
C788   N807    1.157   .     T
C789   H799    1.078   .     S
C790   C791    1.418   .     A
C790   C258    1.416   1_556 S
C790   C261    1.427   1_556 S
C791   C795    1.407   .     A
C793   C794    1.399   .     A
C793   C251    1.417   1_556 S
C793   C261    1.427   1_556 S
C794   H797    1.082   .     S
C794   C795    1.383   .     A
C795   H801    1.081   .     S
H803   O814    0.990   .     S
O808   Zn823   1.969   .     S
O808   Zn824   1.951   .     S
O808   Zn825   1.937   .     S
O808   Zn826   1.944   .     S
O809   Zn824   1.936   .     S
O810   Zn826   1.947   .     S
O811   Zn825   1.943   .     S
O812   Zn823   1.935   .     S
O813   H979    0.993   .     S
O813   C953    1.385   .     S
O814   C251    1.380   1_556 S
O815   Zn823   1.935   .     S
O816   Zn826   1.936   .     S
O817   Zn824   1.938   .     S
O818   Zn825   1.949   .     S
O819   Zn826   1.942   .     S
O820   Zn823   1.933   .     S
O821   Zn824   1.943   .     S
O822   Zn825   1.939   .     S
C827   O878    1.274   .     A
C827   O876    1.267   .     A
C827   C833    1.433   .     S
C828   C842    1.402   .     A
C828   C851    1.418   .     A
C828   C846    1.453   .     S
C829   H855    1.084   .     S
C829   C841    1.388   .     A
C829   C842    1.393   .     A
C830   O879    1.275   .     A
C830   O877    1.290   .     A
C830   C832    1.463   .     S
C831   C840    1.469   .     S
C831   C850    1.417   .     A
C831   C843    1.402   .     A
C832   C715    1.358   1_655 S
C832   C729    1.452   1_655 S
C834   C837    1.459   .     S
C834   C1012   1.351   .     S
C834   C1022   1.454   .     S
C835   C836    1.441   .     S
C836   O874    1.279   .     A
C836   O880    1.277   .     A
C837   O875    1.272   .     A
C837   O881    1.278   .     A
C838   C843    1.386   .     A
C838   C317    1.390   1_556 S
C838   H328    1.083   1_556 S
C839   C842    1.450   .     S
C839   O868    1.277   .     A
C839   O870    1.271   .     A
C840   O871    1.287   .     A
C840   O869    1.286   .     A
C843   H857    1.083   .     S
C844   N863    1.158   .     T
C844   C715    1.451   1_655 S
C845   N864    1.157   .     T
C846   N865    1.157   .     T
C847   N866    1.157   .     T
C848   H858    1.078   .     S
C849   C850    1.418   .     A
C849   C317    1.416   1_556 S
C849   C320    1.427   1_556 S
C850   C854    1.407   .     A
C852   C853    1.399   .     A
C852   C310    1.417   1_556 S
C852   C320    1.427   1_556 S
C853   H856    1.082   .     S
C853   C854    1.383   .     A
C854   H860    1.081   .     S
H862   O873    0.990   .     S
O867   Zn882   1.969   .     S
O867   Zn883   1.951   .     S
O867   Zn884   1.937   .     S
O867   Zn885   1.944   .     S
O868   Zn883   1.936   .     S
O869   Zn885   1.947   .     S
O870   Zn884   1.943   .     S
O871   Zn882   1.935   .     S
O872   H1038   0.993   .     S
O872   C1012   1.385   .     S
O873   C310    1.380   1_556 S
O874   Zn882   1.935   .     S
O875   Zn885   1.936   .     S
O876   Zn883   1.938   .     S
O877   Zn884   1.949   .     S
O878   Zn885   1.942   .     S
O879   Zn882   1.933   .     S
O880   Zn883   1.943   .     S
O881   Zn884   1.939   .     S
C886   O937    1.274   .     A
C886   O935    1.267   .     A
C886   C892    1.433   .     S
C887   C901    1.402   .     A
C887   C910    1.418   .     A
C887   C905    1.453   .     S
C888   H914    1.084   .     S
C888   C900    1.388   .     A
C888   C901    1.393   .     A
C889   O938    1.275   .     A
C889   O936    1.290   .     A
C889   C891    1.463   .     S
C890   C899    1.469   .     S
C890   C909    1.417   .     A
C890   C902    1.402   .     A
C891   C951    1.358   .     S
C891   C965    1.452   .     S
C892   C1009   1.358   1_455 S
C892   C1021   1.451   1_455 S
C893   C896    1.459   .     S
C893   C540    1.351   1_565 S
C893   C550    1.454   1_565 S
C894   C895    1.441   .     S
C895   O933    1.279   .     A
C895   O939    1.277   .     A
C896   O934    1.272   .     A
C896   O940    1.278   .     A
C897   C902    1.386   .     A
C897   C376    1.390   1_556 S
C897   H387    1.083   1_556 S
C898   C901    1.450   .     S
C898   O927    1.277   .     A
C898   O929    1.271   .     A
C899   O930    1.287   .     A
C899   O928    1.286   .     A
C902   H916    1.083   .     S
C903   N922    1.158   .     T
C903   C951    1.451   .     S
C904   N923    1.157   .     T
C905   N924    1.157   .     T
C906   N925    1.157   .     T
C906   C1009   1.452   1_455 S
C907   H917    1.078   .     S
C908   C909    1.418   .     A
C908   C376    1.416   1_556 S
C908   C379    1.427   1_556 S
C909   C913    1.407   .     A
C911   C912    1.399   .     A
C911   C369    1.417   1_556 S
C911   C379    1.427   1_556 S
C912   H915    1.082   .     S
C912   C913    1.383   .     A
C913   H919    1.081   .     S
H921   O932    0.990   .     S
O926   Zn941   1.969   .     S
O926   Zn942   1.951   .     S
O926   Zn943   1.937   .     S
O926   Zn944   1.944   .     S
O927   Zn942   1.936   .     S
O928   Zn944   1.947   .     S
O929   Zn943   1.943   .     S
O930   Zn941   1.935   .     S
O931   H566    0.993   1_565 S
O931   C540    1.385   1_565 S
O932   C369    1.380   1_556 S
O933   Zn941   1.935   .     S
O934   Zn944   1.936   .     S
O935   Zn942   1.938   .     S
O936   Zn943   1.949   .     S
O937   Zn944   1.942   .     S
O938   Zn941   1.933   .     S
O939   Zn942   1.943   .     S
O940   Zn943   1.939   .     S
C945   O996    1.274   .     A
C945   O994    1.267   .     A
C945   C951    1.433   .     S
C946   C960    1.402   .     A
C946   C969    1.418   .     A
C946   C964    1.453   .     S
C947   H973    1.084   .     S
C947   C959    1.388   .     A
C947   C960    1.393   .     A
C948   O997    1.275   .     A
C948   O995    1.290   .     A
C948   C950    1.463   .     S
C949   C958    1.469   .     S
C949   C968    1.417   .     A
C949   C961    1.402   .     A
C950   C1010   1.358   .     S
C950   C1024   1.452   .     S
C952   C955    1.459   .     S
C952   C599    1.351   1_565 S
C952   C609    1.454   1_565 S
C953   C954    1.441   .     S
C954   O992    1.279   .     A
C954   O998    1.277   .     A
C955   O993    1.272   .     A
C955   O999    1.278   .     A
C956   C961    1.386   .     A
C956   C435    1.390   1_556 S
C956   H446    1.083   1_556 S
C957   C960    1.450   .     S
C957   O986    1.277   .     A
C957   O988    1.271   .     A
C958   O989    1.287   .     A
C958   O987    1.286   .     A
C961   H975    1.083   .     S
C962   N981    1.158   .     T
C962   C1010   1.451   .     S
C963   N982    1.157   .     T
C964   N983    1.157   .     T
C965   N984    1.157   .     T
C966   H976    1.078   .     S
C967   C968    1.418   .     A
C967   C435    1.416   1_556 S
C967   C438    1.427   1_556 S
C968   C972    1.407   .     A
C970   C971    1.399   .     A
C970   C428    1.417   1_556 S
C970   C438    1.427   1_556 S
C971   H974    1.082   .     S
C971   C972    1.383   .     A
C972   H978    1.081   .     S
H980   O991    0.990   .     S
O985   Zn1000  1.969   .     S
O985   Zn1001  1.951   .     S
O985   Zn1002  1.937   .     S
O985   Zn1003  1.944   .     S
O986   Zn1001  1.936   .     S
O987   Zn1003  1.947   .     S
O988   Zn1002  1.943   .     S
O989   Zn1000  1.935   .     S
O990   H625    0.993   1_565 S
O990   C599    1.385   1_565 S
O991   C428    1.380   1_556 S
O992   Zn1000  1.935   .     S
O993   Zn1003  1.936   .     S
O994   Zn1001  1.938   .     S
O995   Zn1002  1.949   .     S
O996   Zn1003  1.942   .     S
O997   Zn1000  1.933   .     S
O998   Zn1001  1.943   .     S
O999   Zn1002  1.939   .     S
C1004  O1055   1.274   .     A
C1004  O1053   1.267   .     A
C1004  C1010   1.433   .     S
C1005  C1019   1.402   .     A
C1005  C1028   1.418   .     A
C1005  C1023   1.453   .     S
C1006  H1032   1.084   .     S
C1006  C1018   1.388   .     A
C1006  C1019   1.393   .     A
C1007  O1056   1.275   .     A
C1007  O1054   1.290   .     A
C1007  C1009   1.463   .     S
C1008  C1017   1.469   .     S
C1008  C1027   1.417   .     A
C1008  C1020   1.402   .     A
C1009  C892    1.358   1_655 S
C1009  C906    1.452   1_655 S
C1011  C1014   1.459   .     S
C1011  C658    1.351   1_565 S
C1011  C668    1.454   1_565 S
C1012  C1013   1.441   .     S
C1013  O1051   1.279   .     A
C1013  O1057   1.277   .     A
C1014  O1052   1.272   .     A
C1014  O1058   1.278   .     A
C1015  C1020   1.386   .     A
C1015  C494    1.390   1_556 S
C1015  H505    1.083   1_556 S
C1016  C1019   1.450   .     S
C1016  O1045   1.277   .     A
C1016  O1047   1.271   .     A
C1017  O1048   1.287   .     A
C1017  O1046   1.286   .     A
C1020  H1034   1.083   .     S
C1021  N1040   1.158   .     T
C1021  C892    1.451   1_655 S
C1022  N1041   1.157   .     T
C1023  N1042   1.157   .     T
C1024  N1043   1.157   .     T
C1025  H1035   1.078   .     S
C1026  C1027   1.418   .     A
C1026  C494    1.416   1_556 S
C1026  C497    1.427   1_556 S
C1027  C1031   1.407   .     A
C1029  C1030   1.399   .     A
C1029  C487    1.417   1_556 S
C1029  C497    1.427   1_556 S
C1030  H1033   1.082   .     S
C1030  C1031   1.383   .     A
C1031  H1037   1.081   .     S
H1039  O1050   0.990   .     S
O1044  Zn1059  1.969   .     S
O1044  Zn1060  1.951   .     S
O1044  Zn1061  1.937   .     S
O1044  Zn1062  1.944   .     S
O1045  Zn1060  1.936   .     S
O1046  Zn1062  1.947   .     S
O1047  Zn1061  1.943   .     S
O1048  Zn1059  1.935   .     S
O1049  H684    0.993   1_565 S
O1049  C658    1.385   1_565 S
O1050  C487    1.380   1_556 S
O1051  Zn1059  1.935   .     S
O1052  Zn1062  1.936   .     S
O1053  Zn1060  1.938   .     S
O1054  Zn1061  1.949   .     S
O1055  Zn1062  1.942   .     S
O1056  Zn1059  1.933   .     S
O1057  Zn1060  1.943   .     S
O1058  Zn1061  1.939   .     S
