data_str_m1_o10_o18_pcu_sym.36
_audit_creation_date              2020-01-03
_audit_creation_method            'Materials Studio'
_symmetry_space_group_name_H-M    'P1'
_symmetry_Int_Tables_number       1
_symmetry_cell_setting            triclinic
loop_
_symmetry_equiv_pos_as_xyz
  x,y,z
_cell_length_a                    32.5960
_cell_length_b                    32.5081
_cell_length_c                    35.8975
_cell_angle_alpha                 98.3526
_cell_angle_beta                  72.5595
_cell_angle_gamma                 98.6457
loop_
_atom_site_label
_atom_site_type_symbol
_atom_site_fract_x
_atom_site_fract_y
_atom_site_fract_z
_atom_site_U_iso_or_equiv
_atom_site_adp_type
_atom_site_occupancy
Zn1    Zn    0.19244   0.14090   0.28278   0.00000  Uiso   1.00
Zn2    Zn    0.13459   0.12378   0.22258   0.00000  Uiso   1.00
Zn3    Zn    0.21166   0.19664   0.21188   0.00000  Uiso   1.00
Zn4    Zn    0.12798   0.20535   0.28277   0.00000  Uiso   1.00
O5     O     0.16667   0.16667   0.25000   0.00000  Uiso   1.00
O6     O     0.06990   0.18960   0.27820   0.00000  Uiso   1.00
O7     O     0.25440   0.15277   0.26768   0.00000  Uiso   1.00
O8     O     0.13800   0.06903   0.23607   0.00000  Uiso   1.00
O9     O     0.20437   0.25527   0.21806   0.00000  Uiso   1.00
O10    O     0.15693   0.12393   0.16625   0.00000  Uiso   1.00
O11    O     0.12687   0.20646   0.33749   0.00000  Uiso   1.00
O12    O     0.21088   0.17493   0.15877   0.00000  Uiso   1.00
O13    O     0.17198   0.16135   0.33749   0.00000  Uiso   1.00
O14    O     0.17849   0.08101   0.27821   0.00000  Uiso   1.00
O15    O     0.14581   0.26136   0.26767   0.00000  Uiso   1.00
O16    O     0.07452   0.13251   0.23607   0.00000  Uiso   1.00
O17    O     0.26785   0.19179   0.21806   0.00000  Uiso   1.00
C18    C     0.05236   0.15977   0.25927   0.00000  Uiso   1.00
C19    C     0.28121   0.17311   0.24056   0.00000  Uiso   1.00
C20    C     0.15584   0.05618   0.25889   0.00000  Uiso   1.00
C21    C     0.17684   0.27771   0.24135   0.00000  Uiso   1.00
C22    C     0.18842   0.14513   0.14412   0.00000  Uiso   1.00
C23    C     0.14596   0.18860   0.35612   0.00000  Uiso   1.00
C24    C     0.13822   0.19932   0.39902   0.00000  Uiso   1.00
C25    C     0.19690   0.13693   0.10186   0.00000  Uiso   1.00
C26    C     0.10464   0.23789   0.46122   0.00000  Uiso   1.00
C27    C     0.11378   0.23208   0.42050   0.00000  Uiso   1.00
C28    C     0.15546   0.17551   0.41904   0.00000  Uiso   1.00
C29    C     0.14969   0.18363   0.45983   0.00000  Uiso   1.00
C30    C     0.12253   0.21444   0.48089   0.00000  Uiso   1.00
C31    C     0.17005   0.16220   0.48024   0.00000  Uiso   1.00
C32    C     0.16128   0.17098   0.02187   0.00000  Uiso   1.00
C33    C     0.13248   0.20084   0.04166   0.00000  Uiso   1.00
C34    C     0.11389   0.22227   0.02145   0.00000  Uiso   1.00
C35    C     0.19985   0.13325   0.46029   0.00000  Uiso   1.00
C36    C     0.21999   0.11316   0.48026   0.00000  Uiso   1.00
C37    C     0.21169   0.12122   0.02076   0.00000  Uiso   1.00
C38    C     0.18219   0.15013   0.04220   0.00000  Uiso   1.00
C39    C     0.23313   0.10076   0.04001   0.00000  Uiso   1.00
C40    C     0.22580   0.10869   0.08044   0.00000  Uiso   1.00
C41    C     0.17520   0.15726   0.08323   0.00000  Uiso   1.00
H42    H     0.09274   0.24551   0.03779   0.00000  Uiso   1.00
H43    H     0.15318   0.17833   0.10187   0.00000  Uiso   1.00
H44    H     0.24251   0.09277   0.09504   0.00000  Uiso   1.00
H45    H     0.24270   0.09135   0.46368   0.00000  Uiso   1.00
H46    H     0.08479   0.26221   0.47743   0.00000  Uiso   1.00
H47    H     0.17289   0.15031   0.40200   0.00000  Uiso   1.00
H48    H     0.12391   0.20918   0.07290   0.00000  Uiso   1.00
H49    H     0.20934   0.12581   0.42893   0.00000  Uiso   1.00
H50    H     0.25569   0.07872   0.02371   0.00000  Uiso   1.00
C51    C     0.32780   0.17483   0.23514   0.00000  Uiso   1.00
C52    C     0.00733   0.15932   0.26201   0.00000  Uiso   1.00
H53    H     0.31749   0.14732   0.28785   0.00000  Uiso   1.00
C54    C     0.18091   0.32220   0.23815   0.00000  Uiso   1.00
H55    H     0.20826   0.00283   0.21619   0.00000  Uiso   1.00
C56    C     0.15132   0.01212   0.26204   0.00000  Uiso   1.00
H57    H     0.12355   0.33225   0.28403   0.00000  Uiso   1.00
N58    N     0.02496   0.19237   0.20135   0.00000  Uiso   1.00
O59    O     0.01541   0.18864   0.16823   0.00000  Uiso   1.00
O60    O     0.06083   0.21462   0.20410   0.00000  Uiso   1.00
O61    O     0.09850   0.25914   0.40303   0.00000  Uiso   1.00
H62    H     0.12259   0.26842   0.38050   0.00000  Uiso   1.00
Zn63   Zn    0.52577   0.14090   0.28278   0.00000  Uiso   1.00
Zn64   Zn    0.46792   0.12378   0.22258   0.00000  Uiso   1.00
Zn65   Zn    0.54500   0.19664   0.21188   0.00000  Uiso   1.00
Zn66   Zn    0.46131   0.20535   0.28277   0.00000  Uiso   1.00
O67    O     0.50000   0.16667   0.25000   0.00000  Uiso   1.00
O68    O     0.40323   0.18960   0.27820   0.00000  Uiso   1.00
O69    O     0.58773   0.15277   0.26768   0.00000  Uiso   1.00
O70    O     0.47133   0.06903   0.23607   0.00000  Uiso   1.00
O71    O     0.53771   0.25527   0.21806   0.00000  Uiso   1.00
O72    O     0.49027   0.12393   0.16625   0.00000  Uiso   1.00
O73    O     0.46020   0.20646   0.33749   0.00000  Uiso   1.00
O74    O     0.54421   0.17493   0.15877   0.00000  Uiso   1.00
O75    O     0.50532   0.16135   0.33749   0.00000  Uiso   1.00
O76    O     0.51182   0.08101   0.27821   0.00000  Uiso   1.00
O77    O     0.47914   0.26136   0.26767   0.00000  Uiso   1.00
O78    O     0.40785   0.13251   0.23607   0.00000  Uiso   1.00
O79    O     0.60119   0.19179   0.21806   0.00000  Uiso   1.00
C80    C     0.38569   0.15977   0.25927   0.00000  Uiso   1.00
C81    C     0.61455   0.17311   0.24056   0.00000  Uiso   1.00
C82    C     0.48918   0.05618   0.25889   0.00000  Uiso   1.00
C83    C     0.51017   0.27771   0.24135   0.00000  Uiso   1.00
C84    C     0.52175   0.14513   0.14412   0.00000  Uiso   1.00
C85    C     0.47929   0.18860   0.35612   0.00000  Uiso   1.00
C86    C     0.47155   0.19932   0.39902   0.00000  Uiso   1.00
C87    C     0.53023   0.13693   0.10186   0.00000  Uiso   1.00
C88    C     0.43797   0.23789   0.46122   0.00000  Uiso   1.00
C89    C     0.44712   0.23208   0.42050   0.00000  Uiso   1.00
C90    C     0.48879   0.17551   0.41904   0.00000  Uiso   1.00
C91    C     0.48302   0.18363   0.45983   0.00000  Uiso   1.00
C92    C     0.45587   0.21444   0.48089   0.00000  Uiso   1.00
C93    C     0.50338   0.16220   0.48024   0.00000  Uiso   1.00
C94    C     0.49461   0.17098   0.02187   0.00000  Uiso   1.00
C95    C     0.46581   0.20084   0.04166   0.00000  Uiso   1.00
C96    C     0.44723   0.22227   0.02145   0.00000  Uiso   1.00
C97    C     0.53318   0.13325   0.46029   0.00000  Uiso   1.00
C98    C     0.55332   0.11316   0.48026   0.00000  Uiso   1.00
C99    C     0.54502   0.12122   0.02076   0.00000  Uiso   1.00
C100   C     0.51552   0.15013   0.04220   0.00000  Uiso   1.00
C101   C     0.56646   0.10076   0.04001   0.00000  Uiso   1.00
C102   C     0.55913   0.10869   0.08044   0.00000  Uiso   1.00
C103   C     0.50853   0.15726   0.08323   0.00000  Uiso   1.00
H104   H     0.42607   0.24551   0.03779   0.00000  Uiso   1.00
H105   H     0.48651   0.17833   0.10187   0.00000  Uiso   1.00
H106   H     0.57585   0.09277   0.09504   0.00000  Uiso   1.00
H107   H     0.57603   0.09135   0.46368   0.00000  Uiso   1.00
H108   H     0.41812   0.26221   0.47743   0.00000  Uiso   1.00
H109   H     0.50622   0.15031   0.40200   0.00000  Uiso   1.00
H110   H     0.45725   0.20918   0.07290   0.00000  Uiso   1.00
H111   H     0.54267   0.12581   0.42893   0.00000  Uiso   1.00
H112   H     0.58902   0.07872   0.02371   0.00000  Uiso   1.00
C113   C     0.66113   0.17483   0.23514   0.00000  Uiso   1.00
C114   C     0.34066   0.15932   0.26201   0.00000  Uiso   1.00
H115   H     0.65083   0.14732   0.28785   0.00000  Uiso   1.00
C116   C     0.51424   0.32220   0.23815   0.00000  Uiso   1.00
H117   H     0.54159   0.00283   0.21619   0.00000  Uiso   1.00
C118   C     0.48466   0.01212   0.26204   0.00000  Uiso   1.00
H119   H     0.45688   0.33225   0.28403   0.00000  Uiso   1.00
N120   N     0.35829   0.19237   0.20135   0.00000  Uiso   1.00
O121   O     0.34874   0.18864   0.16823   0.00000  Uiso   1.00
O122   O     0.39416   0.21462   0.20410   0.00000  Uiso   1.00
O123   O     0.43183   0.25914   0.40303   0.00000  Uiso   1.00
H124   H     0.45592   0.26842   0.38050   0.00000  Uiso   1.00
Zn125  Zn    0.85910   0.14090   0.28278   0.00000  Uiso   1.00
Zn126  Zn    0.80125   0.12378   0.22258   0.00000  Uiso   1.00
Zn127  Zn    0.87833   0.19664   0.21188   0.00000  Uiso   1.00
Zn128  Zn    0.79465   0.20535   0.28277   0.00000  Uiso   1.00
O129   O     0.83333   0.16667   0.25000   0.00000  Uiso   1.00
O130   O     0.73656   0.18960   0.27820   0.00000  Uiso   1.00
O131   O     0.92106   0.15277   0.26768   0.00000  Uiso   1.00
O132   O     0.80467   0.06903   0.23607   0.00000  Uiso   1.00
O133   O     0.87104   0.25527   0.21806   0.00000  Uiso   1.00
O134   O     0.82360   0.12393   0.16625   0.00000  Uiso   1.00
O135   O     0.79354   0.20646   0.33749   0.00000  Uiso   1.00
O136   O     0.87755   0.17493   0.15877   0.00000  Uiso   1.00
O137   O     0.83865   0.16135   0.33749   0.00000  Uiso   1.00
O138   O     0.84515   0.08101   0.27821   0.00000  Uiso   1.00
O139   O     0.81247   0.26136   0.26767   0.00000  Uiso   1.00
O140   O     0.74119   0.13251   0.23607   0.00000  Uiso   1.00
O141   O     0.93452   0.19179   0.21806   0.00000  Uiso   1.00
C142   C     0.71903   0.15977   0.25927   0.00000  Uiso   1.00
C143   C     0.94788   0.17311   0.24056   0.00000  Uiso   1.00
C144   C     0.82251   0.05618   0.25889   0.00000  Uiso   1.00
C145   C     0.84351   0.27771   0.24135   0.00000  Uiso   1.00
C146   C     0.85508   0.14513   0.14412   0.00000  Uiso   1.00
C147   C     0.81262   0.18860   0.35612   0.00000  Uiso   1.00
C148   C     0.80488   0.19932   0.39902   0.00000  Uiso   1.00
C149   C     0.86357   0.13693   0.10186   0.00000  Uiso   1.00
C150   C     0.77130   0.23789   0.46122   0.00000  Uiso   1.00
C151   C     0.78045   0.23208   0.42050   0.00000  Uiso   1.00
C152   C     0.82213   0.17551   0.41904   0.00000  Uiso   1.00
C153   C     0.81636   0.18363   0.45983   0.00000  Uiso   1.00
C154   C     0.78920   0.21444   0.48089   0.00000  Uiso   1.00
C155   C     0.83672   0.16220   0.48024   0.00000  Uiso   1.00
C156   C     0.82795   0.17098   0.02187   0.00000  Uiso   1.00
C157   C     0.79915   0.20084   0.04166   0.00000  Uiso   1.00
C158   C     0.78056   0.22227   0.02145   0.00000  Uiso   1.00
C159   C     0.86652   0.13325   0.46029   0.00000  Uiso   1.00
C160   C     0.88665   0.11316   0.48026   0.00000  Uiso   1.00
C161   C     0.87836   0.12122   0.02076   0.00000  Uiso   1.00
C162   C     0.84886   0.15013   0.04220   0.00000  Uiso   1.00
C163   C     0.89980   0.10076   0.04001   0.00000  Uiso   1.00
C164   C     0.89247   0.10869   0.08044   0.00000  Uiso   1.00
C165   C     0.84187   0.15726   0.08323   0.00000  Uiso   1.00
H166   H     0.75940   0.24551   0.03779   0.00000  Uiso   1.00
H167   H     0.81985   0.17833   0.10187   0.00000  Uiso   1.00
H168   H     0.90918   0.09277   0.09504   0.00000  Uiso   1.00
H169   H     0.90937   0.09135   0.46368   0.00000  Uiso   1.00
H170   H     0.75146   0.26221   0.47743   0.00000  Uiso   1.00
H171   H     0.83956   0.15031   0.40200   0.00000  Uiso   1.00
H172   H     0.79058   0.20918   0.07290   0.00000  Uiso   1.00
H173   H     0.87601   0.12581   0.42893   0.00000  Uiso   1.00
H174   H     0.92235   0.07872   0.02371   0.00000  Uiso   1.00
C175   C     0.99447   0.17483   0.23514   0.00000  Uiso   1.00
C176   C     0.67400   0.15932   0.26201   0.00000  Uiso   1.00
H177   H     0.98416   0.14732   0.28785   0.00000  Uiso   1.00
C178   C     0.84757   0.32220   0.23815   0.00000  Uiso   1.00
H179   H     0.87493   0.00283   0.21619   0.00000  Uiso   1.00
C180   C     0.81799   0.01212   0.26204   0.00000  Uiso   1.00
H181   H     0.79022   0.33225   0.28403   0.00000  Uiso   1.00
N182   N     0.69162   0.19237   0.20135   0.00000  Uiso   1.00
O183   O     0.68207   0.18864   0.16823   0.00000  Uiso   1.00
O184   O     0.72749   0.21462   0.20410   0.00000  Uiso   1.00
O185   O     0.76516   0.25914   0.40303   0.00000  Uiso   1.00
H186   H     0.78926   0.26842   0.38050   0.00000  Uiso   1.00
Zn187  Zn    0.19244   0.47423   0.28278   0.00000  Uiso   1.00
Zn188  Zn    0.13459   0.45711   0.22258   0.00000  Uiso   1.00
Zn189  Zn    0.21166   0.52997   0.21188   0.00000  Uiso   1.00
Zn190  Zn    0.12798   0.53868   0.28277   0.00000  Uiso   1.00
O191   O     0.16667   0.50000   0.25000   0.00000  Uiso   1.00
O192   O     0.06990   0.52293   0.27820   0.00000  Uiso   1.00
O193   O     0.25440   0.48610   0.26768   0.00000  Uiso   1.00
O194   O     0.13800   0.40236   0.23607   0.00000  Uiso   1.00
O195   O     0.20437   0.58860   0.21806   0.00000  Uiso   1.00
O196   O     0.15693   0.45726   0.16625   0.00000  Uiso   1.00
O197   O     0.12687   0.53979   0.33749   0.00000  Uiso   1.00
O198   O     0.21088   0.50826   0.15877   0.00000  Uiso   1.00
O199   O     0.17198   0.49468   0.33749   0.00000  Uiso   1.00
O200   O     0.17849   0.41434   0.27821   0.00000  Uiso   1.00
O201   O     0.14581   0.59469   0.26767   0.00000  Uiso   1.00
O202   O     0.07452   0.46584   0.23607   0.00000  Uiso   1.00
O203   O     0.26785   0.52512   0.21806   0.00000  Uiso   1.00
C204   C     0.05236   0.49310   0.25927   0.00000  Uiso   1.00
C205   C     0.28121   0.50644   0.24056   0.00000  Uiso   1.00
C206   C     0.15584   0.38952   0.25889   0.00000  Uiso   1.00
C207   C     0.17684   0.61104   0.24135   0.00000  Uiso   1.00
C208   C     0.18842   0.47846   0.14412   0.00000  Uiso   1.00
C209   C     0.14596   0.52193   0.35612   0.00000  Uiso   1.00
C210   C     0.13822   0.53265   0.39902   0.00000  Uiso   1.00
C211   C     0.19690   0.47027   0.10186   0.00000  Uiso   1.00
C212   C     0.10464   0.57122   0.46122   0.00000  Uiso   1.00
C213   C     0.11378   0.56542   0.42050   0.00000  Uiso   1.00
C214   C     0.15546   0.50884   0.41904   0.00000  Uiso   1.00
C215   C     0.14969   0.51696   0.45983   0.00000  Uiso   1.00
C216   C     0.12253   0.54777   0.48089   0.00000  Uiso   1.00
C217   C     0.17005   0.49553   0.48024   0.00000  Uiso   1.00
C218   C     0.16128   0.50432   0.02187   0.00000  Uiso   1.00
C219   C     0.13248   0.53417   0.04166   0.00000  Uiso   1.00
C220   C     0.11389   0.55560   0.02145   0.00000  Uiso   1.00
C221   C     0.19985   0.46658   0.46029   0.00000  Uiso   1.00
C222   C     0.21999   0.44649   0.48026   0.00000  Uiso   1.00
C223   C     0.21169   0.45455   0.02076   0.00000  Uiso   1.00
C224   C     0.18219   0.48346   0.04220   0.00000  Uiso   1.00
C225   C     0.23313   0.43410   0.04001   0.00000  Uiso   1.00
C226   C     0.22580   0.44202   0.08044   0.00000  Uiso   1.00
C227   C     0.17520   0.49060   0.08323   0.00000  Uiso   1.00
H228   H     0.09274   0.57885   0.03779   0.00000  Uiso   1.00
H229   H     0.15318   0.51166   0.10187   0.00000  Uiso   1.00
H230   H     0.24251   0.42611   0.09504   0.00000  Uiso   1.00
H231   H     0.24270   0.42468   0.46368   0.00000  Uiso   1.00
H232   H     0.08479   0.59554   0.47743   0.00000  Uiso   1.00
H233   H     0.17289   0.48364   0.40200   0.00000  Uiso   1.00
H234   H     0.12391   0.54251   0.07290   0.00000  Uiso   1.00
H235   H     0.20934   0.45915   0.42893   0.00000  Uiso   1.00
H236   H     0.25569   0.41206   0.02371   0.00000  Uiso   1.00
C237   C     0.32780   0.50817   0.23514   0.00000  Uiso   1.00
C238   C     0.00733   0.49265   0.26201   0.00000  Uiso   1.00
H239   H     0.31749   0.48065   0.28785   0.00000  Uiso   1.00
C240   C     0.18091   0.65553   0.23815   0.00000  Uiso   1.00
H241   H     0.20826   0.33616   0.21619   0.00000  Uiso   1.00
C242   C     0.15132   0.34545   0.26204   0.00000  Uiso   1.00
H243   H     0.12355   0.66558   0.28403   0.00000  Uiso   1.00
N244   N     0.02496   0.52570   0.20135   0.00000  Uiso   1.00
O245   O     0.01541   0.52197   0.16823   0.00000  Uiso   1.00
O246   O     0.06083   0.54795   0.20410   0.00000  Uiso   1.00
O247   O     0.09850   0.59247   0.40303   0.00000  Uiso   1.00
H248   H     0.12259   0.60175   0.38050   0.00000  Uiso   1.00
Zn249  Zn    0.52577   0.47423   0.28278   0.00000  Uiso   1.00
Zn250  Zn    0.46792   0.45711   0.22258   0.00000  Uiso   1.00
Zn251  Zn    0.54500   0.52997   0.21188   0.00000  Uiso   1.00
Zn252  Zn    0.46131   0.53868   0.28277   0.00000  Uiso   1.00
O253   O     0.50000   0.50000   0.25000   0.00000  Uiso   1.00
O254   O     0.40323   0.52293   0.27820   0.00000  Uiso   1.00
O255   O     0.58773   0.48610   0.26768   0.00000  Uiso   1.00
O256   O     0.47133   0.40236   0.23607   0.00000  Uiso   1.00
O257   O     0.53771   0.58860   0.21806   0.00000  Uiso   1.00
O258   O     0.49027   0.45726   0.16625   0.00000  Uiso   1.00
O259   O     0.46020   0.53979   0.33749   0.00000  Uiso   1.00
O260   O     0.54421   0.50826   0.15877   0.00000  Uiso   1.00
O261   O     0.50532   0.49468   0.33749   0.00000  Uiso   1.00
O262   O     0.51182   0.41434   0.27821   0.00000  Uiso   1.00
O263   O     0.47914   0.59469   0.26767   0.00000  Uiso   1.00
O264   O     0.40785   0.46584   0.23607   0.00000  Uiso   1.00
O265   O     0.60119   0.52512   0.21806   0.00000  Uiso   1.00
C266   C     0.38569   0.49310   0.25927   0.00000  Uiso   1.00
C267   C     0.61455   0.50644   0.24056   0.00000  Uiso   1.00
C268   C     0.48918   0.38952   0.25889   0.00000  Uiso   1.00
C269   C     0.51017   0.61104   0.24135   0.00000  Uiso   1.00
C270   C     0.52175   0.47846   0.14412   0.00000  Uiso   1.00
C271   C     0.47929   0.52193   0.35612   0.00000  Uiso   1.00
C272   C     0.47155   0.53265   0.39902   0.00000  Uiso   1.00
C273   C     0.53023   0.47027   0.10186   0.00000  Uiso   1.00
C274   C     0.43797   0.57122   0.46122   0.00000  Uiso   1.00
C275   C     0.44712   0.56542   0.42050   0.00000  Uiso   1.00
C276   C     0.48879   0.50884   0.41904   0.00000  Uiso   1.00
C277   C     0.48302   0.51696   0.45983   0.00000  Uiso   1.00
C278   C     0.45587   0.54777   0.48089   0.00000  Uiso   1.00
C279   C     0.50338   0.49553   0.48024   0.00000  Uiso   1.00
C280   C     0.49461   0.50432   0.02187   0.00000  Uiso   1.00
C281   C     0.46581   0.53417   0.04166   0.00000  Uiso   1.00
C282   C     0.44723   0.55560   0.02145   0.00000  Uiso   1.00
C283   C     0.53318   0.46658   0.46029   0.00000  Uiso   1.00
C284   C     0.55332   0.44649   0.48026   0.00000  Uiso   1.00
C285   C     0.54502   0.45455   0.02076   0.00000  Uiso   1.00
C286   C     0.51552   0.48346   0.04220   0.00000  Uiso   1.00
C287   C     0.56646   0.43410   0.04001   0.00000  Uiso   1.00
C288   C     0.55913   0.44202   0.08044   0.00000  Uiso   1.00
C289   C     0.50853   0.49060   0.08323   0.00000  Uiso   1.00
H290   H     0.42607   0.57885   0.03779   0.00000  Uiso   1.00
H291   H     0.48651   0.51166   0.10187   0.00000  Uiso   1.00
H292   H     0.57585   0.42611   0.09504   0.00000  Uiso   1.00
H293   H     0.57603   0.42468   0.46368   0.00000  Uiso   1.00
H294   H     0.41812   0.59554   0.47743   0.00000  Uiso   1.00
H295   H     0.50622   0.48364   0.40200   0.00000  Uiso   1.00
H296   H     0.45725   0.54251   0.07290   0.00000  Uiso   1.00
H297   H     0.54267   0.45915   0.42893   0.00000  Uiso   1.00
H298   H     0.58902   0.41206   0.02371   0.00000  Uiso   1.00
C299   C     0.66113   0.50817   0.23514   0.00000  Uiso   1.00
C300   C     0.34066   0.49265   0.26201   0.00000  Uiso   1.00
H301   H     0.65083   0.48065   0.28785   0.00000  Uiso   1.00
C302   C     0.51424   0.65553   0.23815   0.00000  Uiso   1.00
H303   H     0.54159   0.33616   0.21619   0.00000  Uiso   1.00
C304   C     0.48466   0.34545   0.26204   0.00000  Uiso   1.00
H305   H     0.45688   0.66558   0.28403   0.00000  Uiso   1.00
N306   N     0.35829   0.52570   0.20135   0.00000  Uiso   1.00
O307   O     0.34874   0.52197   0.16823   0.00000  Uiso   1.00
O308   O     0.39416   0.54795   0.20410   0.00000  Uiso   1.00
O309   O     0.43183   0.59247   0.40303   0.00000  Uiso   1.00
H310   H     0.45592   0.60175   0.38050   0.00000  Uiso   1.00
Zn311  Zn    0.85910   0.47423   0.28278   0.00000  Uiso   1.00
Zn312  Zn    0.80125   0.45711   0.22258   0.00000  Uiso   1.00
Zn313  Zn    0.87833   0.52997   0.21188   0.00000  Uiso   1.00
Zn314  Zn    0.79465   0.53868   0.28277   0.00000  Uiso   1.00
O315   O     0.83333   0.50000   0.25000   0.00000  Uiso   1.00
O316   O     0.73656   0.52293   0.27820   0.00000  Uiso   1.00
O317   O     0.92106   0.48610   0.26768   0.00000  Uiso   1.00
O318   O     0.80467   0.40236   0.23607   0.00000  Uiso   1.00
O319   O     0.87104   0.58860   0.21806   0.00000  Uiso   1.00
O320   O     0.82360   0.45726   0.16625   0.00000  Uiso   1.00
O321   O     0.79354   0.53979   0.33749   0.00000  Uiso   1.00
O322   O     0.87755   0.50826   0.15877   0.00000  Uiso   1.00
O323   O     0.83865   0.49468   0.33749   0.00000  Uiso   1.00
O324   O     0.84515   0.41434   0.27821   0.00000  Uiso   1.00
O325   O     0.81247   0.59469   0.26767   0.00000  Uiso   1.00
O326   O     0.74119   0.46584   0.23607   0.00000  Uiso   1.00
O327   O     0.93452   0.52512   0.21806   0.00000  Uiso   1.00
C328   C     0.71903   0.49310   0.25927   0.00000  Uiso   1.00
C329   C     0.94788   0.50644   0.24056   0.00000  Uiso   1.00
C330   C     0.82251   0.38952   0.25889   0.00000  Uiso   1.00
C331   C     0.84351   0.61104   0.24135   0.00000  Uiso   1.00
C332   C     0.85508   0.47846   0.14412   0.00000  Uiso   1.00
C333   C     0.81262   0.52193   0.35612   0.00000  Uiso   1.00
C334   C     0.80488   0.53265   0.39902   0.00000  Uiso   1.00
C335   C     0.86357   0.47027   0.10186   0.00000  Uiso   1.00
C336   C     0.77130   0.57122   0.46122   0.00000  Uiso   1.00
C337   C     0.78045   0.56542   0.42050   0.00000  Uiso   1.00
C338   C     0.82213   0.50884   0.41904   0.00000  Uiso   1.00
C339   C     0.81636   0.51696   0.45983   0.00000  Uiso   1.00
C340   C     0.78920   0.54777   0.48089   0.00000  Uiso   1.00
C341   C     0.83672   0.49553   0.48024   0.00000  Uiso   1.00
C342   C     0.82795   0.50432   0.02187   0.00000  Uiso   1.00
C343   C     0.79915   0.53417   0.04166   0.00000  Uiso   1.00
C344   C     0.78056   0.55560   0.02145   0.00000  Uiso   1.00
C345   C     0.86652   0.46658   0.46029   0.00000  Uiso   1.00
C346   C     0.88665   0.44649   0.48026   0.00000  Uiso   1.00
C347   C     0.87836   0.45455   0.02076   0.00000  Uiso   1.00
C348   C     0.84886   0.48346   0.04220   0.00000  Uiso   1.00
C349   C     0.89980   0.43410   0.04001   0.00000  Uiso   1.00
C350   C     0.89247   0.44202   0.08044   0.00000  Uiso   1.00
C351   C     0.84187   0.49060   0.08323   0.00000  Uiso   1.00
H352   H     0.75940   0.57885   0.03779   0.00000  Uiso   1.00
H353   H     0.81985   0.51166   0.10187   0.00000  Uiso   1.00
H354   H     0.90918   0.42611   0.09504   0.00000  Uiso   1.00
H355   H     0.90937   0.42468   0.46368   0.00000  Uiso   1.00
H356   H     0.75146   0.59554   0.47743   0.00000  Uiso   1.00
H357   H     0.83956   0.48364   0.40200   0.00000  Uiso   1.00
H358   H     0.79058   0.54251   0.07290   0.00000  Uiso   1.00
H359   H     0.87601   0.45915   0.42893   0.00000  Uiso   1.00
H360   H     0.92235   0.41206   0.02371   0.00000  Uiso   1.00
C361   C     0.99447   0.50817   0.23514   0.00000  Uiso   1.00
C362   C     0.67400   0.49265   0.26201   0.00000  Uiso   1.00
H363   H     0.98416   0.48065   0.28785   0.00000  Uiso   1.00
C364   C     0.84757   0.65553   0.23815   0.00000  Uiso   1.00
H365   H     0.87493   0.33616   0.21619   0.00000  Uiso   1.00
C366   C     0.81799   0.34545   0.26204   0.00000  Uiso   1.00
H367   H     0.79022   0.66558   0.28403   0.00000  Uiso   1.00
N368   N     0.69162   0.52570   0.20135   0.00000  Uiso   1.00
O369   O     0.68207   0.52197   0.16823   0.00000  Uiso   1.00
O370   O     0.72749   0.54795   0.20410   0.00000  Uiso   1.00
O371   O     0.76516   0.59247   0.40303   0.00000  Uiso   1.00
H372   H     0.78926   0.60175   0.38050   0.00000  Uiso   1.00
Zn373  Zn    0.19244   0.80756   0.28278   0.00000  Uiso   1.00
Zn374  Zn    0.13459   0.79044   0.22258   0.00000  Uiso   1.00
Zn375  Zn    0.21166   0.86331   0.21188   0.00000  Uiso   1.00
Zn376  Zn    0.12798   0.87202   0.28277   0.00000  Uiso   1.00
O377   O     0.16667   0.83333   0.25000   0.00000  Uiso   1.00
O378   O     0.06990   0.85627   0.27820   0.00000  Uiso   1.00
O379   O     0.25440   0.81944   0.26768   0.00000  Uiso   1.00
O380   O     0.13800   0.73570   0.23607   0.00000  Uiso   1.00
O381   O     0.20437   0.92193   0.21806   0.00000  Uiso   1.00
O382   O     0.15693   0.79060   0.16625   0.00000  Uiso   1.00
O383   O     0.12687   0.87313   0.33749   0.00000  Uiso   1.00
O384   O     0.21088   0.84159   0.15877   0.00000  Uiso   1.00
O385   O     0.17198   0.82802   0.33749   0.00000  Uiso   1.00
O386   O     0.17849   0.74768   0.27821   0.00000  Uiso   1.00
O387   O     0.14581   0.92803   0.26767   0.00000  Uiso   1.00
O388   O     0.07452   0.79917   0.23607   0.00000  Uiso   1.00
O389   O     0.26785   0.85845   0.21806   0.00000  Uiso   1.00
C390   C     0.05236   0.82644   0.25927   0.00000  Uiso   1.00
C391   C     0.28121   0.83978   0.24056   0.00000  Uiso   1.00
C392   C     0.15584   0.72285   0.25889   0.00000  Uiso   1.00
C393   C     0.17684   0.94437   0.24135   0.00000  Uiso   1.00
C394   C     0.18842   0.81179   0.14412   0.00000  Uiso   1.00
C395   C     0.14596   0.85527   0.35612   0.00000  Uiso   1.00
C396   C     0.13822   0.86599   0.39902   0.00000  Uiso   1.00
C397   C     0.19690   0.80360   0.10186   0.00000  Uiso   1.00
C398   C     0.10464   0.90456   0.46122   0.00000  Uiso   1.00
C399   C     0.11378   0.89875   0.42050   0.00000  Uiso   1.00
C400   C     0.15546   0.84218   0.41904   0.00000  Uiso   1.00
C401   C     0.14969   0.85029   0.45983   0.00000  Uiso   1.00
C402   C     0.12253   0.88111   0.48089   0.00000  Uiso   1.00
C403   C     0.17005   0.82886   0.48024   0.00000  Uiso   1.00
C404   C     0.16128   0.83765   0.02187   0.00000  Uiso   1.00
C405   C     0.13248   0.86750   0.04166   0.00000  Uiso   1.00
C406   C     0.11389   0.88894   0.02145   0.00000  Uiso   1.00
C407   C     0.19985   0.79992   0.46029   0.00000  Uiso   1.00
C408   C     0.21999   0.77982   0.48026   0.00000  Uiso   1.00
C409   C     0.21169   0.78788   0.02076   0.00000  Uiso   1.00
C410   C     0.18219   0.81680   0.04220   0.00000  Uiso   1.00
C411   C     0.23313   0.76743   0.04001   0.00000  Uiso   1.00
C412   C     0.22580   0.77535   0.08044   0.00000  Uiso   1.00
C413   C     0.17520   0.82393   0.08323   0.00000  Uiso   1.00
H414   H     0.09274   0.91218   0.03779   0.00000  Uiso   1.00
H415   H     0.15318   0.84499   0.10187   0.00000  Uiso   1.00
H416   H     0.24251   0.75944   0.09504   0.00000  Uiso   1.00
H417   H     0.24270   0.75801   0.46368   0.00000  Uiso   1.00
H418   H     0.08479   0.92887   0.47743   0.00000  Uiso   1.00
H419   H     0.17289   0.81698   0.40200   0.00000  Uiso   1.00
H420   H     0.12391   0.87585   0.07290   0.00000  Uiso   1.00
H421   H     0.20934   0.79248   0.42893   0.00000  Uiso   1.00
H422   H     0.25569   0.74539   0.02371   0.00000  Uiso   1.00
C423   C     0.32780   0.84150   0.23514   0.00000  Uiso   1.00
C424   C     0.00733   0.82599   0.26201   0.00000  Uiso   1.00
H425   H     0.31749   0.81399   0.28785   0.00000  Uiso   1.00
C426   C     0.18091   0.98887   0.23815   0.00000  Uiso   1.00
H427   H     0.20826   0.66950   0.21619   0.00000  Uiso   1.00
C428   C     0.15132   0.67879   0.26204   0.00000  Uiso   1.00
H429   H     0.12355   0.99891   0.28403   0.00000  Uiso   1.00
N430   N     0.02496   0.85904   0.20135   0.00000  Uiso   1.00
O431   O     0.01541   0.85530   0.16823   0.00000  Uiso   1.00
O432   O     0.06083   0.88129   0.20410   0.00000  Uiso   1.00
O433   O     0.09850   0.92580   0.40303   0.00000  Uiso   1.00
H434   H     0.12259   0.93508   0.38050   0.00000  Uiso   1.00
Zn435  Zn    0.52577   0.80756   0.28278   0.00000  Uiso   1.00
Zn436  Zn    0.46792   0.79044   0.22258   0.00000  Uiso   1.00
Zn437  Zn    0.54500   0.86331   0.21188   0.00000  Uiso   1.00
Zn438  Zn    0.46131   0.87202   0.28277   0.00000  Uiso   1.00
O439   O     0.50000   0.83333   0.25000   0.00000  Uiso   1.00
O440   O     0.40323   0.85627   0.27820   0.00000  Uiso   1.00
O441   O     0.58773   0.81944   0.26768   0.00000  Uiso   1.00
O442   O     0.47133   0.73570   0.23607   0.00000  Uiso   1.00
O443   O     0.53771   0.92193   0.21806   0.00000  Uiso   1.00
O444   O     0.49027   0.79060   0.16625   0.00000  Uiso   1.00
O445   O     0.46020   0.87313   0.33749   0.00000  Uiso   1.00
O446   O     0.54421   0.84159   0.15877   0.00000  Uiso   1.00
O447   O     0.50532   0.82802   0.33749   0.00000  Uiso   1.00
O448   O     0.51182   0.74768   0.27821   0.00000  Uiso   1.00
O449   O     0.47914   0.92803   0.26767   0.00000  Uiso   1.00
O450   O     0.40785   0.79917   0.23607   0.00000  Uiso   1.00
O451   O     0.60119   0.85845   0.21806   0.00000  Uiso   1.00
C452   C     0.38569   0.82644   0.25927   0.00000  Uiso   1.00
C453   C     0.61455   0.83978   0.24056   0.00000  Uiso   1.00
C454   C     0.48918   0.72285   0.25889   0.00000  Uiso   1.00
C455   C     0.51017   0.94437   0.24135   0.00000  Uiso   1.00
C456   C     0.52175   0.81179   0.14412   0.00000  Uiso   1.00
C457   C     0.47929   0.85527   0.35612   0.00000  Uiso   1.00
C458   C     0.47155   0.86599   0.39902   0.00000  Uiso   1.00
C459   C     0.53023   0.80360   0.10186   0.00000  Uiso   1.00
C460   C     0.43797   0.90456   0.46122   0.00000  Uiso   1.00
C461   C     0.44712   0.89875   0.42050   0.00000  Uiso   1.00
C462   C     0.48879   0.84218   0.41904   0.00000  Uiso   1.00
C463   C     0.48302   0.85029   0.45983   0.00000  Uiso   1.00
C464   C     0.45587   0.88111   0.48089   0.00000  Uiso   1.00
C465   C     0.50338   0.82886   0.48024   0.00000  Uiso   1.00
C466   C     0.49461   0.83765   0.02187   0.00000  Uiso   1.00
C467   C     0.46581   0.86750   0.04166   0.00000  Uiso   1.00
C468   C     0.44723   0.88894   0.02145   0.00000  Uiso   1.00
C469   C     0.53318   0.79992   0.46029   0.00000  Uiso   1.00
C470   C     0.55332   0.77982   0.48026   0.00000  Uiso   1.00
C471   C     0.54502   0.78788   0.02076   0.00000  Uiso   1.00
C472   C     0.51552   0.81680   0.04220   0.00000  Uiso   1.00
C473   C     0.56646   0.76743   0.04001   0.00000  Uiso   1.00
C474   C     0.55913   0.77535   0.08044   0.00000  Uiso   1.00
C475   C     0.50853   0.82393   0.08323   0.00000  Uiso   1.00
H476   H     0.42607   0.91218   0.03779   0.00000  Uiso   1.00
H477   H     0.48651   0.84499   0.10187   0.00000  Uiso   1.00
H478   H     0.57585   0.75944   0.09504   0.00000  Uiso   1.00
H479   H     0.57603   0.75801   0.46368   0.00000  Uiso   1.00
H480   H     0.41812   0.92887   0.47743   0.00000  Uiso   1.00
H481   H     0.50622   0.81698   0.40200   0.00000  Uiso   1.00
H482   H     0.45725   0.87585   0.07290   0.00000  Uiso   1.00
H483   H     0.54267   0.79248   0.42893   0.00000  Uiso   1.00
H484   H     0.58902   0.74539   0.02371   0.00000  Uiso   1.00
C485   C     0.66113   0.84150   0.23514   0.00000  Uiso   1.00
C486   C     0.34066   0.82599   0.26201   0.00000  Uiso   1.00
H487   H     0.65083   0.81399   0.28785   0.00000  Uiso   1.00
C488   C     0.51424   0.98887   0.23815   0.00000  Uiso   1.00
H489   H     0.54159   0.66950   0.21619   0.00000  Uiso   1.00
C490   C     0.48466   0.67879   0.26204   0.00000  Uiso   1.00
H491   H     0.45688   0.99891   0.28403   0.00000  Uiso   1.00
N492   N     0.35829   0.85904   0.20135   0.00000  Uiso   1.00
O493   O     0.34874   0.85530   0.16823   0.00000  Uiso   1.00
O494   O     0.39416   0.88129   0.20410   0.00000  Uiso   1.00
O495   O     0.43183   0.92580   0.40303   0.00000  Uiso   1.00
H496   H     0.45592   0.93508   0.38050   0.00000  Uiso   1.00
Zn497  Zn    0.85910   0.80756   0.28278   0.00000  Uiso   1.00
Zn498  Zn    0.80125   0.79044   0.22258   0.00000  Uiso   1.00
Zn499  Zn    0.87833   0.86331   0.21188   0.00000  Uiso   1.00
Zn500  Zn    0.79465   0.87202   0.28277   0.00000  Uiso   1.00
O501   O     0.83333   0.83333   0.25000   0.00000  Uiso   1.00
O502   O     0.73656   0.85627   0.27820   0.00000  Uiso   1.00
O503   O     0.92106   0.81944   0.26768   0.00000  Uiso   1.00
O504   O     0.80467   0.73570   0.23607   0.00000  Uiso   1.00
O505   O     0.87104   0.92193   0.21806   0.00000  Uiso   1.00
O506   O     0.82360   0.79060   0.16625   0.00000  Uiso   1.00
O507   O     0.79354   0.87313   0.33749   0.00000  Uiso   1.00
O508   O     0.87755   0.84159   0.15877   0.00000  Uiso   1.00
O509   O     0.83865   0.82802   0.33749   0.00000  Uiso   1.00
O510   O     0.84515   0.74768   0.27821   0.00000  Uiso   1.00
O511   O     0.81247   0.92803   0.26767   0.00000  Uiso   1.00
O512   O     0.74119   0.79917   0.23607   0.00000  Uiso   1.00
O513   O     0.93452   0.85845   0.21806   0.00000  Uiso   1.00
C514   C     0.71903   0.82644   0.25927   0.00000  Uiso   1.00
C515   C     0.94788   0.83978   0.24056   0.00000  Uiso   1.00
C516   C     0.82251   0.72285   0.25889   0.00000  Uiso   1.00
C517   C     0.84351   0.94437   0.24135   0.00000  Uiso   1.00
C518   C     0.85508   0.81179   0.14412   0.00000  Uiso   1.00
C519   C     0.81262   0.85527   0.35612   0.00000  Uiso   1.00
C520   C     0.80488   0.86599   0.39902   0.00000  Uiso   1.00
C521   C     0.86357   0.80360   0.10186   0.00000  Uiso   1.00
C522   C     0.77130   0.90456   0.46122   0.00000  Uiso   1.00
C523   C     0.78045   0.89875   0.42050   0.00000  Uiso   1.00
C524   C     0.82213   0.84218   0.41904   0.00000  Uiso   1.00
C525   C     0.81636   0.85029   0.45983   0.00000  Uiso   1.00
C526   C     0.78920   0.88111   0.48089   0.00000  Uiso   1.00
C527   C     0.83672   0.82886   0.48024   0.00000  Uiso   1.00
C528   C     0.82795   0.83765   0.02187   0.00000  Uiso   1.00
C529   C     0.79915   0.86750   0.04166   0.00000  Uiso   1.00
C530   C     0.78056   0.88894   0.02145   0.00000  Uiso   1.00
C531   C     0.86652   0.79992   0.46029   0.00000  Uiso   1.00
C532   C     0.88665   0.77982   0.48026   0.00000  Uiso   1.00
C533   C     0.87836   0.78788   0.02076   0.00000  Uiso   1.00
C534   C     0.84886   0.81680   0.04220   0.00000  Uiso   1.00
C535   C     0.89980   0.76743   0.04001   0.00000  Uiso   1.00
C536   C     0.89247   0.77535   0.08044   0.00000  Uiso   1.00
C537   C     0.84187   0.82393   0.08323   0.00000  Uiso   1.00
H538   H     0.75940   0.91218   0.03779   0.00000  Uiso   1.00
H539   H     0.81985   0.84499   0.10187   0.00000  Uiso   1.00
H540   H     0.90918   0.75944   0.09504   0.00000  Uiso   1.00
H541   H     0.90937   0.75801   0.46368   0.00000  Uiso   1.00
H542   H     0.75146   0.92887   0.47743   0.00000  Uiso   1.00
H543   H     0.83956   0.81698   0.40200   0.00000  Uiso   1.00
H544   H     0.79058   0.87585   0.07290   0.00000  Uiso   1.00
H545   H     0.87601   0.79248   0.42893   0.00000  Uiso   1.00
H546   H     0.92235   0.74539   0.02371   0.00000  Uiso   1.00
C547   C     0.99447   0.84150   0.23514   0.00000  Uiso   1.00
C548   C     0.67400   0.82599   0.26201   0.00000  Uiso   1.00
H549   H     0.98416   0.81399   0.28785   0.00000  Uiso   1.00
C550   C     0.84757   0.98887   0.23815   0.00000  Uiso   1.00
H551   H     0.87493   0.66950   0.21619   0.00000  Uiso   1.00
C552   C     0.81799   0.67879   0.26204   0.00000  Uiso   1.00
H553   H     0.79022   0.99891   0.28403   0.00000  Uiso   1.00
N554   N     0.69162   0.85904   0.20135   0.00000  Uiso   1.00
O555   O     0.68207   0.85530   0.16823   0.00000  Uiso   1.00
O556   O     0.72749   0.88129   0.20410   0.00000  Uiso   1.00
O557   O     0.76516   0.92580   0.40303   0.00000  Uiso   1.00
H558   H     0.78926   0.93508   0.38050   0.00000  Uiso   1.00
Zn559  Zn    0.19244   0.14090   0.78278   0.00000  Uiso   1.00
Zn560  Zn    0.13459   0.12378   0.72258   0.00000  Uiso   1.00
Zn561  Zn    0.21166   0.19664   0.71188   0.00000  Uiso   1.00
Zn562  Zn    0.12798   0.20535   0.78277   0.00000  Uiso   1.00
O563   O     0.16667   0.16667   0.75000   0.00000  Uiso   1.00
O564   O     0.06990   0.18960   0.77820   0.00000  Uiso   1.00
O565   O     0.25440   0.15277   0.76768   0.00000  Uiso   1.00
O566   O     0.13800   0.06903   0.73607   0.00000  Uiso   1.00
O567   O     0.20437   0.25527   0.71806   0.00000  Uiso   1.00
O568   O     0.15693   0.12393   0.66625   0.00000  Uiso   1.00
O569   O     0.12687   0.20646   0.83749   0.00000  Uiso   1.00
O570   O     0.21088   0.17493   0.65877   0.00000  Uiso   1.00
O571   O     0.17198   0.16135   0.83749   0.00000  Uiso   1.00
O572   O     0.17849   0.08101   0.77821   0.00000  Uiso   1.00
O573   O     0.14581   0.26136   0.76767   0.00000  Uiso   1.00
O574   O     0.07452   0.13251   0.73607   0.00000  Uiso   1.00
O575   O     0.26785   0.19179   0.71806   0.00000  Uiso   1.00
C576   C     0.05236   0.15977   0.75927   0.00000  Uiso   1.00
C577   C     0.28121   0.17311   0.74056   0.00000  Uiso   1.00
C578   C     0.15584   0.05618   0.75889   0.00000  Uiso   1.00
C579   C     0.17684   0.27771   0.74135   0.00000  Uiso   1.00
C580   C     0.18842   0.14513   0.64412   0.00000  Uiso   1.00
C581   C     0.14596   0.18860   0.85612   0.00000  Uiso   1.00
C582   C     0.13822   0.19932   0.89902   0.00000  Uiso   1.00
C583   C     0.19690   0.13693   0.60186   0.00000  Uiso   1.00
C584   C     0.10464   0.23789   0.96122   0.00000  Uiso   1.00
C585   C     0.11378   0.23208   0.92050   0.00000  Uiso   1.00
C586   C     0.15546   0.17551   0.91904   0.00000  Uiso   1.00
C587   C     0.14969   0.18363   0.95983   0.00000  Uiso   1.00
C588   C     0.12253   0.21444   0.98089   0.00000  Uiso   1.00
C589   C     0.17005   0.16220   0.98024   0.00000  Uiso   1.00
C590   C     0.16128   0.17098   0.52187   0.00000  Uiso   1.00
C591   C     0.13248   0.20084   0.54166   0.00000  Uiso   1.00
C592   C     0.11389   0.22227   0.52145   0.00000  Uiso   1.00
C593   C     0.19985   0.13325   0.96029   0.00000  Uiso   1.00
C594   C     0.21999   0.11316   0.98026   0.00000  Uiso   1.00
C595   C     0.21169   0.12122   0.52076   0.00000  Uiso   1.00
C596   C     0.18219   0.15013   0.54220   0.00000  Uiso   1.00
C597   C     0.23313   0.10076   0.54001   0.00000  Uiso   1.00
C598   C     0.22580   0.10869   0.58044   0.00000  Uiso   1.00
C599   C     0.17520   0.15726   0.58323   0.00000  Uiso   1.00
H600   H     0.09274   0.24551   0.53779   0.00000  Uiso   1.00
H601   H     0.15318   0.17833   0.60187   0.00000  Uiso   1.00
H602   H     0.24251   0.09277   0.59504   0.00000  Uiso   1.00
H603   H     0.24270   0.09135   0.96368   0.00000  Uiso   1.00
H604   H     0.08479   0.26221   0.97743   0.00000  Uiso   1.00
H605   H     0.17289   0.15031   0.90200   0.00000  Uiso   1.00
H606   H     0.12391   0.20918   0.57290   0.00000  Uiso   1.00
H607   H     0.20934   0.12581   0.92893   0.00000  Uiso   1.00
H608   H     0.25569   0.07872   0.52371   0.00000  Uiso   1.00
C609   C     0.32780   0.17483   0.73514   0.00000  Uiso   1.00
C610   C     0.00733   0.15932   0.76201   0.00000  Uiso   1.00
H611   H     0.31749   0.14732   0.78785   0.00000  Uiso   1.00
C612   C     0.18091   0.32220   0.73815   0.00000  Uiso   1.00
H613   H     0.20826   0.00283   0.71619   0.00000  Uiso   1.00
C614   C     0.15132   0.01212   0.76204   0.00000  Uiso   1.00
H615   H     0.12355   0.33225   0.78403   0.00000  Uiso   1.00
N616   N     0.02496   0.19237   0.70135   0.00000  Uiso   1.00
O617   O     0.01541   0.18864   0.66823   0.00000  Uiso   1.00
O618   O     0.06083   0.21462   0.70410   0.00000  Uiso   1.00
O619   O     0.09850   0.25914   0.90303   0.00000  Uiso   1.00
H620   H     0.12259   0.26842   0.88050   0.00000  Uiso   1.00
Zn621  Zn    0.52577   0.14090   0.78278   0.00000  Uiso   1.00
Zn622  Zn    0.46792   0.12378   0.72258   0.00000  Uiso   1.00
Zn623  Zn    0.54500   0.19664   0.71188   0.00000  Uiso   1.00
Zn624  Zn    0.46131   0.20535   0.78277   0.00000  Uiso   1.00
O625   O     0.50000   0.16667   0.75000   0.00000  Uiso   1.00
O626   O     0.40323   0.18960   0.77820   0.00000  Uiso   1.00
O627   O     0.58773   0.15277   0.76768   0.00000  Uiso   1.00
O628   O     0.47133   0.06903   0.73607   0.00000  Uiso   1.00
O629   O     0.53771   0.25527   0.71806   0.00000  Uiso   1.00
O630   O     0.49027   0.12393   0.66625   0.00000  Uiso   1.00
O631   O     0.46020   0.20646   0.83749   0.00000  Uiso   1.00
O632   O     0.54421   0.17493   0.65877   0.00000  Uiso   1.00
O633   O     0.50532   0.16135   0.83749   0.00000  Uiso   1.00
O634   O     0.51182   0.08101   0.77821   0.00000  Uiso   1.00
O635   O     0.47914   0.26136   0.76767   0.00000  Uiso   1.00
O636   O     0.40785   0.13251   0.73607   0.00000  Uiso   1.00
O637   O     0.60119   0.19179   0.71806   0.00000  Uiso   1.00
C638   C     0.38569   0.15977   0.75927   0.00000  Uiso   1.00
C639   C     0.61455   0.17311   0.74056   0.00000  Uiso   1.00
C640   C     0.48918   0.05618   0.75889   0.00000  Uiso   1.00
C641   C     0.51017   0.27771   0.74135   0.00000  Uiso   1.00
C642   C     0.52175   0.14513   0.64412   0.00000  Uiso   1.00
C643   C     0.47929   0.18860   0.85612   0.00000  Uiso   1.00
C644   C     0.47155   0.19932   0.89902   0.00000  Uiso   1.00
C645   C     0.53023   0.13693   0.60186   0.00000  Uiso   1.00
C646   C     0.43797   0.23789   0.96122   0.00000  Uiso   1.00
C647   C     0.44712   0.23208   0.92050   0.00000  Uiso   1.00
C648   C     0.48879   0.17551   0.91904   0.00000  Uiso   1.00
C649   C     0.48302   0.18363   0.95983   0.00000  Uiso   1.00
C650   C     0.45587   0.21444   0.98089   0.00000  Uiso   1.00
C651   C     0.50338   0.16220   0.98024   0.00000  Uiso   1.00
C652   C     0.49461   0.17098   0.52187   0.00000  Uiso   1.00
C653   C     0.46581   0.20084   0.54166   0.00000  Uiso   1.00
C654   C     0.44723   0.22227   0.52145   0.00000  Uiso   1.00
C655   C     0.53318   0.13325   0.96029   0.00000  Uiso   1.00
C656   C     0.55332   0.11316   0.98026   0.00000  Uiso   1.00
C657   C     0.54502   0.12122   0.52076   0.00000  Uiso   1.00
C658   C     0.51552   0.15013   0.54220   0.00000  Uiso   1.00
C659   C     0.56646   0.10076   0.54001   0.00000  Uiso   1.00
C660   C     0.55913   0.10869   0.58044   0.00000  Uiso   1.00
C661   C     0.50853   0.15726   0.58323   0.00000  Uiso   1.00
H662   H     0.42607   0.24551   0.53779   0.00000  Uiso   1.00
H663   H     0.48651   0.17833   0.60187   0.00000  Uiso   1.00
H664   H     0.57585   0.09277   0.59504   0.00000  Uiso   1.00
H665   H     0.57603   0.09135   0.96368   0.00000  Uiso   1.00
H666   H     0.41812   0.26221   0.97743   0.00000  Uiso   1.00
H667   H     0.50622   0.15031   0.90200   0.00000  Uiso   1.00
H668   H     0.45725   0.20918   0.57290   0.00000  Uiso   1.00
H669   H     0.54267   0.12581   0.92893   0.00000  Uiso   1.00
H670   H     0.58902   0.07872   0.52371   0.00000  Uiso   1.00
C671   C     0.66113   0.17483   0.73514   0.00000  Uiso   1.00
C672   C     0.34066   0.15932   0.76201   0.00000  Uiso   1.00
H673   H     0.65083   0.14732   0.78785   0.00000  Uiso   1.00
C674   C     0.51424   0.32220   0.73815   0.00000  Uiso   1.00
H675   H     0.54159   0.00283   0.71619   0.00000  Uiso   1.00
C676   C     0.48466   0.01212   0.76204   0.00000  Uiso   1.00
H677   H     0.45688   0.33225   0.78403   0.00000  Uiso   1.00
N678   N     0.35829   0.19237   0.70135   0.00000  Uiso   1.00
O679   O     0.34874   0.18864   0.66823   0.00000  Uiso   1.00
O680   O     0.39416   0.21462   0.70410   0.00000  Uiso   1.00
O681   O     0.43183   0.25914   0.90303   0.00000  Uiso   1.00
H682   H     0.45592   0.26842   0.88050   0.00000  Uiso   1.00
Zn683  Zn    0.85910   0.14090   0.78278   0.00000  Uiso   1.00
Zn684  Zn    0.80125   0.12378   0.72258   0.00000  Uiso   1.00
Zn685  Zn    0.87833   0.19664   0.71188   0.00000  Uiso   1.00
Zn686  Zn    0.79465   0.20535   0.78277   0.00000  Uiso   1.00
O687   O     0.83333   0.16667   0.75000   0.00000  Uiso   1.00
O688   O     0.73656   0.18960   0.77820   0.00000  Uiso   1.00
O689   O     0.92106   0.15277   0.76768   0.00000  Uiso   1.00
O690   O     0.80467   0.06903   0.73607   0.00000  Uiso   1.00
O691   O     0.87104   0.25527   0.71806   0.00000  Uiso   1.00
O692   O     0.82360   0.12393   0.66625   0.00000  Uiso   1.00
O693   O     0.79354   0.20646   0.83749   0.00000  Uiso   1.00
O694   O     0.87755   0.17493   0.65877   0.00000  Uiso   1.00
O695   O     0.83865   0.16135   0.83749   0.00000  Uiso   1.00
O696   O     0.84515   0.08101   0.77821   0.00000  Uiso   1.00
O697   O     0.81247   0.26136   0.76767   0.00000  Uiso   1.00
O698   O     0.74119   0.13251   0.73607   0.00000  Uiso   1.00
O699   O     0.93452   0.19179   0.71806   0.00000  Uiso   1.00
C700   C     0.71903   0.15977   0.75927   0.00000  Uiso   1.00
C701   C     0.94788   0.17311   0.74056   0.00000  Uiso   1.00
C702   C     0.82251   0.05618   0.75889   0.00000  Uiso   1.00
C703   C     0.84351   0.27771   0.74135   0.00000  Uiso   1.00
C704   C     0.85508   0.14513   0.64412   0.00000  Uiso   1.00
C705   C     0.81262   0.18860   0.85612   0.00000  Uiso   1.00
C706   C     0.80488   0.19932   0.89902   0.00000  Uiso   1.00
C707   C     0.86357   0.13693   0.60186   0.00000  Uiso   1.00
C708   C     0.77130   0.23789   0.96122   0.00000  Uiso   1.00
C709   C     0.78045   0.23208   0.92050   0.00000  Uiso   1.00
C710   C     0.82213   0.17551   0.91904   0.00000  Uiso   1.00
C711   C     0.81636   0.18363   0.95983   0.00000  Uiso   1.00
C712   C     0.78920   0.21444   0.98089   0.00000  Uiso   1.00
C713   C     0.83672   0.16220   0.98024   0.00000  Uiso   1.00
C714   C     0.82795   0.17098   0.52187   0.00000  Uiso   1.00
C715   C     0.79915   0.20084   0.54166   0.00000  Uiso   1.00
C716   C     0.78056   0.22227   0.52145   0.00000  Uiso   1.00
C717   C     0.86652   0.13325   0.96029   0.00000  Uiso   1.00
C718   C     0.88665   0.11316   0.98026   0.00000  Uiso   1.00
C719   C     0.87836   0.12122   0.52076   0.00000  Uiso   1.00
C720   C     0.84886   0.15013   0.54220   0.00000  Uiso   1.00
C721   C     0.89980   0.10076   0.54001   0.00000  Uiso   1.00
C722   C     0.89247   0.10869   0.58044   0.00000  Uiso   1.00
C723   C     0.84187   0.15726   0.58323   0.00000  Uiso   1.00
H724   H     0.75940   0.24551   0.53779   0.00000  Uiso   1.00
H725   H     0.81985   0.17833   0.60187   0.00000  Uiso   1.00
H726   H     0.90918   0.09277   0.59504   0.00000  Uiso   1.00
H727   H     0.90937   0.09135   0.96368   0.00000  Uiso   1.00
H728   H     0.75146   0.26221   0.97743   0.00000  Uiso   1.00
H729   H     0.83956   0.15031   0.90200   0.00000  Uiso   1.00
H730   H     0.79058   0.20918   0.57290   0.00000  Uiso   1.00
H731   H     0.87601   0.12581   0.92893   0.00000  Uiso   1.00
H732   H     0.92235   0.07872   0.52371   0.00000  Uiso   1.00
C733   C     0.99447   0.17483   0.73514   0.00000  Uiso   1.00
C734   C     0.67400   0.15932   0.76201   0.00000  Uiso   1.00
H735   H     0.98416   0.14732   0.78785   0.00000  Uiso   1.00
C736   C     0.84757   0.32220   0.73815   0.00000  Uiso   1.00
H737   H     0.87493   0.00283   0.71619   0.00000  Uiso   1.00
C738   C     0.81799   0.01212   0.76204   0.00000  Uiso   1.00
H739   H     0.79022   0.33225   0.78403   0.00000  Uiso   1.00
N740   N     0.69162   0.19237   0.70135   0.00000  Uiso   1.00
O741   O     0.68207   0.18864   0.66823   0.00000  Uiso   1.00
O742   O     0.72749   0.21462   0.70410   0.00000  Uiso   1.00
O743   O     0.76516   0.25914   0.90303   0.00000  Uiso   1.00
H744   H     0.78926   0.26842   0.88050   0.00000  Uiso   1.00
Zn745  Zn    0.19244   0.47423   0.78278   0.00000  Uiso   1.00
Zn746  Zn    0.13459   0.45711   0.72258   0.00000  Uiso   1.00
Zn747  Zn    0.21166   0.52997   0.71188   0.00000  Uiso   1.00
Zn748  Zn    0.12798   0.53868   0.78277   0.00000  Uiso   1.00
O749   O     0.16667   0.50000   0.75000   0.00000  Uiso   1.00
O750   O     0.06990   0.52293   0.77820   0.00000  Uiso   1.00
O751   O     0.25440   0.48610   0.76768   0.00000  Uiso   1.00
O752   O     0.13800   0.40236   0.73607   0.00000  Uiso   1.00
O753   O     0.20437   0.58860   0.71806   0.00000  Uiso   1.00
O754   O     0.15693   0.45726   0.66625   0.00000  Uiso   1.00
O755   O     0.12687   0.53979   0.83749   0.00000  Uiso   1.00
O756   O     0.21088   0.50826   0.65877   0.00000  Uiso   1.00
O757   O     0.17198   0.49468   0.83749   0.00000  Uiso   1.00
O758   O     0.17849   0.41434   0.77821   0.00000  Uiso   1.00
O759   O     0.14581   0.59469   0.76767   0.00000  Uiso   1.00
O760   O     0.07452   0.46584   0.73607   0.00000  Uiso   1.00
O761   O     0.26785   0.52512   0.71806   0.00000  Uiso   1.00
C762   C     0.05236   0.49310   0.75927   0.00000  Uiso   1.00
C763   C     0.28121   0.50644   0.74056   0.00000  Uiso   1.00
C764   C     0.15584   0.38952   0.75889   0.00000  Uiso   1.00
C765   C     0.17684   0.61104   0.74135   0.00000  Uiso   1.00
C766   C     0.18842   0.47846   0.64412   0.00000  Uiso   1.00
C767   C     0.14596   0.52193   0.85612   0.00000  Uiso   1.00
C768   C     0.13822   0.53265   0.89902   0.00000  Uiso   1.00
C769   C     0.19690   0.47027   0.60186   0.00000  Uiso   1.00
C770   C     0.10464   0.57122   0.96122   0.00000  Uiso   1.00
C771   C     0.11378   0.56542   0.92050   0.00000  Uiso   1.00
C772   C     0.15546   0.50884   0.91904   0.00000  Uiso   1.00
C773   C     0.14969   0.51696   0.95983   0.00000  Uiso   1.00
C774   C     0.12253   0.54777   0.98089   0.00000  Uiso   1.00
C775   C     0.17005   0.49553   0.98024   0.00000  Uiso   1.00
C776   C     0.16128   0.50432   0.52187   0.00000  Uiso   1.00
C777   C     0.13248   0.53417   0.54166   0.00000  Uiso   1.00
C778   C     0.11389   0.55560   0.52145   0.00000  Uiso   1.00
C779   C     0.19985   0.46658   0.96029   0.00000  Uiso   1.00
C780   C     0.21999   0.44649   0.98026   0.00000  Uiso   1.00
C781   C     0.21169   0.45455   0.52076   0.00000  Uiso   1.00
C782   C     0.18219   0.48346   0.54220   0.00000  Uiso   1.00
C783   C     0.23313   0.43410   0.54001   0.00000  Uiso   1.00
C784   C     0.22580   0.44202   0.58044   0.00000  Uiso   1.00
C785   C     0.17520   0.49060   0.58323   0.00000  Uiso   1.00
H786   H     0.09274   0.57885   0.53779   0.00000  Uiso   1.00
H787   H     0.15318   0.51166   0.60187   0.00000  Uiso   1.00
H788   H     0.24251   0.42611   0.59504   0.00000  Uiso   1.00
H789   H     0.24270   0.42468   0.96368   0.00000  Uiso   1.00
H790   H     0.08479   0.59554   0.97743   0.00000  Uiso   1.00
H791   H     0.17289   0.48364   0.90200   0.00000  Uiso   1.00
H792   H     0.12391   0.54251   0.57290   0.00000  Uiso   1.00
H793   H     0.20934   0.45915   0.92893   0.00000  Uiso   1.00
H794   H     0.25569   0.41206   0.52371   0.00000  Uiso   1.00
C795   C     0.32780   0.50817   0.73514   0.00000  Uiso   1.00
C796   C     0.00733   0.49265   0.76201   0.00000  Uiso   1.00
H797   H     0.31749   0.48065   0.78785   0.00000  Uiso   1.00
C798   C     0.18091   0.65553   0.73815   0.00000  Uiso   1.00
H799   H     0.20826   0.33616   0.71619   0.00000  Uiso   1.00
C800   C     0.15132   0.34545   0.76204   0.00000  Uiso   1.00
H801   H     0.12355   0.66558   0.78403   0.00000  Uiso   1.00
N802   N     0.02496   0.52570   0.70135   0.00000  Uiso   1.00
O803   O     0.01541   0.52197   0.66823   0.00000  Uiso   1.00
O804   O     0.06083   0.54795   0.70410   0.00000  Uiso   1.00
O805   O     0.09850   0.59247   0.90303   0.00000  Uiso   1.00
H806   H     0.12259   0.60175   0.88050   0.00000  Uiso   1.00
Zn807  Zn    0.52577   0.47423   0.78278   0.00000  Uiso   1.00
Zn808  Zn    0.46792   0.45711   0.72258   0.00000  Uiso   1.00
Zn809  Zn    0.54500   0.52997   0.71188   0.00000  Uiso   1.00
Zn810  Zn    0.46131   0.53868   0.78277   0.00000  Uiso   1.00
O811   O     0.50000   0.50000   0.75000   0.00000  Uiso   1.00
O812   O     0.40323   0.52293   0.77820   0.00000  Uiso   1.00
O813   O     0.58773   0.48610   0.76768   0.00000  Uiso   1.00
O814   O     0.47133   0.40236   0.73607   0.00000  Uiso   1.00
O815   O     0.53771   0.58860   0.71806   0.00000  Uiso   1.00
O816   O     0.49027   0.45726   0.66625   0.00000  Uiso   1.00
O817   O     0.46020   0.53979   0.83749   0.00000  Uiso   1.00
O818   O     0.54421   0.50826   0.65877   0.00000  Uiso   1.00
O819   O     0.50532   0.49468   0.83749   0.00000  Uiso   1.00
O820   O     0.51182   0.41434   0.77821   0.00000  Uiso   1.00
O821   O     0.47914   0.59469   0.76767   0.00000  Uiso   1.00
O822   O     0.40785   0.46584   0.73607   0.00000  Uiso   1.00
O823   O     0.60119   0.52512   0.71806   0.00000  Uiso   1.00
C824   C     0.38569   0.49310   0.75927   0.00000  Uiso   1.00
C825   C     0.61455   0.50644   0.74056   0.00000  Uiso   1.00
C826   C     0.48918   0.38952   0.75889   0.00000  Uiso   1.00
C827   C     0.51017   0.61104   0.74135   0.00000  Uiso   1.00
C828   C     0.52175   0.47846   0.64412   0.00000  Uiso   1.00
C829   C     0.47929   0.52193   0.85612   0.00000  Uiso   1.00
C830   C     0.47155   0.53265   0.89902   0.00000  Uiso   1.00
C831   C     0.53023   0.47027   0.60186   0.00000  Uiso   1.00
C832   C     0.43797   0.57122   0.96122   0.00000  Uiso   1.00
C833   C     0.44712   0.56542   0.92050   0.00000  Uiso   1.00
C834   C     0.48879   0.50884   0.91904   0.00000  Uiso   1.00
C835   C     0.48302   0.51696   0.95983   0.00000  Uiso   1.00
C836   C     0.45587   0.54777   0.98089   0.00000  Uiso   1.00
C837   C     0.50338   0.49553   0.98024   0.00000  Uiso   1.00
C838   C     0.49461   0.50432   0.52187   0.00000  Uiso   1.00
C839   C     0.46581   0.53417   0.54166   0.00000  Uiso   1.00
C840   C     0.44723   0.55560   0.52145   0.00000  Uiso   1.00
C841   C     0.53318   0.46658   0.96029   0.00000  Uiso   1.00
C842   C     0.55332   0.44649   0.98026   0.00000  Uiso   1.00
C843   C     0.54502   0.45455   0.52076   0.00000  Uiso   1.00
C844   C     0.51552   0.48346   0.54220   0.00000  Uiso   1.00
C845   C     0.56646   0.43410   0.54001   0.00000  Uiso   1.00
C846   C     0.55913   0.44202   0.58044   0.00000  Uiso   1.00
C847   C     0.50853   0.49060   0.58323   0.00000  Uiso   1.00
H848   H     0.42607   0.57885   0.53779   0.00000  Uiso   1.00
H849   H     0.48651   0.51166   0.60187   0.00000  Uiso   1.00
H850   H     0.57585   0.42611   0.59504   0.00000  Uiso   1.00
H851   H     0.57603   0.42468   0.96368   0.00000  Uiso   1.00
H852   H     0.41812   0.59554   0.97743   0.00000  Uiso   1.00
H853   H     0.50622   0.48364   0.90200   0.00000  Uiso   1.00
H854   H     0.45725   0.54251   0.57290   0.00000  Uiso   1.00
H855   H     0.54267   0.45915   0.92893   0.00000  Uiso   1.00
H856   H     0.58902   0.41206   0.52371   0.00000  Uiso   1.00
C857   C     0.66113   0.50817   0.73514   0.00000  Uiso   1.00
C858   C     0.34066   0.49265   0.76201   0.00000  Uiso   1.00
H859   H     0.65083   0.48065   0.78785   0.00000  Uiso   1.00
C860   C     0.51424   0.65553   0.73815   0.00000  Uiso   1.00
H861   H     0.54159   0.33616   0.71619   0.00000  Uiso   1.00
C862   C     0.48466   0.34545   0.76204   0.00000  Uiso   1.00
H863   H     0.45688   0.66558   0.78403   0.00000  Uiso   1.00
N864   N     0.35829   0.52570   0.70135   0.00000  Uiso   1.00
O865   O     0.34874   0.52197   0.66823   0.00000  Uiso   1.00
O866   O     0.39416   0.54795   0.70410   0.00000  Uiso   1.00
O867   O     0.43183   0.59247   0.90303   0.00000  Uiso   1.00
H868   H     0.45592   0.60175   0.88050   0.00000  Uiso   1.00
Zn869  Zn    0.85910   0.47423   0.78278   0.00000  Uiso   1.00
Zn870  Zn    0.80125   0.45711   0.72258   0.00000  Uiso   1.00
Zn871  Zn    0.87833   0.52997   0.71188   0.00000  Uiso   1.00
Zn872  Zn    0.79465   0.53868   0.78277   0.00000  Uiso   1.00
O873   O     0.83333   0.50000   0.75000   0.00000  Uiso   1.00
O874   O     0.73656   0.52293   0.77820   0.00000  Uiso   1.00
O875   O     0.92106   0.48610   0.76768   0.00000  Uiso   1.00
O876   O     0.80467   0.40236   0.73607   0.00000  Uiso   1.00
O877   O     0.87104   0.58860   0.71806   0.00000  Uiso   1.00
O878   O     0.82360   0.45726   0.66625   0.00000  Uiso   1.00
O879   O     0.79354   0.53979   0.83749   0.00000  Uiso   1.00
O880   O     0.87755   0.50826   0.65877   0.00000  Uiso   1.00
O881   O     0.83865   0.49468   0.83749   0.00000  Uiso   1.00
O882   O     0.84515   0.41434   0.77821   0.00000  Uiso   1.00
O883   O     0.81247   0.59469   0.76767   0.00000  Uiso   1.00
O884   O     0.74119   0.46584   0.73607   0.00000  Uiso   1.00
O885   O     0.93452   0.52512   0.71806   0.00000  Uiso   1.00
C886   C     0.71903   0.49310   0.75927   0.00000  Uiso   1.00
C887   C     0.94788   0.50644   0.74056   0.00000  Uiso   1.00
C888   C     0.82251   0.38952   0.75889   0.00000  Uiso   1.00
C889   C     0.84351   0.61104   0.74135   0.00000  Uiso   1.00
C890   C     0.85508   0.47846   0.64412   0.00000  Uiso   1.00
C891   C     0.81262   0.52193   0.85612   0.00000  Uiso   1.00
C892   C     0.80488   0.53265   0.89902   0.00000  Uiso   1.00
C893   C     0.86357   0.47027   0.60186   0.00000  Uiso   1.00
C894   C     0.77130   0.57122   0.96122   0.00000  Uiso   1.00
C895   C     0.78045   0.56542   0.92050   0.00000  Uiso   1.00
C896   C     0.82213   0.50884   0.91904   0.00000  Uiso   1.00
C897   C     0.81636   0.51696   0.95983   0.00000  Uiso   1.00
C898   C     0.78920   0.54777   0.98089   0.00000  Uiso   1.00
C899   C     0.83672   0.49553   0.98024   0.00000  Uiso   1.00
C900   C     0.82795   0.50432   0.52187   0.00000  Uiso   1.00
C901   C     0.79915   0.53417   0.54166   0.00000  Uiso   1.00
C902   C     0.78056   0.55560   0.52145   0.00000  Uiso   1.00
C903   C     0.86652   0.46658   0.96029   0.00000  Uiso   1.00
C904   C     0.88665   0.44649   0.98026   0.00000  Uiso   1.00
C905   C     0.87836   0.45455   0.52076   0.00000  Uiso   1.00
C906   C     0.84886   0.48346   0.54220   0.00000  Uiso   1.00
C907   C     0.89980   0.43410   0.54001   0.00000  Uiso   1.00
C908   C     0.89247   0.44202   0.58044   0.00000  Uiso   1.00
C909   C     0.84187   0.49060   0.58323   0.00000  Uiso   1.00
H910   H     0.75940   0.57885   0.53779   0.00000  Uiso   1.00
H911   H     0.81985   0.51166   0.60187   0.00000  Uiso   1.00
H912   H     0.90918   0.42611   0.59504   0.00000  Uiso   1.00
H913   H     0.90937   0.42468   0.96368   0.00000  Uiso   1.00
H914   H     0.75146   0.59554   0.97743   0.00000  Uiso   1.00
H915   H     0.83956   0.48364   0.90200   0.00000  Uiso   1.00
H916   H     0.79058   0.54251   0.57290   0.00000  Uiso   1.00
H917   H     0.87601   0.45915   0.92893   0.00000  Uiso   1.00
H918   H     0.92235   0.41206   0.52371   0.00000  Uiso   1.00
C919   C     0.99447   0.50817   0.73514   0.00000  Uiso   1.00
C920   C     0.67400   0.49265   0.76201   0.00000  Uiso   1.00
H921   H     0.98416   0.48065   0.78785   0.00000  Uiso   1.00
C922   C     0.84757   0.65553   0.73815   0.00000  Uiso   1.00
H923   H     0.87493   0.33616   0.71619   0.00000  Uiso   1.00
C924   C     0.81799   0.34545   0.76204   0.00000  Uiso   1.00
H925   H     0.79022   0.66558   0.78403   0.00000  Uiso   1.00
N926   N     0.69162   0.52570   0.70135   0.00000  Uiso   1.00
O927   O     0.68207   0.52197   0.66823   0.00000  Uiso   1.00
O928   O     0.72749   0.54795   0.70410   0.00000  Uiso   1.00
O929   O     0.76516   0.59247   0.90303   0.00000  Uiso   1.00
H930   H     0.78926   0.60175   0.88050   0.00000  Uiso   1.00
Zn931  Zn    0.19244   0.80756   0.78278   0.00000  Uiso   1.00
Zn932  Zn    0.13459   0.79044   0.72258   0.00000  Uiso   1.00
Zn933  Zn    0.21166   0.86331   0.71188   0.00000  Uiso   1.00
Zn934  Zn    0.12798   0.87202   0.78277   0.00000  Uiso   1.00
O935   O     0.16667   0.83333   0.75000   0.00000  Uiso   1.00
O936   O     0.06990   0.85627   0.77820   0.00000  Uiso   1.00
O937   O     0.25440   0.81944   0.76768   0.00000  Uiso   1.00
O938   O     0.13800   0.73570   0.73607   0.00000  Uiso   1.00
O939   O     0.20437   0.92193   0.71806   0.00000  Uiso   1.00
O940   O     0.15693   0.79060   0.66625   0.00000  Uiso   1.00
O941   O     0.12687   0.87313   0.83749   0.00000  Uiso   1.00
O942   O     0.21088   0.84159   0.65877   0.00000  Uiso   1.00
O943   O     0.17198   0.82802   0.83749   0.00000  Uiso   1.00
O944   O     0.17849   0.74768   0.77821   0.00000  Uiso   1.00
O945   O     0.14581   0.92803   0.76767   0.00000  Uiso   1.00
O946   O     0.07452   0.79917   0.73607   0.00000  Uiso   1.00
O947   O     0.26785   0.85845   0.71806   0.00000  Uiso   1.00
C948   C     0.05236   0.82644   0.75927   0.00000  Uiso   1.00
C949   C     0.28121   0.83978   0.74056   0.00000  Uiso   1.00
C950   C     0.15584   0.72285   0.75889   0.00000  Uiso   1.00
C951   C     0.17684   0.94437   0.74135   0.00000  Uiso   1.00
C952   C     0.18842   0.81179   0.64412   0.00000  Uiso   1.00
C953   C     0.14596   0.85527   0.85612   0.00000  Uiso   1.00
C954   C     0.13822   0.86599   0.89902   0.00000  Uiso   1.00
C955   C     0.19690   0.80360   0.60186   0.00000  Uiso   1.00
C956   C     0.10464   0.90456   0.96122   0.00000  Uiso   1.00
C957   C     0.11378   0.89875   0.92050   0.00000  Uiso   1.00
C958   C     0.15546   0.84218   0.91904   0.00000  Uiso   1.00
C959   C     0.14969   0.85029   0.95983   0.00000  Uiso   1.00
C960   C     0.12253   0.88111   0.98089   0.00000  Uiso   1.00
C961   C     0.17005   0.82886   0.98024   0.00000  Uiso   1.00
C962   C     0.16128   0.83765   0.52187   0.00000  Uiso   1.00
C963   C     0.13248   0.86750   0.54166   0.00000  Uiso   1.00
C964   C     0.11389   0.88894   0.52145   0.00000  Uiso   1.00
C965   C     0.19985   0.79992   0.96029   0.00000  Uiso   1.00
C966   C     0.21999   0.77982   0.98026   0.00000  Uiso   1.00
C967   C     0.21169   0.78788   0.52076   0.00000  Uiso   1.00
C968   C     0.18219   0.81680   0.54220   0.00000  Uiso   1.00
C969   C     0.23313   0.76743   0.54001   0.00000  Uiso   1.00
C970   C     0.22580   0.77535   0.58044   0.00000  Uiso   1.00
C971   C     0.17520   0.82393   0.58323   0.00000  Uiso   1.00
H972   H     0.09274   0.91218   0.53779   0.00000  Uiso   1.00
H973   H     0.15318   0.84499   0.60187   0.00000  Uiso   1.00
H974   H     0.24251   0.75944   0.59504   0.00000  Uiso   1.00
H975   H     0.24270   0.75801   0.96368   0.00000  Uiso   1.00
H976   H     0.08479   0.92887   0.97743   0.00000  Uiso   1.00
H977   H     0.17289   0.81698   0.90200   0.00000  Uiso   1.00
H978   H     0.12391   0.87585   0.57290   0.00000  Uiso   1.00
H979   H     0.20934   0.79248   0.92893   0.00000  Uiso   1.00
H980   H     0.25569   0.74539   0.52371   0.00000  Uiso   1.00
C981   C     0.32780   0.84150   0.73514   0.00000  Uiso   1.00
C982   C     0.00733   0.82599   0.76201   0.00000  Uiso   1.00
H983   H     0.31749   0.81399   0.78785   0.00000  Uiso   1.00
C984   C     0.18091   0.98887   0.73815   0.00000  Uiso   1.00
H985   H     0.20826   0.66950   0.71619   0.00000  Uiso   1.00
C986   C     0.15132   0.67879   0.76204   0.00000  Uiso   1.00
H987   H     0.12355   0.99891   0.78403   0.00000  Uiso   1.00
N988   N     0.02496   0.85904   0.70135   0.00000  Uiso   1.00
O989   O     0.01541   0.85530   0.66823   0.00000  Uiso   1.00
O990   O     0.06083   0.88129   0.70410   0.00000  Uiso   1.00
O991   O     0.09850   0.92580   0.90303   0.00000  Uiso   1.00
H992   H     0.12259   0.93508   0.88050   0.00000  Uiso   1.00
Zn993  Zn    0.52577   0.80756   0.78278   0.00000  Uiso   1.00
Zn994  Zn    0.46792   0.79044   0.72258   0.00000  Uiso   1.00
Zn995  Zn    0.54500   0.86331   0.71188   0.00000  Uiso   1.00
Zn996  Zn    0.46131   0.87202   0.78277   0.00000  Uiso   1.00
O997   O     0.50000   0.83333   0.75000   0.00000  Uiso   1.00
O998   O     0.40323   0.85627   0.77820   0.00000  Uiso   1.00
O999   O     0.58773   0.81944   0.76768   0.00000  Uiso   1.00
O1000  O     0.47133   0.73570   0.73607   0.00000  Uiso   1.00
O1001  O     0.53771   0.92193   0.71806   0.00000  Uiso   1.00
O1002  O     0.49027   0.79060   0.66625   0.00000  Uiso   1.00
O1003  O     0.46020   0.87313   0.83749   0.00000  Uiso   1.00
O1004  O     0.54421   0.84159   0.65877   0.00000  Uiso   1.00
O1005  O     0.50532   0.82802   0.83749   0.00000  Uiso   1.00
O1006  O     0.51182   0.74768   0.77821   0.00000  Uiso   1.00
O1007  O     0.47914   0.92803   0.76767   0.00000  Uiso   1.00
O1008  O     0.40785   0.79917   0.73607   0.00000  Uiso   1.00
O1009  O     0.60119   0.85845   0.71806   0.00000  Uiso   1.00
C1010  C     0.38569   0.82644   0.75927   0.00000  Uiso   1.00
C1011  C     0.61455   0.83978   0.74056   0.00000  Uiso   1.00
C1012  C     0.48918   0.72285   0.75889   0.00000  Uiso   1.00
C1013  C     0.51017   0.94437   0.74135   0.00000  Uiso   1.00
C1014  C     0.52175   0.81179   0.64412   0.00000  Uiso   1.00
C1015  C     0.47929   0.85527   0.85612   0.00000  Uiso   1.00
C1016  C     0.47155   0.86599   0.89902   0.00000  Uiso   1.00
C1017  C     0.53023   0.80360   0.60186   0.00000  Uiso   1.00
C1018  C     0.43797   0.90456   0.96122   0.00000  Uiso   1.00
C1019  C     0.44712   0.89875   0.92050   0.00000  Uiso   1.00
C1020  C     0.48879   0.84218   0.91904   0.00000  Uiso   1.00
C1021  C     0.48302   0.85029   0.95983   0.00000  Uiso   1.00
C1022  C     0.45587   0.88111   0.98089   0.00000  Uiso   1.00
C1023  C     0.50338   0.82886   0.98024   0.00000  Uiso   1.00
C1024  C     0.49461   0.83765   0.52187   0.00000  Uiso   1.00
C1025  C     0.46581   0.86750   0.54166   0.00000  Uiso   1.00
C1026  C     0.44723   0.88894   0.52145   0.00000  Uiso   1.00
C1027  C     0.53318   0.79992   0.96029   0.00000  Uiso   1.00
C1028  C     0.55332   0.77982   0.98026   0.00000  Uiso   1.00
C1029  C     0.54502   0.78788   0.52076   0.00000  Uiso   1.00
C1030  C     0.51552   0.81680   0.54220   0.00000  Uiso   1.00
C1031  C     0.56646   0.76743   0.54001   0.00000  Uiso   1.00
C1032  C     0.55913   0.77535   0.58044   0.00000  Uiso   1.00
C1033  C     0.50853   0.82393   0.58323   0.00000  Uiso   1.00
H1034  H     0.42607   0.91218   0.53779   0.00000  Uiso   1.00
H1035  H     0.48651   0.84499   0.60187   0.00000  Uiso   1.00
H1036  H     0.57585   0.75944   0.59504   0.00000  Uiso   1.00
H1037  H     0.57603   0.75801   0.96368   0.00000  Uiso   1.00
H1038  H     0.41812   0.92887   0.97743   0.00000  Uiso   1.00
H1039  H     0.50622   0.81698   0.90200   0.00000  Uiso   1.00
H1040  H     0.45725   0.87585   0.57290   0.00000  Uiso   1.00
H1041  H     0.54267   0.79248   0.92893   0.00000  Uiso   1.00
H1042  H     0.58902   0.74539   0.52371   0.00000  Uiso   1.00
C1043  C     0.66113   0.84150   0.73514   0.00000  Uiso   1.00
C1044  C     0.34066   0.82599   0.76201   0.00000  Uiso   1.00
H1045  H     0.65083   0.81399   0.78785   0.00000  Uiso   1.00
C1046  C     0.51424   0.98887   0.73815   0.00000  Uiso   1.00
H1047  H     0.54159   0.66950   0.71619   0.00000  Uiso   1.00
C1048  C     0.48466   0.67879   0.76204   0.00000  Uiso   1.00
H1049  H     0.45688   0.99891   0.78403   0.00000  Uiso   1.00
N1050  N     0.35829   0.85904   0.70135   0.00000  Uiso   1.00
O1051  O     0.34874   0.85530   0.66823   0.00000  Uiso   1.00
O1052  O     0.39416   0.88129   0.70410   0.00000  Uiso   1.00
O1053  O     0.43183   0.92580   0.90303   0.00000  Uiso   1.00
H1054  H     0.45592   0.93508   0.88050   0.00000  Uiso   1.00
Zn1055 Zn    0.85910   0.80756   0.78278   0.00000  Uiso   1.00
Zn1056 Zn    0.80125   0.79044   0.72258   0.00000  Uiso   1.00
Zn1057 Zn    0.87833   0.86331   0.71188   0.00000  Uiso   1.00
Zn1058 Zn    0.79465   0.87202   0.78277   0.00000  Uiso   1.00
O1059  O     0.83333   0.83333   0.75000   0.00000  Uiso   1.00
O1060  O     0.73656   0.85627   0.77820   0.00000  Uiso   1.00
O1061  O     0.92106   0.81944   0.76768   0.00000  Uiso   1.00
O1062  O     0.80467   0.73570   0.73607   0.00000  Uiso   1.00
O1063  O     0.87104   0.92193   0.71806   0.00000  Uiso   1.00
O1064  O     0.82360   0.79060   0.66625   0.00000  Uiso   1.00
O1065  O     0.79354   0.87313   0.83749   0.00000  Uiso   1.00
O1066  O     0.87755   0.84159   0.65877   0.00000  Uiso   1.00
O1067  O     0.83865   0.82802   0.83749   0.00000  Uiso   1.00
O1068  O     0.84515   0.74768   0.77821   0.00000  Uiso   1.00
O1069  O     0.81247   0.92803   0.76767   0.00000  Uiso   1.00
O1070  O     0.74119   0.79917   0.73607   0.00000  Uiso   1.00
O1071  O     0.93452   0.85845   0.71806   0.00000  Uiso   1.00
C1072  C     0.71903   0.82644   0.75927   0.00000  Uiso   1.00
C1073  C     0.94788   0.83978   0.74056   0.00000  Uiso   1.00
C1074  C     0.82251   0.72285   0.75889   0.00000  Uiso   1.00
C1075  C     0.84351   0.94437   0.74135   0.00000  Uiso   1.00
C1076  C     0.85508   0.81179   0.64412   0.00000  Uiso   1.00
C1077  C     0.81262   0.85527   0.85612   0.00000  Uiso   1.00
C1078  C     0.80488   0.86599   0.89902   0.00000  Uiso   1.00
C1079  C     0.86357   0.80360   0.60186   0.00000  Uiso   1.00
C1080  C     0.77130   0.90456   0.96122   0.00000  Uiso   1.00
C1081  C     0.78045   0.89875   0.92050   0.00000  Uiso   1.00
C1082  C     0.82213   0.84218   0.91904   0.00000  Uiso   1.00
C1083  C     0.81636   0.85029   0.95983   0.00000  Uiso   1.00
C1084  C     0.78920   0.88111   0.98089   0.00000  Uiso   1.00
C1085  C     0.83672   0.82886   0.98024   0.00000  Uiso   1.00
C1086  C     0.82795   0.83765   0.52187   0.00000  Uiso   1.00
C1087  C     0.79915   0.86750   0.54166   0.00000  Uiso   1.00
C1088  C     0.78056   0.88894   0.52145   0.00000  Uiso   1.00
C1089  C     0.86652   0.79992   0.96029   0.00000  Uiso   1.00
C1090  C     0.88665   0.77982   0.98026   0.00000  Uiso   1.00
C1091  C     0.87836   0.78788   0.52076   0.00000  Uiso   1.00
C1092  C     0.84886   0.81680   0.54220   0.00000  Uiso   1.00
C1093  C     0.89980   0.76743   0.54001   0.00000  Uiso   1.00
C1094  C     0.89247   0.77535   0.58044   0.00000  Uiso   1.00
C1095  C     0.84187   0.82393   0.58323   0.00000  Uiso   1.00
H1096  H     0.75940   0.91218   0.53779   0.00000  Uiso   1.00
H1097  H     0.81985   0.84499   0.60187   0.00000  Uiso   1.00
H1098  H     0.90918   0.75944   0.59504   0.00000  Uiso   1.00
H1099  H     0.90937   0.75801   0.96368   0.00000  Uiso   1.00
H1100  H     0.75146   0.92887   0.97743   0.00000  Uiso   1.00
H1101  H     0.83956   0.81698   0.90200   0.00000  Uiso   1.00
H1102  H     0.79058   0.87585   0.57290   0.00000  Uiso   1.00
H1103  H     0.87601   0.79248   0.92893   0.00000  Uiso   1.00
H1104  H     0.92235   0.74539   0.52371   0.00000  Uiso   1.00
C1105  C     0.99447   0.84150   0.73514   0.00000  Uiso   1.00
C1106  C     0.67400   0.82599   0.76201   0.00000  Uiso   1.00
H1107  H     0.98416   0.81399   0.78785   0.00000  Uiso   1.00
C1108  C     0.84757   0.98887   0.73815   0.00000  Uiso   1.00
H1109  H     0.87493   0.66950   0.71619   0.00000  Uiso   1.00
C1110  C     0.81799   0.67879   0.76204   0.00000  Uiso   1.00
H1111  H     0.79022   0.99891   0.78403   0.00000  Uiso   1.00
N1112  N     0.69162   0.85904   0.70135   0.00000  Uiso   1.00
O1113  O     0.68207   0.85530   0.66823   0.00000  Uiso   1.00
O1114  O     0.72749   0.88129   0.70410   0.00000  Uiso   1.00
O1115  O     0.76516   0.92580   0.90303   0.00000  Uiso   1.00
H1116  H     0.78926   0.93508   0.88050   0.00000  Uiso   1.00
loop_
_geom_bond_atom_site_label_1
_geom_bond_atom_site_label_2
_geom_bond_distance
_geom_bond_site_symmetry_2
_ccdc_geom_bond_type
Zn1    O14     1.926   .     S
Zn1    O5      1.970   .     S
Zn1    O13     1.927   .     S
Zn1    O7      1.921   .     S
Zn2    O16     1.925   .     S
Zn2    O5      1.946   .     S
Zn2    O10     1.933   .     S
Zn2    O8      1.938   .     S
Zn3    O9      1.929   .     S
Zn3    O17     1.941   .     S
Zn3    O12     1.941   .     S
Zn3    O5      1.931   .     S
Zn4    O15     1.930   .     S
Zn4    O11     1.949   .     S
Zn4    O6      1.935   .     S
Zn4    O5      1.927   .     S
O6     C18     1.266   .     A
O7     C19     1.285   .     A
O8     C20     1.281   .     A
O9     C21     1.268   .     A
O10    C22     1.271   .     A
O11    C23     1.281   .     A
O12    C22     1.273   .     A
O13    C23     1.290   .     A
O14    C20     1.281   .     A
O15    C21     1.269   .     A
O16    C18     1.272   .     A
O17    C19     1.282   .     A
C18    C52     1.439   .     S
C19    C51     1.465   .     S
C20    C56     1.435   .     S
C21    C54     1.451   .     S
C22    C25     1.450   .     S
C23    C24     1.481   .     S
C24    C27     1.418   .     A
C24    C28     1.402   .     A
C25    C40     1.394   .     A
C25    C41     1.392   .     A
C26    C30     1.399   .     A
C26    C27     1.392   .     A
C26    H46     1.085   .     S
C27    O61     1.376   .     S
C28    H47     1.074   .     S
C28    C29     1.409   .     A
C29    C30     1.416   .     A
C29    C31     1.429   .     A
C30    C592    1.390   .     S
C31    C35     1.416   .     A
C31    C590    1.429   .     S
C32    C38     1.428   .     A
C32    C33     1.415   .     A
C32    C589    1.429   1_554 S
C33    C34     1.384   .     A
C33    H48     1.075   .     S
C34    H42     1.085   .     S
C34    C588    1.390   1_554 S
C35    H49     1.075   .     S
C35    C36     1.385   .     A
C36    H45     1.084   .     S
C36    C595    1.389   .     S
C37    C38     1.421   .     A
C37    C39     1.404   .     A
C37    C594    1.389   1_554 S
C38    C41     1.411   .     A
C39    H50     1.084   .     S
C39    C40     1.390   .     A
C40    H44     1.083   .     S
C41    H43     1.076   .     S
C51    C114    1.344   .     S
C51    N120    1.447   .     S
C52    C175    1.344   1_455 S
C52    H177    1.086   1_455 S
H53    C114    1.086   .     S
C54    H241    1.088   .     S
C54    C242    1.331   .     S
H55    C426    1.088   1_545 S
C56    C426    1.331   1_545 S
C56    H429    1.086   1_545 S
H57    C242    1.086   .     S
N58    O60     1.302   .     A
N58    O59     1.301   .     A
N58    C175    1.447   1_455 S
O61    H62     0.991   .     S
Zn63   O76     1.926   .     S
Zn63   O67     1.970   .     S
Zn63   O75     1.927   .     S
Zn63   O69     1.921   .     S
Zn64   O78     1.925   .     S
Zn64   O67     1.946   .     S
Zn64   O72     1.933   .     S
Zn64   O70     1.938   .     S
Zn65   O71     1.929   .     S
Zn65   O79     1.941   .     S
Zn65   O74     1.941   .     S
Zn65   O67     1.931   .     S
Zn66   O77     1.930   .     S
Zn66   O73     1.949   .     S
Zn66   O68     1.935   .     S
Zn66   O67     1.927   .     S
O68    C80     1.266   .     A
O69    C81     1.285   .     A
O70    C82     1.281   .     A
O71    C83     1.268   .     A
O72    C84     1.271   .     A
O73    C85     1.281   .     A
O74    C84     1.273   .     A
O75    C85     1.290   .     A
O76    C82     1.281   .     A
O77    C83     1.269   .     A
O78    C80     1.272   .     A
O79    C81     1.282   .     A
C80    C114    1.439   .     S
C81    C113    1.465   .     S
C82    C118    1.435   .     S
C83    C116    1.451   .     S
C84    C87     1.450   .     S
C85    C86     1.481   .     S
C86    C89     1.418   .     A
C86    C90     1.402   .     A
C87    C102    1.394   .     A
C87    C103    1.392   .     A
C88    C92     1.399   .     A
C88    C89     1.392   .     A
C88    H108    1.085   .     S
C89    O123    1.376   .     S
C90    H109    1.074   .     S
C90    C91     1.409   .     A
C91    C92     1.416   .     A
C91    C93     1.429   .     A
C92    C654    1.390   .     S
C93    C97     1.416   .     A
C93    C652    1.429   .     S
C94    C100    1.428   .     A
C94    C95     1.415   .     A
C94    C651    1.429   1_554 S
C95    C96     1.384   .     A
C95    H110    1.075   .     S
C96    H104    1.085   .     S
C96    C650    1.390   1_554 S
C97    H111    1.075   .     S
C97    C98     1.385   .     A
C98    H107    1.084   .     S
C98    C657    1.389   .     S
C99    C100    1.421   .     A
C99    C101    1.404   .     A
C99    C656    1.389   1_554 S
C100   C103    1.411   .     A
C101   H112    1.084   .     S
C101   C102    1.390   .     A
C102   H106    1.083   .     S
C103   H105    1.076   .     S
C113   C176    1.344   .     S
C113   N182    1.447   .     S
H115   C176    1.086   .     S
C116   H303    1.088   .     S
C116   C304    1.331   .     S
H117   C488    1.088   1_545 S
C118   C488    1.331   1_545 S
C118   H491    1.086   1_545 S
H119   C304    1.086   .     S
N120   O122    1.302   .     A
N120   O121    1.301   .     A
O123   H124    0.991   .     S
Zn125  O138    1.926   .     S
Zn125  O129    1.970   .     S
Zn125  O137    1.927   .     S
Zn125  O131    1.921   .     S
Zn126  O140    1.925   .     S
Zn126  O129    1.946   .     S
Zn126  O134    1.933   .     S
Zn126  O132    1.938   .     S
Zn127  O133    1.929   .     S
Zn127  O141    1.941   .     S
Zn127  O136    1.941   .     S
Zn127  O129    1.931   .     S
Zn128  O139    1.930   .     S
Zn128  O135    1.949   .     S
Zn128  O130    1.935   .     S
Zn128  O129    1.927   .     S
O130   C142    1.266   .     A
O131   C143    1.285   .     A
O132   C144    1.281   .     A
O133   C145    1.268   .     A
O134   C146    1.271   .     A
O135   C147    1.281   .     A
O136   C146    1.273   .     A
O137   C147    1.290   .     A
O138   C144    1.281   .     A
O139   C145    1.269   .     A
O140   C142    1.272   .     A
O141   C143    1.282   .     A
C142   C176    1.439   .     S
C143   C175    1.465   .     S
C144   C180    1.435   .     S
C145   C178    1.451   .     S
C146   C149    1.450   .     S
C147   C148    1.481   .     S
C148   C151    1.418   .     A
C148   C152    1.402   .     A
C149   C164    1.394   .     A
C149   C165    1.392   .     A
C150   C154    1.399   .     A
C150   C151    1.392   .     A
C150   H170    1.085   .     S
C151   O185    1.376   .     S
C152   H171    1.074   .     S
C152   C153    1.409   .     A
C153   C154    1.416   .     A
C153   C155    1.429   .     A
C154   C716    1.390   .     S
C155   C159    1.416   .     A
C155   C714    1.429   .     S
C156   C162    1.428   .     A
C156   C157    1.415   .     A
C156   C713    1.429   1_554 S
C157   C158    1.384   .     A
C157   H172    1.075   .     S
C158   H166    1.085   .     S
C158   C712    1.390   1_554 S
C159   H173    1.075   .     S
C159   C160    1.385   .     A
C160   H169    1.084   .     S
C160   C719    1.389   .     S
C161   C162    1.421   .     A
C161   C163    1.404   .     A
C161   C718    1.389   1_554 S
C162   C165    1.411   .     A
C163   H174    1.084   .     S
C163   C164    1.390   .     A
C164   H168    1.083   .     S
C165   H167    1.076   .     S
C175   C52     1.344   1_655 S
C175   N58     1.447   1_655 S
H177   C52     1.086   1_655 S
C178   H365    1.088   .     S
C178   C366    1.331   .     S
H179   C550    1.088   1_545 S
C180   C550    1.331   1_545 S
C180   H553    1.086   1_545 S
H181   C366    1.086   .     S
N182   O184    1.302   .     A
N182   O183    1.301   .     A
O185   H186    0.991   .     S
Zn187  O200    1.926   .     S
Zn187  O191    1.970   .     S
Zn187  O199    1.927   .     S
Zn187  O193    1.921   .     S
Zn188  O202    1.925   .     S
Zn188  O191    1.946   .     S
Zn188  O196    1.933   .     S
Zn188  O194    1.938   .     S
Zn189  O195    1.929   .     S
Zn189  O203    1.941   .     S
Zn189  O198    1.941   .     S
Zn189  O191    1.931   .     S
Zn190  O201    1.930   .     S
Zn190  O197    1.949   .     S
Zn190  O192    1.935   .     S
Zn190  O191    1.927   .     S
O192   C204    1.266   .     A
O193   C205    1.285   .     A
O194   C206    1.281   .     A
O195   C207    1.268   .     A
O196   C208    1.271   .     A
O197   C209    1.281   .     A
O198   C208    1.273   .     A
O199   C209    1.290   .     A
O200   C206    1.281   .     A
O201   C207    1.269   .     A
O202   C204    1.272   .     A
O203   C205    1.282   .     A
C204   C238    1.439   .     S
C205   C237    1.465   .     S
C206   C242    1.435   .     S
C207   C240    1.451   .     S
C208   C211    1.450   .     S
C209   C210    1.481   .     S
C210   C213    1.418   .     A
C210   C214    1.402   .     A
C211   C226    1.394   .     A
C211   C227    1.392   .     A
C212   C216    1.399   .     A
C212   C213    1.392   .     A
C212   H232    1.085   .     S
C213   O247    1.376   .     S
C214   H233    1.074   .     S
C214   C215    1.409   .     A
C215   C216    1.416   .     A
C215   C217    1.429   .     A
C216   C778    1.390   .     S
C217   C221    1.416   .     A
C217   C776    1.429   .     S
C218   C224    1.428   .     A
C218   C219    1.415   .     A
C218   C775    1.429   1_554 S
C219   C220    1.384   .     A
C219   H234    1.075   .     S
C220   H228    1.085   .     S
C220   C774    1.390   1_554 S
C221   H235    1.075   .     S
C221   C222    1.385   .     A
C222   H231    1.084   .     S
C222   C781    1.389   .     S
C223   C224    1.421   .     A
C223   C225    1.404   .     A
C223   C780    1.389   1_554 S
C224   C227    1.411   .     A
C225   H236    1.084   .     S
C225   C226    1.390   .     A
C226   H230    1.083   .     S
C227   H229    1.076   .     S
C237   C300    1.344   .     S
C237   N306    1.447   .     S
C238   C361    1.344   1_455 S
C238   H363    1.086   1_455 S
H239   C300    1.086   .     S
C240   H427    1.088   .     S
C240   C428    1.331   .     S
H243   C428    1.086   .     S
N244   O246    1.302   .     A
N244   O245    1.301   .     A
N244   C361    1.447   1_455 S
O247   H248    0.991   .     S
Zn249  O262    1.926   .     S
Zn249  O253    1.970   .     S
Zn249  O261    1.927   .     S
Zn249  O255    1.921   .     S
Zn250  O264    1.925   .     S
Zn250  O253    1.946   .     S
Zn250  O258    1.933   .     S
Zn250  O256    1.938   .     S
Zn251  O257    1.929   .     S
Zn251  O265    1.941   .     S
Zn251  O260    1.941   .     S
Zn251  O253    1.931   .     S
Zn252  O263    1.930   .     S
Zn252  O259    1.949   .     S
Zn252  O254    1.935   .     S
Zn252  O253    1.927   .     S
O254   C266    1.266   .     A
O255   C267    1.285   .     A
O256   C268    1.281   .     A
O257   C269    1.268   .     A
O258   C270    1.271   .     A
O259   C271    1.281   .     A
O260   C270    1.273   .     A
O261   C271    1.290   .     A
O262   C268    1.281   .     A
O263   C269    1.269   .     A
O264   C266    1.272   .     A
O265   C267    1.282   .     A
C266   C300    1.439   .     S
C267   C299    1.465   .     S
C268   C304    1.435   .     S
C269   C302    1.451   .     S
C270   C273    1.450   .     S
C271   C272    1.481   .     S
C272   C275    1.418   .     A
C272   C276    1.402   .     A
C273   C288    1.394   .     A
C273   C289    1.392   .     A
C274   C278    1.399   .     A
C274   C275    1.392   .     A
C274   H294    1.085   .     S
C275   O309    1.376   .     S
C276   H295    1.074   .     S
C276   C277    1.409   .     A
C277   C278    1.416   .     A
C277   C279    1.429   .     A
C278   C840    1.390   .     S
C279   C283    1.416   .     A
C279   C838    1.429   .     S
C280   C286    1.428   .     A
C280   C281    1.415   .     A
C280   C837    1.429   1_554 S
C281   C282    1.384   .     A
C281   H296    1.075   .     S
C282   H290    1.085   .     S
C282   C836    1.390   1_554 S
C283   H297    1.075   .     S
C283   C284    1.385   .     A
C284   H293    1.084   .     S
C284   C843    1.389   .     S
C285   C286    1.421   .     A
C285   C287    1.404   .     A
C285   C842    1.389   1_554 S
C286   C289    1.411   .     A
C287   H298    1.084   .     S
C287   C288    1.390   .     A
C288   H292    1.083   .     S
C289   H291    1.076   .     S
C299   C362    1.344   .     S
C299   N368    1.447   .     S
H301   C362    1.086   .     S
C302   H489    1.088   .     S
C302   C490    1.331   .     S
H305   C490    1.086   .     S
N306   O308    1.302   .     A
N306   O307    1.301   .     A
O309   H310    0.991   .     S
Zn311  O324    1.926   .     S
Zn311  O315    1.970   .     S
Zn311  O323    1.927   .     S
Zn311  O317    1.921   .     S
Zn312  O326    1.925   .     S
Zn312  O315    1.946   .     S
Zn312  O320    1.933   .     S
Zn312  O318    1.938   .     S
Zn313  O319    1.929   .     S
Zn313  O327    1.941   .     S
Zn313  O322    1.941   .     S
Zn313  O315    1.931   .     S
Zn314  O325    1.930   .     S
Zn314  O321    1.949   .     S
Zn314  O316    1.935   .     S
Zn314  O315    1.927   .     S
O316   C328    1.266   .     A
O317   C329    1.285   .     A
O318   C330    1.281   .     A
O319   C331    1.268   .     A
O320   C332    1.271   .     A
O321   C333    1.281   .     A
O322   C332    1.273   .     A
O323   C333    1.290   .     A
O324   C330    1.281   .     A
O325   C331    1.269   .     A
O326   C328    1.272   .     A
O327   C329    1.282   .     A
C328   C362    1.439   .     S
C329   C361    1.465   .     S
C330   C366    1.435   .     S
C331   C364    1.451   .     S
C332   C335    1.450   .     S
C333   C334    1.481   .     S
C334   C337    1.418   .     A
C334   C338    1.402   .     A
C335   C350    1.394   .     A
C335   C351    1.392   .     A
C336   C340    1.399   .     A
C336   C337    1.392   .     A
C336   H356    1.085   .     S
C337   O371    1.376   .     S
C338   H357    1.074   .     S
C338   C339    1.409   .     A
C339   C340    1.416   .     A
C339   C341    1.429   .     A
C340   C902    1.390   .     S
C341   C345    1.416   .     A
C341   C900    1.429   .     S
C342   C348    1.428   .     A
C342   C343    1.415   .     A
C342   C899    1.429   1_554 S
C343   C344    1.384   .     A
C343   H358    1.075   .     S
C344   H352    1.085   .     S
C344   C898    1.390   1_554 S
C345   H359    1.075   .     S
C345   C346    1.385   .     A
C346   H355    1.084   .     S
C346   C905    1.389   .     S
C347   C348    1.421   .     A
C347   C349    1.404   .     A
C347   C904    1.389   1_554 S
C348   C351    1.411   .     A
C349   H360    1.084   .     S
C349   C350    1.390   .     A
C350   H354    1.083   .     S
C351   H353    1.076   .     S
C361   C238    1.344   1_655 S
C361   N244    1.447   1_655 S
H363   C238    1.086   1_655 S
C364   H551    1.088   .     S
C364   C552    1.331   .     S
H367   C552    1.086   .     S
N368   O370    1.302   .     A
N368   O369    1.301   .     A
O371   H372    0.991   .     S
Zn373  O386    1.926   .     S
Zn373  O377    1.970   .     S
Zn373  O385    1.927   .     S
Zn373  O379    1.921   .     S
Zn374  O388    1.925   .     S
Zn374  O377    1.946   .     S
Zn374  O382    1.933   .     S
Zn374  O380    1.938   .     S
Zn375  O381    1.929   .     S
Zn375  O389    1.941   .     S
Zn375  O384    1.941   .     S
Zn375  O377    1.931   .     S
Zn376  O387    1.930   .     S
Zn376  O383    1.949   .     S
Zn376  O378    1.935   .     S
Zn376  O377    1.927   .     S
O378   C390    1.266   .     A
O379   C391    1.285   .     A
O380   C392    1.281   .     A
O381   C393    1.268   .     A
O382   C394    1.271   .     A
O383   C395    1.281   .     A
O384   C394    1.273   .     A
O385   C395    1.290   .     A
O386   C392    1.281   .     A
O387   C393    1.269   .     A
O388   C390    1.272   .     A
O389   C391    1.282   .     A
C390   C424    1.439   .     S
C391   C423    1.465   .     S
C392   C428    1.435   .     S
C393   C426    1.451   .     S
C394   C397    1.450   .     S
C395   C396    1.481   .     S
C396   C399    1.418   .     A
C396   C400    1.402   .     A
C397   C412    1.394   .     A
C397   C413    1.392   .     A
C398   C402    1.399   .     A
C398   C399    1.392   .     A
C398   H418    1.085   .     S
C399   O433    1.376   .     S
C400   H419    1.074   .     S
C400   C401    1.409   .     A
C401   C402    1.416   .     A
C401   C403    1.429   .     A
C402   C964    1.390   .     S
C403   C407    1.416   .     A
C403   C962    1.429   .     S
C404   C410    1.428   .     A
C404   C405    1.415   .     A
C404   C961    1.429   1_554 S
C405   C406    1.384   .     A
C405   H420    1.075   .     S
C406   H414    1.085   .     S
C406   C960    1.390   1_554 S
C407   H421    1.075   .     S
C407   C408    1.385   .     A
C408   H417    1.084   .     S
C408   C967    1.389   .     S
C409   C410    1.421   .     A
C409   C411    1.404   .     A
C409   C966    1.389   1_554 S
C410   C413    1.411   .     A
C411   H422    1.084   .     S
C411   C412    1.390   .     A
C412   H416    1.083   .     S
C413   H415    1.076   .     S
C423   C486    1.344   .     S
C423   N492    1.447   .     S
C424   C547    1.344   1_455 S
C424   H549    1.086   1_455 S
H425   C486    1.086   .     S
C426   H55     1.088   1_565 S
C426   C56     1.331   1_565 S
H429   C56     1.086   1_565 S
N430   O432    1.302   .     A
N430   O431    1.301   .     A
N430   C547    1.447   1_455 S
O433   H434    0.991   .     S
Zn435  O448    1.926   .     S
Zn435  O439    1.970   .     S
Zn435  O447    1.927   .     S
Zn435  O441    1.921   .     S
Zn436  O450    1.925   .     S
Zn436  O439    1.946   .     S
Zn436  O444    1.933   .     S
Zn436  O442    1.938   .     S
Zn437  O443    1.929   .     S
Zn437  O451    1.941   .     S
Zn437  O446    1.941   .     S
Zn437  O439    1.931   .     S
Zn438  O449    1.930   .     S
Zn438  O445    1.949   .     S
Zn438  O440    1.935   .     S
Zn438  O439    1.927   .     S
O440   C452    1.266   .     A
O441   C453    1.285   .     A
O442   C454    1.281   .     A
O443   C455    1.268   .     A
O444   C456    1.271   .     A
O445   C457    1.281   .     A
O446   C456    1.273   .     A
O447   C457    1.290   .     A
O448   C454    1.281   .     A
O449   C455    1.269   .     A
O450   C452    1.272   .     A
O451   C453    1.282   .     A
C452   C486    1.439   .     S
C453   C485    1.465   .     S
C454   C490    1.435   .     S
C455   C488    1.451   .     S
C456   C459    1.450   .     S
C457   C458    1.481   .     S
C458   C461    1.418   .     A
C458   C462    1.402   .     A
C459   C474    1.394   .     A
C459   C475    1.392   .     A
C460   C464    1.399   .     A
C460   C461    1.392   .     A
C460   H480    1.085   .     S
C461   O495    1.376   .     S
C462   H481    1.074   .     S
C462   C463    1.409   .     A
C463   C464    1.416   .     A
C463   C465    1.429   .     A
C464   C1026   1.390   .     S
C465   C469    1.416   .     A
C465   C1024   1.429   .     S
C466   C472    1.428   .     A
C466   C467    1.415   .     A
C466   C1023   1.429   1_554 S
C467   C468    1.384   .     A
C467   H482    1.075   .     S
C468   H476    1.085   .     S
C468   C1022   1.390   1_554 S
C469   H483    1.075   .     S
C469   C470    1.385   .     A
C470   H479    1.084   .     S
C470   C1029   1.389   .     S
C471   C472    1.421   .     A
C471   C473    1.404   .     A
C471   C1028   1.389   1_554 S
C472   C475    1.411   .     A
C473   H484    1.084   .     S
C473   C474    1.390   .     A
C474   H478    1.083   .     S
C475   H477    1.076   .     S
C485   C548    1.344   .     S
C485   N554    1.447   .     S
H487   C548    1.086   .     S
C488   H117    1.088   1_565 S
C488   C118    1.331   1_565 S
H491   C118    1.086   1_565 S
N492   O494    1.302   .     A
N492   O493    1.301   .     A
O495   H496    0.991   .     S
Zn497  O510    1.926   .     S
Zn497  O501    1.970   .     S
Zn497  O509    1.927   .     S
Zn497  O503    1.921   .     S
Zn498  O512    1.925   .     S
Zn498  O501    1.946   .     S
Zn498  O506    1.933   .     S
Zn498  O504    1.938   .     S
Zn499  O505    1.929   .     S
Zn499  O513    1.941   .     S
Zn499  O508    1.941   .     S
Zn499  O501    1.931   .     S
Zn500  O511    1.930   .     S
Zn500  O507    1.949   .     S
Zn500  O502    1.935   .     S
Zn500  O501    1.927   .     S
O502   C514    1.266   .     A
O503   C515    1.285   .     A
O504   C516    1.281   .     A
O505   C517    1.268   .     A
O506   C518    1.271   .     A
O507   C519    1.281   .     A
O508   C518    1.273   .     A
O509   C519    1.290   .     A
O510   C516    1.281   .     A
O511   C517    1.269   .     A
O512   C514    1.272   .     A
O513   C515    1.282   .     A
C514   C548    1.439   .     S
C515   C547    1.465   .     S
C516   C552    1.435   .     S
C517   C550    1.451   .     S
C518   C521    1.450   .     S
C519   C520    1.481   .     S
C520   C523    1.418   .     A
C520   C524    1.402   .     A
C521   C536    1.394   .     A
C521   C537    1.392   .     A
C522   C526    1.399   .     A
C522   C523    1.392   .     A
C522   H542    1.085   .     S
C523   O557    1.376   .     S
C524   H543    1.074   .     S
C524   C525    1.409   .     A
C525   C526    1.416   .     A
C525   C527    1.429   .     A
C526   C1088   1.390   .     S
C527   C531    1.416   .     A
C527   C1086   1.429   .     S
C528   C534    1.428   .     A
C528   C529    1.415   .     A
C528   C1085   1.429   1_554 S
C529   C530    1.384   .     A
C529   H544    1.075   .     S
C530   H538    1.085   .     S
C530   C1084   1.390   1_554 S
C531   H545    1.075   .     S
C531   C532    1.385   .     A
C532   H541    1.084   .     S
C532   C1091   1.389   .     S
C533   C534    1.421   .     A
C533   C535    1.404   .     A
C533   C1090   1.389   1_554 S
C534   C537    1.411   .     A
C535   H546    1.084   .     S
C535   C536    1.390   .     A
C536   H540    1.083   .     S
C537   H539    1.076   .     S
C547   C424    1.344   1_655 S
C547   N430    1.447   1_655 S
H549   C424    1.086   1_655 S
C550   H179    1.088   1_565 S
C550   C180    1.331   1_565 S
H553   C180    1.086   1_565 S
N554   O556    1.302   .     A
N554   O555    1.301   .     A
O557   H558    0.991   .     S
Zn559  O572    1.926   .     S
Zn559  O563    1.970   .     S
Zn559  O571    1.927   .     S
Zn559  O565    1.921   .     S
Zn560  O574    1.925   .     S
Zn560  O563    1.946   .     S
Zn560  O568    1.933   .     S
Zn560  O566    1.938   .     S
Zn561  O567    1.929   .     S
Zn561  O575    1.941   .     S
Zn561  O570    1.941   .     S
Zn561  O563    1.931   .     S
Zn562  O573    1.930   .     S
Zn562  O569    1.949   .     S
Zn562  O564    1.935   .     S
Zn562  O563    1.927   .     S
O564   C576    1.266   .     A
O565   C577    1.285   .     A
O566   C578    1.281   .     A
O567   C579    1.268   .     A
O568   C580    1.271   .     A
O569   C581    1.281   .     A
O570   C580    1.273   .     A
O571   C581    1.290   .     A
O572   C578    1.281   .     A
O573   C579    1.269   .     A
O574   C576    1.272   .     A
O575   C577    1.282   .     A
C576   C610    1.439   .     S
C577   C609    1.465   .     S
C578   C614    1.435   .     S
C579   C612    1.451   .     S
C580   C583    1.450   .     S
C581   C582    1.481   .     S
C582   C585    1.418   .     A
C582   C586    1.402   .     A
C583   C598    1.394   .     A
C583   C599    1.392   .     A
C584   C588    1.399   .     A
C584   C585    1.392   .     A
C584   H604    1.085   .     S
C585   O619    1.376   .     S
C586   H605    1.074   .     S
C586   C587    1.409   .     A
C587   C588    1.416   .     A
C587   C589    1.429   .     A
C588   C34     1.390   1_556 S
C589   C593    1.416   .     A
C589   C32     1.429   1_556 S
C590   C596    1.428   .     A
C590   C591    1.415   .     A
C591   C592    1.384   .     A
C591   H606    1.075   .     S
C592   H600    1.085   .     S
C593   H607    1.075   .     S
C593   C594    1.385   .     A
C594   H603    1.084   .     S
C594   C37     1.389   1_556 S
C595   C596    1.421   .     A
C595   C597    1.404   .     A
C596   C599    1.411   .     A
C597   H608    1.084   .     S
C597   C598    1.390   .     A
C598   H602    1.083   .     S
C599   H601    1.076   .     S
C609   C672    1.344   .     S
C609   N678    1.447   .     S
C610   C733    1.344   1_455 S
C610   H735    1.086   1_455 S
H611   C672    1.086   .     S
C612   H799    1.088   .     S
C612   C800    1.331   .     S
H613   C984    1.088   1_545 S
C614   C984    1.331   1_545 S
C614   H987    1.086   1_545 S
H615   C800    1.086   .     S
N616   O618    1.302   .     A
N616   O617    1.301   .     A
N616   C733    1.447   1_455 S
O619   H620    0.991   .     S
Zn621  O634    1.926   .     S
Zn621  O625    1.970   .     S
Zn621  O633    1.927   .     S
Zn621  O627    1.921   .     S
Zn622  O636    1.925   .     S
Zn622  O625    1.946   .     S
Zn622  O630    1.933   .     S
Zn622  O628    1.938   .     S
Zn623  O629    1.929   .     S
Zn623  O637    1.941   .     S
Zn623  O632    1.941   .     S
Zn623  O625    1.931   .     S
Zn624  O635    1.930   .     S
Zn624  O631    1.949   .     S
Zn624  O626    1.935   .     S
Zn624  O625    1.927   .     S
O626   C638    1.266   .     A
O627   C639    1.285   .     A
O628   C640    1.281   .     A
O629   C641    1.268   .     A
O630   C642    1.271   .     A
O631   C643    1.281   .     A
O632   C642    1.273   .     A
O633   C643    1.290   .     A
O634   C640    1.281   .     A
O635   C641    1.269   .     A
O636   C638    1.272   .     A
O637   C639    1.282   .     A
C638   C672    1.439   .     S
C639   C671    1.465   .     S
C640   C676    1.435   .     S
C641   C674    1.451   .     S
C642   C645    1.450   .     S
C643   C644    1.481   .     S
C644   C647    1.418   .     A
C644   C648    1.402   .     A
C645   C660    1.394   .     A
C645   C661    1.392   .     A
C646   C650    1.399   .     A
C646   C647    1.392   .     A
C646   H666    1.085   .     S
C647   O681    1.376   .     S
C648   H667    1.074   .     S
C648   C649    1.409   .     A
C649   C650    1.416   .     A
C649   C651    1.429   .     A
C650   C96     1.390   1_556 S
C651   C655    1.416   .     A
C651   C94     1.429   1_556 S
C652   C658    1.428   .     A
C652   C653    1.415   .     A
C653   C654    1.384   .     A
C653   H668    1.075   .     S
C654   H662    1.085   .     S
C655   H669    1.075   .     S
C655   C656    1.385   .     A
C656   H665    1.084   .     S
C656   C99     1.389   1_556 S
C657   C658    1.421   .     A
C657   C659    1.404   .     A
C658   C661    1.411   .     A
C659   H670    1.084   .     S
C659   C660    1.390   .     A
C660   H664    1.083   .     S
C661   H663    1.076   .     S
C671   C734    1.344   .     S
C671   N740    1.447   .     S
H673   C734    1.086   .     S
C674   H861    1.088   .     S
C674   C862    1.331   .     S
H675   C1046   1.088   1_545 S
C676   C1046   1.331   1_545 S
C676   H1049   1.086   1_545 S
H677   C862    1.086   .     S
N678   O680    1.302   .     A
N678   O679    1.301   .     A
O681   H682    0.991   .     S
Zn683  O696    1.926   .     S
Zn683  O687    1.970   .     S
Zn683  O695    1.927   .     S
Zn683  O689    1.921   .     S
Zn684  O698    1.925   .     S
Zn684  O687    1.946   .     S
Zn684  O692    1.933   .     S
Zn684  O690    1.938   .     S
Zn685  O691    1.929   .     S
Zn685  O699    1.941   .     S
Zn685  O694    1.941   .     S
Zn685  O687    1.931   .     S
Zn686  O697    1.930   .     S
Zn686  O693    1.949   .     S
Zn686  O688    1.935   .     S
Zn686  O687    1.927   .     S
O688   C700    1.266   .     A
O689   C701    1.285   .     A
O690   C702    1.281   .     A
O691   C703    1.268   .     A
O692   C704    1.271   .     A
O693   C705    1.281   .     A
O694   C704    1.273   .     A
O695   C705    1.290   .     A
O696   C702    1.281   .     A
O697   C703    1.269   .     A
O698   C700    1.272   .     A
O699   C701    1.282   .     A
C700   C734    1.439   .     S
C701   C733    1.465   .     S
C702   C738    1.435   .     S
C703   C736    1.451   .     S
C704   C707    1.450   .     S
C705   C706    1.481   .     S
C706   C709    1.418   .     A
C706   C710    1.402   .     A
C707   C722    1.394   .     A
C707   C723    1.392   .     A
C708   C712    1.399   .     A
C708   C709    1.392   .     A
C708   H728    1.085   .     S
C709   O743    1.376   .     S
C710   H729    1.074   .     S
C710   C711    1.409   .     A
C711   C712    1.416   .     A
C711   C713    1.429   .     A
C712   C158    1.390   1_556 S
C713   C717    1.416   .     A
C713   C156    1.429   1_556 S
C714   C720    1.428   .     A
C714   C715    1.415   .     A
C715   C716    1.384   .     A
C715   H730    1.075   .     S
C716   H724    1.085   .     S
C717   H731    1.075   .     S
C717   C718    1.385   .     A
C718   H727    1.084   .     S
C718   C161    1.389   1_556 S
C719   C720    1.421   .     A
C719   C721    1.404   .     A
C720   C723    1.411   .     A
C721   H732    1.084   .     S
C721   C722    1.390   .     A
C722   H726    1.083   .     S
C723   H725    1.076   .     S
C733   C610    1.344   1_655 S
C733   N616    1.447   1_655 S
H735   C610    1.086   1_655 S
C736   H923    1.088   .     S
C736   C924    1.331   .     S
H737   C1108   1.088   1_545 S
C738   C1108   1.331   1_545 S
C738   H1111   1.086   1_545 S
H739   C924    1.086   .     S
N740   O742    1.302   .     A
N740   O741    1.301   .     A
O743   H744    0.991   .     S
Zn745  O758    1.926   .     S
Zn745  O749    1.970   .     S
Zn745  O757    1.927   .     S
Zn745  O751    1.921   .     S
Zn746  O760    1.925   .     S
Zn746  O749    1.946   .     S
Zn746  O754    1.933   .     S
Zn746  O752    1.938   .     S
Zn747  O753    1.929   .     S
Zn747  O761    1.941   .     S
Zn747  O756    1.941   .     S
Zn747  O749    1.931   .     S
Zn748  O759    1.930   .     S
Zn748  O755    1.949   .     S
Zn748  O750    1.935   .     S
Zn748  O749    1.927   .     S
O750   C762    1.266   .     A
O751   C763    1.285   .     A
O752   C764    1.281   .     A
O753   C765    1.268   .     A
O754   C766    1.271   .     A
O755   C767    1.281   .     A
O756   C766    1.273   .     A
O757   C767    1.290   .     A
O758   C764    1.281   .     A
O759   C765    1.269   .     A
O760   C762    1.272   .     A
O761   C763    1.282   .     A
C762   C796    1.439   .     S
C763   C795    1.465   .     S
C764   C800    1.435   .     S
C765   C798    1.451   .     S
C766   C769    1.450   .     S
C767   C768    1.481   .     S
C768   C771    1.418   .     A
C768   C772    1.402   .     A
C769   C784    1.394   .     A
C769   C785    1.392   .     A
C770   C774    1.399   .     A
C770   C771    1.392   .     A
C770   H790    1.085   .     S
C771   O805    1.376   .     S
C772   H791    1.074   .     S
C772   C773    1.409   .     A
C773   C774    1.416   .     A
C773   C775    1.429   .     A
C774   C220    1.390   1_556 S
C775   C779    1.416   .     A
C775   C218    1.429   1_556 S
C776   C782    1.428   .     A
C776   C777    1.415   .     A
C777   C778    1.384   .     A
C777   H792    1.075   .     S
C778   H786    1.085   .     S
C779   H793    1.075   .     S
C779   C780    1.385   .     A
C780   H789    1.084   .     S
C780   C223    1.389   1_556 S
C781   C782    1.421   .     A
C781   C783    1.404   .     A
C782   C785    1.411   .     A
C783   H794    1.084   .     S
C783   C784    1.390   .     A
C784   H788    1.083   .     S
C785   H787    1.076   .     S
C795   C858    1.344   .     S
C795   N864    1.447   .     S
C796   C919    1.344   1_455 S
C796   H921    1.086   1_455 S
H797   C858    1.086   .     S
C798   H985    1.088   .     S
C798   C986    1.331   .     S
H801   C986    1.086   .     S
N802   O804    1.302   .     A
N802   O803    1.301   .     A
N802   C919    1.447   1_455 S
O805   H806    0.991   .     S
Zn807  O820    1.926   .     S
Zn807  O811    1.970   .     S
Zn807  O819    1.927   .     S
Zn807  O813    1.921   .     S
Zn808  O822    1.925   .     S
Zn808  O811    1.946   .     S
Zn808  O816    1.933   .     S
Zn808  O814    1.938   .     S
Zn809  O815    1.929   .     S
Zn809  O823    1.941   .     S
Zn809  O818    1.941   .     S
Zn809  O811    1.931   .     S
Zn810  O821    1.930   .     S
Zn810  O817    1.949   .     S
Zn810  O812    1.935   .     S
Zn810  O811    1.927   .     S
O812   C824    1.266   .     A
O813   C825    1.285   .     A
O814   C826    1.281   .     A
O815   C827    1.268   .     A
O816   C828    1.271   .     A
O817   C829    1.281   .     A
O818   C828    1.273   .     A
O819   C829    1.290   .     A
O820   C826    1.281   .     A
O821   C827    1.269   .     A
O822   C824    1.272   .     A
O823   C825    1.282   .     A
C824   C858    1.439   .     S
C825   C857    1.465   .     S
C826   C862    1.435   .     S
C827   C860    1.451   .     S
C828   C831    1.450   .     S
C829   C830    1.481   .     S
C830   C833    1.418   .     A
C830   C834    1.402   .     A
C831   C846    1.394   .     A
C831   C847    1.392   .     A
C832   C836    1.399   .     A
C832   C833    1.392   .     A
C832   H852    1.085   .     S
C833   O867    1.376   .     S
C834   H853    1.074   .     S
C834   C835    1.409   .     A
C835   C836    1.416   .     A
C835   C837    1.429   .     A
C836   C282    1.390   1_556 S
C837   C841    1.416   .     A
C837   C280    1.429   1_556 S
C838   C844    1.428   .     A
C838   C839    1.415   .     A
C839   C840    1.384   .     A
C839   H854    1.075   .     S
C840   H848    1.085   .     S
C841   H855    1.075   .     S
C841   C842    1.385   .     A
C842   H851    1.084   .     S
C842   C285    1.389   1_556 S
C843   C844    1.421   .     A
C843   C845    1.404   .     A
C844   C847    1.411   .     A
C845   H856    1.084   .     S
C845   C846    1.390   .     A
C846   H850    1.083   .     S
C847   H849    1.076   .     S
C857   C920    1.344   .     S
C857   N926    1.447   .     S
H859   C920    1.086   .     S
C860   H1047   1.088   .     S
C860   C1048   1.331   .     S
H863   C1048   1.086   .     S
N864   O866    1.302   .     A
N864   O865    1.301   .     A
O867   H868    0.991   .     S
Zn869  O882    1.926   .     S
Zn869  O873    1.970   .     S
Zn869  O881    1.927   .     S
Zn869  O875    1.921   .     S
Zn870  O884    1.925   .     S
Zn870  O873    1.946   .     S
Zn870  O878    1.933   .     S
Zn870  O876    1.938   .     S
Zn871  O877    1.929   .     S
Zn871  O885    1.941   .     S
Zn871  O880    1.941   .     S
Zn871  O873    1.931   .     S
Zn872  O883    1.930   .     S
Zn872  O879    1.949   .     S
Zn872  O874    1.935   .     S
Zn872  O873    1.927   .     S
O874   C886    1.266   .     A
O875   C887    1.285   .     A
O876   C888    1.281   .     A
O877   C889    1.268   .     A
O878   C890    1.271   .     A
O879   C891    1.281   .     A
O880   C890    1.273   .     A
O881   C891    1.290   .     A
O882   C888    1.281   .     A
O883   C889    1.269   .     A
O884   C886    1.272   .     A
O885   C887    1.282   .     A
C886   C920    1.439   .     S
C887   C919    1.465   .     S
C888   C924    1.435   .     S
C889   C922    1.451   .     S
C890   C893    1.450   .     S
C891   C892    1.481   .     S
C892   C895    1.418   .     A
C892   C896    1.402   .     A
C893   C908    1.394   .     A
C893   C909    1.392   .     A
C894   C898    1.399   .     A
C894   C895    1.392   .     A
C894   H914    1.085   .     S
C895   O929    1.376   .     S
C896   H915    1.074   .     S
C896   C897    1.409   .     A
C897   C898    1.416   .     A
C897   C899    1.429   .     A
C898   C344    1.390   1_556 S
C899   C903    1.416   .     A
C899   C342    1.429   1_556 S
C900   C906    1.428   .     A
C900   C901    1.415   .     A
C901   C902    1.384   .     A
C901   H916    1.075   .     S
C902   H910    1.085   .     S
C903   H917    1.075   .     S
C903   C904    1.385   .     A
C904   H913    1.084   .     S
C904   C347    1.389   1_556 S
C905   C906    1.421   .     A
C905   C907    1.404   .     A
C906   C909    1.411   .     A
C907   H918    1.084   .     S
C907   C908    1.390   .     A
C908   H912    1.083   .     S
C909   H911    1.076   .     S
C919   C796    1.344   1_655 S
C919   N802    1.447   1_655 S
H921   C796    1.086   1_655 S
C922   H1109   1.088   .     S
C922   C1110   1.331   .     S
H925   C1110   1.086   .     S
N926   O928    1.302   .     A
N926   O927    1.301   .     A
O929   H930    0.991   .     S
Zn931  O944    1.926   .     S
Zn931  O935    1.970   .     S
Zn931  O943    1.927   .     S
Zn931  O937    1.921   .     S
Zn932  O946    1.925   .     S
Zn932  O935    1.946   .     S
Zn932  O940    1.933   .     S
Zn932  O938    1.938   .     S
Zn933  O939    1.929   .     S
Zn933  O947    1.941   .     S
Zn933  O942    1.941   .     S
Zn933  O935    1.931   .     S
Zn934  O945    1.930   .     S
Zn934  O941    1.949   .     S
Zn934  O936    1.935   .     S
Zn934  O935    1.927   .     S
O936   C948    1.266   .     A
O937   C949    1.285   .     A
O938   C950    1.281   .     A
O939   C951    1.268   .     A
O940   C952    1.271   .     A
O941   C953    1.281   .     A
O942   C952    1.273   .     A
O943   C953    1.290   .     A
O944   C950    1.281   .     A
O945   C951    1.269   .     A
O946   C948    1.272   .     A
O947   C949    1.282   .     A
C948   C982    1.439   .     S
C949   C981    1.465   .     S
C950   C986    1.435   .     S
C951   C984    1.451   .     S
C952   C955    1.450   .     S
C953   C954    1.481   .     S
C954   C957    1.418   .     A
C954   C958    1.402   .     A
C955   C970    1.394   .     A
C955   C971    1.392   .     A
C956   C960    1.399   .     A
C956   C957    1.392   .     A
C956   H976    1.085   .     S
C957   O991    1.376   .     S
C958   H977    1.074   .     S
C958   C959    1.409   .     A
C959   C960    1.416   .     A
C959   C961    1.429   .     A
C960   C406    1.390   1_556 S
C961   C965    1.416   .     A
C961   C404    1.429   1_556 S
C962   C968    1.428   .     A
C962   C963    1.415   .     A
C963   C964    1.384   .     A
C963   H978    1.075   .     S
C964   H972    1.085   .     S
C965   H979    1.075   .     S
C965   C966    1.385   .     A
C966   H975    1.084   .     S
C966   C409    1.389   1_556 S
C967   C968    1.421   .     A
C967   C969    1.404   .     A
C968   C971    1.411   .     A
C969   H980    1.084   .     S
C969   C970    1.390   .     A
C970   H974    1.083   .     S
C971   H973    1.076   .     S
C981   C1044   1.344   .     S
C981   N1050   1.447   .     S
C982   C1105   1.344   1_455 S
C982   H1107   1.086   1_455 S
H983   C1044   1.086   .     S
C984   H613    1.088   1_565 S
C984   C614    1.331   1_565 S
H987   C614    1.086   1_565 S
N988   O990    1.302   .     A
N988   O989    1.301   .     A
N988   C1105   1.447   1_455 S
O991   H992    0.991   .     S
Zn993  O1006   1.926   .     S
Zn993  O997    1.970   .     S
Zn993  O1005   1.927   .     S
Zn993  O999    1.921   .     S
Zn994  O1008   1.925   .     S
Zn994  O997    1.946   .     S
Zn994  O1002   1.933   .     S
Zn994  O1000   1.938   .     S
Zn995  O1001   1.929   .     S
Zn995  O1009   1.941   .     S
Zn995  O1004   1.941   .     S
Zn995  O997    1.931   .     S
Zn996  O1007   1.930   .     S
Zn996  O1003   1.949   .     S
Zn996  O998    1.935   .     S
Zn996  O997    1.927   .     S
O998   C1010   1.266   .     A
O999   C1011   1.285   .     A
O1000  C1012   1.281   .     A
O1001  C1013   1.268   .     A
O1002  C1014   1.271   .     A
O1003  C1015   1.281   .     A
O1004  C1014   1.273   .     A
O1005  C1015   1.290   .     A
O1006  C1012   1.281   .     A
O1007  C1013   1.269   .     A
O1008  C1010   1.272   .     A
O1009  C1011   1.282   .     A
C1010  C1044   1.439   .     S
C1011  C1043   1.465   .     S
C1012  C1048   1.435   .     S
C1013  C1046   1.451   .     S
C1014  C1017   1.450   .     S
C1015  C1016   1.481   .     S
C1016  C1019   1.418   .     A
C1016  C1020   1.402   .     A
C1017  C1032   1.394   .     A
C1017  C1033   1.392   .     A
C1018  C1022   1.399   .     A
C1018  C1019   1.392   .     A
C1018  H1038   1.085   .     S
C1019  O1053   1.376   .     S
C1020  H1039   1.074   .     S
C1020  C1021   1.409   .     A
C1021  C1022   1.416   .     A
C1021  C1023   1.429   .     A
C1022  C468    1.390   1_556 S
C1023  C1027   1.416   .     A
C1023  C466    1.429   1_556 S
C1024  C1030   1.428   .     A
C1024  C1025   1.415   .     A
C1025  C1026   1.384   .     A
C1025  H1040   1.075   .     S
C1026  H1034   1.085   .     S
C1027  H1041   1.075   .     S
C1027  C1028   1.385   .     A
C1028  H1037   1.084   .     S
C1028  C471    1.389   1_556 S
C1029  C1030   1.421   .     A
C1029  C1031   1.404   .     A
C1030  C1033   1.411   .     A
C1031  H1042   1.084   .     S
C1031  C1032   1.390   .     A
C1032  H1036   1.083   .     S
C1033  H1035   1.076   .     S
C1043  C1106   1.344   .     S
C1043  N1112   1.447   .     S
H1045  C1106   1.086   .     S
C1046  H675    1.088   1_565 S
C1046  C676    1.331   1_565 S
H1049  C676    1.086   1_565 S
N1050  O1052   1.302   .     A
N1050  O1051   1.301   .     A
O1053  H1054   0.991   .     S
Zn1055 O1068   1.926   .     S
Zn1055 O1059   1.970   .     S
Zn1055 O1067   1.927   .     S
Zn1055 O1061   1.921   .     S
Zn1056 O1070   1.925   .     S
Zn1056 O1059   1.946   .     S
Zn1056 O1064   1.933   .     S
Zn1056 O1062   1.938   .     S
Zn1057 O1063   1.929   .     S
Zn1057 O1071   1.941   .     S
Zn1057 O1066   1.941   .     S
Zn1057 O1059   1.931   .     S
Zn1058 O1069   1.930   .     S
Zn1058 O1065   1.949   .     S
Zn1058 O1060   1.935   .     S
Zn1058 O1059   1.927   .     S
O1060  C1072   1.266   .     A
O1061  C1073   1.285   .     A
O1062  C1074   1.281   .     A
O1063  C1075   1.268   .     A
O1064  C1076   1.271   .     A
O1065  C1077   1.281   .     A
O1066  C1076   1.273   .     A
O1067  C1077   1.290   .     A
O1068  C1074   1.281   .     A
O1069  C1075   1.269   .     A
O1070  C1072   1.272   .     A
O1071  C1073   1.282   .     A
C1072  C1106   1.439   .     S
C1073  C1105   1.465   .     S
C1074  C1110   1.435   .     S
C1075  C1108   1.451   .     S
C1076  C1079   1.450   .     S
C1077  C1078   1.481   .     S
C1078  C1081   1.418   .     A
C1078  C1082   1.402   .     A
C1079  C1094   1.394   .     A
C1079  C1095   1.392   .     A
C1080  C1084   1.399   .     A
C1080  C1081   1.392   .     A
C1080  H1100   1.085   .     S
C1081  O1115   1.376   .     S
C1082  H1101   1.074   .     S
C1082  C1083   1.409   .     A
C1083  C1084   1.416   .     A
C1083  C1085   1.429   .     A
C1084  C530    1.390   1_556 S
C1085  C1089   1.416   .     A
C1085  C528    1.429   1_556 S
C1086  C1092   1.428   .     A
C1086  C1087   1.415   .     A
C1087  C1088   1.384   .     A
C1087  H1102   1.075   .     S
C1088  H1096   1.085   .     S
C1089  H1103   1.075   .     S
C1089  C1090   1.385   .     A
C1090  H1099   1.084   .     S
C1090  C533    1.389   1_556 S
C1091  C1092   1.421   .     A
C1091  C1093   1.404   .     A
C1092  C1095   1.411   .     A
C1093  H1104   1.084   .     S
C1093  C1094   1.390   .     A
C1094  H1098   1.083   .     S
C1095  H1097   1.076   .     S
C1105  C982    1.344   1_655 S
C1105  N988    1.447   1_655 S
H1107  C982    1.086   1_655 S
C1108  H737    1.088   1_565 S
C1108  C738    1.331   1_565 S
H1111  C738    1.086   1_565 S
N1112  O1114   1.302   .     A
N1112  O1113   1.301   .     A
O1115  H1116   0.991   .     S
