data_str_m1_o1_o17_pcu_sym.83
_audit_creation_date              2020-01-03
_audit_creation_method            'Materials Studio'
_symmetry_space_group_name_H-M    'P1'
_symmetry_Int_Tables_number       1
_symmetry_cell_setting            triclinic
loop_
_symmetry_equiv_pos_as_xyz
  x,y,z
_cell_length_a                    36.7634
_cell_length_b                    36.7668
_cell_length_c                    34.1947
_cell_angle_alpha                 89.8006
_cell_angle_beta                  89.8933
_cell_angle_gamma                 90.3581
loop_
_atom_site_label
_atom_site_type_symbol
_atom_site_fract_x
_atom_site_fract_y
_atom_site_fract_z
_atom_site_U_iso_or_equiv
_atom_site_adp_type
_atom_site_occupancy
Zn1    Zn    0.20660  -0.00000   0.21735   0.00000  Uiso   1.00
Zn2    Zn    0.29341  -0.00000   0.78265   0.00000  Uiso   1.00
Zn3    Zn    0.00000   0.20660   0.21735   0.00000  Uiso   1.00
Zn4    Zn    0.00000   0.29341   0.78265   0.00000  Uiso   1.00
Zn5    Zn    0.29341  -0.00000   0.21735   0.00000  Uiso   1.00
Zn6    Zn    0.20660  -0.00000   0.78265   0.00000  Uiso   1.00
Zn7    Zn    0.00000   0.29341   0.21735   0.00000  Uiso   1.00
Zn8    Zn    0.00000   0.20660   0.78265   0.00000  Uiso   1.00
Zn9    Zn    0.45660   0.25000   0.71735   0.00000  Uiso   1.00
Zn10   Zn    0.04341   0.25000   0.28265   0.00000  Uiso   1.00
Zn11   Zn    0.25000   0.45659   0.71735   0.00000  Uiso   1.00
Zn12   Zn    0.25000   0.04341   0.28265   0.00000  Uiso   1.00
Zn13   Zn    0.04341   0.25000   0.71735   0.00000  Uiso   1.00
Zn14   Zn    0.45660   0.25000   0.28265   0.00000  Uiso   1.00
Zn15   Zn    0.25000   0.04341   0.71735   0.00000  Uiso   1.00
Zn16   Zn    0.25000   0.45659   0.28265   0.00000  Uiso   1.00
C17    C     0.49934   0.28266   0.41779   0.00000  Uiso   1.00
C18    C     0.49978   0.21746   0.58221   0.00000  Uiso   1.00
C19    C     0.21738   0.49726   0.41804   0.00000  Uiso   1.00
C20    C     0.28319   0.00311   0.58181   0.00000  Uiso   1.00
C21    C     0.00004   0.21684   0.41829   0.00000  Uiso   1.00
C22    C     0.00042   0.28334   0.58172   0.00000  Uiso   1.00
C23    C     0.28309   0.00204   0.41789   0.00000  Uiso   1.00
C24    C     0.21754   0.49695   0.58206   0.00000  Uiso   1.00
C25    C     0.23399   0.02874   0.91792   0.00000  Uiso   1.00
C26    C     0.26666   0.47205   0.08204   0.00000  Uiso   1.00
C27    C     0.46752   0.25680   0.91823   0.00000  Uiso   1.00
C28    C     0.03252   0.24311   0.08182   0.00000  Uiso   1.00
C29    C     0.26577   0.47120   0.91830   0.00000  Uiso   1.00
C30    C     0.23496   0.02967   0.08185   0.00000  Uiso   1.00
C31    C     0.03167   0.24192   0.91796   0.00000  Uiso   1.00
C32    C     0.46846   0.25808   0.08215   0.00000  Uiso   1.00
C33    C     0.49988   0.24972   0.39801   0.00000  Uiso   1.00
C34    C     0.00009   0.25042   0.60199   0.00000  Uiso   1.00
C35    C     0.25022   0.49975   0.39795   0.00000  Uiso   1.00
C36    C     0.25037   0.00011   0.60196   0.00000  Uiso   1.00
C37    C     0.24982   0.49985   0.89806   0.00000  Uiso   1.00
C38    C     0.25031   0.00055   0.10198   0.00000  Uiso   1.00
C39    C     0.49963   0.24962   0.89804   0.00000  Uiso   1.00
C40    C     0.00044   0.25025   0.10201   0.00000  Uiso   1.00
O41    O     0.25000   0.00000   0.25000   0.00000  Uiso   1.00
O42    O     0.25000   0.00000   0.75000   0.00000  Uiso   1.00
O43    O     0.00000   0.25000   0.25000   0.00000  Uiso   1.00
O44    O     0.00000   0.25000   0.75000   0.00000  Uiso   1.00
O45    O     0.25000   0.46963   0.33755   0.00000  Uiso   1.00
O46    O     0.25000   0.03037   0.66245   0.00000  Uiso   1.00
O47    O     0.03037   0.25000   0.33755   0.00000  Uiso   1.00
O48    O     0.46964   0.25000   0.66245   0.00000  Uiso   1.00
O49    O     0.25000   0.03037   0.33755   0.00000  Uiso   1.00
O50    O     0.25000   0.46963   0.66245   0.00000  Uiso   1.00
O51    O     0.46964   0.25000   0.33755   0.00000  Uiso   1.00
O52    O     0.03037   0.25000   0.66245   0.00000  Uiso   1.00
O53    O     0.00000   0.21964   0.83755   0.00000  Uiso   1.00
O54    O     0.00000   0.28036   0.16245   0.00000  Uiso   1.00
O55    O     0.28037  -0.00000   0.83755   0.00000  Uiso   1.00
O56    O     0.21964   0.00000   0.16245   0.00000  Uiso   1.00
O57    O     0.00000   0.28037   0.83755   0.00000  Uiso   1.00
O58    O     0.00000   0.21964   0.16245   0.00000  Uiso   1.00
O59    O     0.21964  -0.00000   0.83755   0.00000  Uiso   1.00
O60    O     0.28037   0.00000   0.16245   0.00000  Uiso   1.00
O61    O     0.20725   0.07308   0.27302   0.00000  Uiso   1.00
O62    O     0.29276   0.42692   0.72698   0.00000  Uiso   1.00
O63    O     0.42693   0.20725   0.27302   0.00000  Uiso   1.00
O64    O     0.07308   0.29275   0.72698   0.00000  Uiso   1.00
O65    O     0.29276   0.42692   0.27302   0.00000  Uiso   1.00
O66    O     0.20725   0.07308   0.72698   0.00000  Uiso   1.00
O67    O     0.07308   0.29275   0.27302   0.00000  Uiso   1.00
O68    O     0.42693   0.20725   0.72698   0.00000  Uiso   1.00
O69    O     0.20725   0.42692   0.72698   0.00000  Uiso   1.00
O70    O     0.29276   0.07308   0.27302   0.00000  Uiso   1.00
O71    O     0.42693   0.29275   0.72698   0.00000  Uiso   1.00
O72    O     0.07308   0.20724   0.27302   0.00000  Uiso   1.00
O73    O     0.29276   0.07308   0.72698   0.00000  Uiso   1.00
O74    O     0.20725   0.42692   0.27302   0.00000  Uiso   1.00
O75    O     0.07308   0.20724   0.72698   0.00000  Uiso   1.00
O76    O     0.42693   0.29275   0.27302   0.00000  Uiso   1.00
O77    O     0.45725   0.32307   0.77302   0.00000  Uiso   1.00
O78    O     0.04276   0.17692   0.22698   0.00000  Uiso   1.00
O79    O     0.17693   0.45724   0.77302   0.00000  Uiso   1.00
O80    O     0.32308   0.04276   0.22698   0.00000  Uiso   1.00
O81    O     0.04276   0.17692   0.77302   0.00000  Uiso   1.00
O82    O     0.45725   0.32307   0.22698   0.00000  Uiso   1.00
O83    O     0.32308   0.04276   0.77302   0.00000  Uiso   1.00
O84    O     0.17693   0.45724   0.22698   0.00000  Uiso   1.00
O85    O     0.45725   0.17693   0.22698   0.00000  Uiso   1.00
O86    O     0.04276   0.32307   0.77302   0.00000  Uiso   1.00
O87    O     0.17693   0.04276   0.22698   0.00000  Uiso   1.00
O88    O     0.32308   0.45724   0.77302   0.00000  Uiso   1.00
O89    O     0.04276   0.32307   0.22698   0.00000  Uiso   1.00
O90    O     0.45725   0.17693   0.77302   0.00000  Uiso   1.00
O91    O     0.32308   0.45724   0.22698   0.00000  Uiso   1.00
O92    O     0.17693   0.04276   0.77302   0.00000  Uiso   1.00
C93    C     0.00177   0.18326   0.47989   0.00000  Uiso   1.00
C94    C     0.49779   0.31690   0.52009   0.00000  Uiso   1.00
C95    C     0.31667   0.00416   0.47914   0.00000  Uiso   1.00
C96    C     0.18363   0.49419   0.52066   0.00000  Uiso   1.00
C97    C     0.49532   0.31668   0.47900   0.00000  Uiso   1.00
C98    C     0.00335   0.18342   0.52099   0.00000  Uiso   1.00
C99    C     0.18356   0.49506   0.47962   0.00000  Uiso   1.00
C100   C     0.31669   0.00656   0.52027   0.00000  Uiso   1.00
C101   C     0.28007   0.44122   0.97999   0.00000  Uiso   1.00
C102   C     0.22174   0.06075   0.02024   0.00000  Uiso   1.00
C103   C     0.06447   0.23376   0.97925   0.00000  Uiso   1.00
C104   C     0.43576   0.26803   0.02085   0.00000  Uiso   1.00
C105   C     0.22252   0.06112   0.97918   0.00000  Uiso   1.00
C106   C     0.28232   0.44238   0.02077   0.00000  Uiso   1.00
C107   C     0.43498   0.26530   0.97978   0.00000  Uiso   1.00
C108   C     0.06520   0.23616   0.02024   0.00000  Uiso   1.00
C109   C     0.25014   0.49992   0.35576   0.00000  Uiso   1.00
C110   C     0.25027   0.00004   0.64422   0.00000  Uiso   1.00
C111   C     0.49997   0.24975   0.35577   0.00000  Uiso   1.00
C112   C     0.00002   0.25034   0.64422   0.00000  Uiso   1.00
C113   C     0.49975   0.24991   0.85579   0.00000  Uiso   1.00
C114   C     0.00031   0.25005   0.14423   0.00000  Uiso   1.00
C115   C     0.24994   0.49980   0.85579   0.00000  Uiso   1.00
C116   C     0.25005   0.00021   0.14422   0.00000  Uiso   1.00
C117   C     0.17978   0.06992   0.25015   0.00000  Uiso   1.00
C118   C     0.32015   0.43010   0.74992   0.00000  Uiso   1.00
C119   C     0.42997   0.18000   0.25006   0.00000  Uiso   1.00
C120   C     0.07000   0.31997   0.75003   0.00000  Uiso   1.00
C121   C     0.32093   0.43074   0.25118   0.00000  Uiso   1.00
C122   C     0.17989   0.07001   0.74994   0.00000  Uiso   1.00
C123   C     0.06983   0.32019   0.25012   0.00000  Uiso   1.00
C124   C     0.43012   0.17989   0.74996   0.00000  Uiso   1.00
C125   C     0.18002   0.42993   0.75007   0.00000  Uiso   1.00
C126   C     0.32006   0.06993   0.25004   0.00000  Uiso   1.00
C127   C     0.43007   0.32023   0.74979   0.00000  Uiso   1.00
C128   C     0.07025   0.18019   0.24982   0.00000  Uiso   1.00
C129   C     0.31977   0.07032   0.75023   0.00000  Uiso   1.00
C130   C     0.18005   0.42991   0.25006   0.00000  Uiso   1.00
C131   C     0.07011   0.17990   0.74999   0.00000  Uiso   1.00
C132   C     0.43044   0.32070   0.25093   0.00000  Uiso   1.00
C133   C     0.13530   0.39181   0.21450   0.00000  Uiso   1.00
C134   C     0.36649   0.10660   0.78530   0.00000  Uiso   1.00
C135   C     0.10368   0.13064   0.21631   0.00000  Uiso   1.00
C136   C     0.39872   0.37209   0.78200   0.00000  Uiso   1.00
C137   C     0.36312   0.11005   0.21428   0.00000  Uiso   1.00
C138   C     0.13539   0.39124   0.78573   0.00000  Uiso   1.00
C139   C     0.40889   0.38204   0.23036   0.00000  Uiso   1.00
C140   C     0.09992   0.12639   0.78114   0.00000  Uiso   1.00
C141   C     0.12769   0.10077   0.78186   0.00000  Uiso   1.00
C142   C     0.38126   0.40788   0.22865   0.00000  Uiso   1.00
C143   C     0.10844   0.36433   0.78569   0.00000  Uiso   1.00
C144   C     0.39022   0.13683   0.21429   0.00000  Uiso   1.00
C145   C     0.37098   0.39778   0.78259   0.00000  Uiso   1.00
C146   C     0.12882   0.10232   0.21720   0.00000  Uiso   1.00
C147   C     0.39347   0.13343   0.78528   0.00000  Uiso   1.00
C148   C     0.10778   0.36553   0.21468   0.00000  Uiso   1.00
C149   C     0.38331   0.14390   0.71526   0.00000  Uiso   1.00
C150   C     0.11465   0.35820   0.28560   0.00000  Uiso   1.00
C151   C     0.35479   0.38189   0.71535   0.00000  Uiso   1.00
C152   C     0.14780   0.12099   0.28279   0.00000  Uiso   1.00
C153   C     0.11444   0.35867   0.71452   0.00000  Uiso   1.00
C154   C     0.38613   0.14052   0.28570   0.00000  Uiso   1.00
C155   C     0.14841   0.12159   0.71734   0.00000  Uiso   1.00
C156   C     0.35179   0.37879   0.28479   0.00000  Uiso   1.00
C157   C     0.37691   0.35042   0.28327   0.00000  Uiso   1.00
C158   C     0.12340   0.14994   0.71862   0.00000  Uiso   1.00
C159   C     0.35983   0.11296   0.28582   0.00000  Uiso   1.00
C160   C     0.14195   0.38498   0.71473   0.00000  Uiso   1.00
C161   C     0.12094   0.14766   0.28308   0.00000  Uiso   1.00
C162   C     0.38005   0.35365   0.71610   0.00000  Uiso   1.00
C163   C     0.14249   0.38417   0.28533   0.00000  Uiso   1.00
C164   C     0.35473   0.11887   0.71593   0.00000  Uiso   1.00
C165   C     0.00039   0.21647   0.45919   0.00000  Uiso   1.00
C166   C     0.49954   0.28370   0.54080   0.00000  Uiso   1.00
C167   C     0.28347   0.00263   0.45878   0.00000  Uiso   1.00
C168   C     0.21680   0.49757   0.54118   0.00000  Uiso   1.00
C169   C     0.49796   0.28332   0.45869   0.00000  Uiso   1.00
C170   C     0.00123   0.21677   0.54134   0.00000  Uiso   1.00
C171   C     0.21676   0.49798   0.45896   0.00000  Uiso   1.00
C172   C     0.28355   0.00369   0.54091   0.00000  Uiso   1.00
C173   C     0.26595   0.47103   0.95915   0.00000  Uiso   1.00
C174   C     0.23603   0.03082   0.04095   0.00000  Uiso   1.00
C175   C     0.03231   0.24221   0.95882   0.00000  Uiso   1.00
C176   C     0.46807   0.25962   0.04126   0.00000  Uiso   1.00
C177   C     0.23605   0.03069   0.95872   0.00000  Uiso   1.00
C178   C     0.26718   0.47185   0.04121   0.00000  Uiso   1.00
C179   C     0.46731   0.25773   0.95914   0.00000  Uiso   1.00
C180   C     0.03294   0.24360   0.04092   0.00000  Uiso   1.00
H181   H     0.49976   0.30761   0.40089   0.00000  Uiso   1.00
H182   H     0.49853   0.19251   0.59910   0.00000  Uiso   1.00
H183   H     0.19248   0.49498   0.40137   0.00000  Uiso   1.00
H184   H     0.30832   0.00458   0.59827   0.00000  Uiso   1.00
H185   H     0.00065   0.19176   0.40189   0.00000  Uiso   1.00
H186   H     0.00044   0.30846   0.59813   0.00000  Uiso   1.00
H187   H     0.30820   0.00320   0.40127   0.00000  Uiso   1.00
H188   H     0.19283   0.49421   0.59893   0.00000  Uiso   1.00
H189   H     0.22066   0.04974   0.90112   0.00000  Uiso   1.00
H190   H     0.27821   0.44976   0.09863   0.00000  Uiso   1.00
H191   H     0.44292   0.26196   0.90177   0.00000  Uiso   1.00
H192   H     0.05696   0.23718   0.09825   0.00000  Uiso   1.00
H193   H     0.27723   0.44881   0.90198   0.00000  Uiso   1.00
H194   H     0.22319   0.05171   0.09840   0.00000  Uiso   1.00
H195   H     0.05606   0.23604   0.90133   0.00000  Uiso   1.00
H196   H     0.44390   0.26248   0.09899   0.00000  Uiso   1.00
C197   C     0.09760   0.34852   0.25018   0.00000  Uiso   1.00
C198   C     0.40220   0.15177   0.75011   0.00000  Uiso   1.00
C199   C     0.15160   0.09793   0.25012   0.00000  Uiso   1.00
C200   C     0.34889   0.40280   0.74931   0.00000  Uiso   1.00
C201   C     0.40173   0.15207   0.25002   0.00000  Uiso   1.00
C202   C     0.09795   0.34807   0.75006   0.00000  Uiso   1.00
C203   C     0.35160   0.40542   0.25483   0.00000  Uiso   1.00
C204   C     0.15161   0.09776   0.74966   0.00000  Uiso   1.00
C205   C     0.09819   0.15178   0.74996   0.00000  Uiso   1.00
C206   C     0.40475   0.35107   0.25454   0.00000  Uiso   1.00
C207   C     0.15212   0.40166   0.75021   0.00000  Uiso   1.00
C208   C     0.34814   0.09789   0.25006   0.00000  Uiso   1.00
C209   C     0.40244   0.34883   0.74936   0.00000  Uiso   1.00
C210   C     0.09869   0.15254   0.24974   0.00000  Uiso   1.00
C211   C     0.34729   0.09900   0.75051   0.00000  Uiso   1.00
C212   C     0.15236   0.40149   0.24994   0.00000  Uiso   1.00
C213   C     0.49958   0.24999   0.47951   0.00000  Uiso   1.00
C214   C     0.00001   0.25015   0.52051   0.00000  Uiso   1.00
C215   C     0.25008   0.00092   0.47945   0.00000  Uiso   1.00
C216   C     0.25011   0.00105   0.52047   0.00000  Uiso   1.00
C217   C     0.25152   0.00121   0.97948   0.00000  Uiso   1.00
C218   C     0.25178   0.00142   0.02051   0.00000  Uiso   1.00
C219   C     0.00010   0.25092   0.97952   0.00000  Uiso   1.00
C220   C     0.00040   0.25154   0.02052   0.00000  Uiso   1.00
O221   O     0.49759   0.15067   0.46004   0.00000  Uiso   1.00
C222   C     0.03182   0.13430   0.45386   0.00000  Uiso   1.00
H223   H     0.03709   0.11453   0.47772   0.00000  Uiso   1.00
H224   H     0.05484   0.15420   0.45237   0.00000  Uiso   1.00
C225   C     0.03098   0.11311   0.41570   0.00000  Uiso   1.00
H226   H     0.02550   0.13161   0.39073   0.00000  Uiso   1.00
H227   H     0.05765   0.09982   0.41090   0.00000  Uiso   1.00
H228   H     0.00939   0.09187   0.41692   0.00000  Uiso   1.00
O229   O     0.00239   0.34944   0.53994   0.00000  Uiso   1.00
C230   C     0.46861   0.36706   0.54477   0.00000  Uiso   1.00
H231   H     0.44474   0.34813   0.54440   0.00000  Uiso   1.00
H232   H     0.46542   0.38766   0.52128   0.00000  Uiso   1.00
C233   C     0.46850   0.38725   0.58356   0.00000  Uiso   1.00
H234   H     0.49081   0.40776   0.58402   0.00000  Uiso   1.00
H235   H     0.44213   0.40135   0.58750   0.00000  Uiso   1.00
H236   H     0.47234   0.36793   0.60818   0.00000  Uiso   1.00
O237   O     0.34909   0.00418   0.45848   0.00000  Uiso   1.00
C238   C     0.36498   0.46938   0.46130   0.00000  Uiso   1.00
H239   H     0.34455   0.44701   0.45813   0.00000  Uiso   1.00
H240   H     0.37903   0.46631   0.48986   0.00000  Uiso   1.00
C241   C     0.39296   0.46528   0.42887   0.00000  Uiso   1.00
H242   H     0.41405   0.48692   0.43121   0.00000  Uiso   1.00
H243   H     0.40619   0.43837   0.43144   0.00000  Uiso   1.00
H244   H     0.37951   0.46725   0.39989   0.00000  Uiso   1.00
O245   O     0.15170   0.48499   0.53994   0.00000  Uiso   1.00
C246   C     0.13355   0.01659   0.55280   0.00000  Uiso   1.00
H247   H     0.14044   0.04161   0.53571   0.00000  Uiso   1.00
H248   H     0.14030   0.02170   0.58388   0.00000  Uiso   1.00
C249   C     0.09273   0.00998   0.55050   0.00000  Uiso   1.00
H250   H     0.08508   0.48596   0.56859   0.00000  Uiso   1.00
H251   H     0.07804   0.03405   0.56167   0.00000  Uiso   1.00
H252   H     0.08447   0.00497   0.51976   0.00000  Uiso   1.00
O253   O     0.49336   0.34944   0.45892   0.00000  Uiso   1.00
C254   C     0.45771   0.35414   0.44393   0.00000  Uiso   1.00
H255   H     0.43954   0.36527   0.46682   0.00000  Uiso   1.00
H256   H     0.44496   0.32851   0.43320   0.00000  Uiso   1.00
C257   C     0.45902   0.38083   0.40985   0.00000  Uiso   1.00
H258   H     0.47658   0.37010   0.38615   0.00000  Uiso   1.00
H259   H     0.43121   0.38477   0.39800   0.00000  Uiso   1.00
H260   H     0.47002   0.40745   0.41973   0.00000  Uiso   1.00
O261   O     0.00441   0.15057   0.54089   0.00000  Uiso   1.00
C262   C     0.04044   0.14418   0.55368   0.00000  Uiso   1.00
H263   H     0.04846   0.16333   0.57714   0.00000  Uiso   1.00
H264   H     0.06055   0.14698   0.52946   0.00000  Uiso   1.00
C265   C     0.04283   0.10588   0.57026   0.00000  Uiso   1.00
H266   H     0.03555   0.08576   0.54739   0.00000  Uiso   1.00
H267   H     0.07098   0.10064   0.58048   0.00000  Uiso   1.00
H268   H     0.02385   0.10276   0.59538   0.00000  Uiso   1.00
O269   O     0.15115   0.48916   0.45996   0.00000  Uiso   1.00
C270   C     0.13709   0.02290   0.44725   0.00000  Uiso   1.00
H271   H     0.15860   0.04148   0.43572   0.00000  Uiso   1.00
H272   H     0.12300   0.03671   0.47167   0.00000  Uiso   1.00
C273   C     0.10961   0.01641   0.41478   0.00000  Uiso   1.00
H274   H     0.08764   0.49790   0.42523   0.00000  Uiso   1.00
H275   H     0.09741   0.04265   0.40569   0.00000  Uiso   1.00
H276   H     0.12321   0.00411   0.38905   0.00000  Uiso   1.00
O277   O     0.34919   0.00867   0.54067   0.00000  Uiso   1.00
C278   C     0.36453   0.04377   0.53595   0.00000  Uiso   1.00
H279   H     0.34404   0.06554   0.54067   0.00000  Uiso   1.00
H280   H     0.37643   0.04709   0.50626   0.00000  Uiso   1.00
C281   C     0.39498   0.04879   0.56555   0.00000  Uiso   1.00
H282   H     0.41699   0.02894   0.55982   0.00000  Uiso   1.00
H283   H     0.40635   0.07677   0.56325   0.00000  Uiso   1.00
H284   H     0.38445   0.04442   0.59566   0.00000  Uiso   1.00
O285   O     0.29318   0.41106   0.96070   0.00000  Uiso   1.00
C286   C     0.26482   0.38542   0.95496   0.00000  Uiso   1.00
H287   H     0.26016   0.38278   0.92304   0.00000  Uiso   1.00
H288   H     0.23826   0.39265   0.96881   0.00000  Uiso   1.00
C289   C     0.27655   0.34856   0.97072   0.00000  Uiso   1.00
H290   H     0.28028   0.34992   0.00288   0.00000  Uiso   1.00
H291   H     0.25543   0.32778   0.96407   0.00000  Uiso   1.00
H292   H     0.30256   0.34035   0.95694   0.00000  Uiso   1.00
O293   O     0.20390   0.08827   0.03990   0.00000  Uiso   1.00
C294   C     0.22901   0.11597   0.04981   0.00000  Uiso   1.00
H295   H     0.23311   0.13450   0.02455   0.00000  Uiso   1.00
H296   H     0.25591   0.10507   0.05906   0.00000  Uiso   1.00
C297   C     0.21360   0.13824   0.08332   0.00000  Uiso   1.00
H298   H     0.21129   0.12111   0.11001   0.00000  Uiso   1.00
H299   H     0.23195   0.16159   0.08961   0.00000  Uiso   1.00
H300   H     0.18629   0.14878   0.07548   0.00000  Uiso   1.00
O301   O     0.09590   0.22467   0.95925   0.00000  Uiso   1.00
C302   C     0.09654   0.18674   0.95205   0.00000  Uiso   1.00
H303   H     0.10644   0.18275   0.92167   0.00000  Uiso   1.00
H304   H     0.06942   0.17299   0.95405   0.00000  Uiso   1.00
C305   C     0.12308   0.16800   0.97964   0.00000  Uiso   1.00
H306   H     0.11124   0.16594   0.00944   0.00000  Uiso   1.00
H307   H     0.12877   0.14009   0.96902   0.00000  Uiso   1.00
H308   H     0.14901   0.18357   0.98098   0.00000  Uiso   1.00
O309   O     0.40386   0.27537   0.04084   0.00000  Uiso   1.00
C310   C     0.40460   0.31199   0.05359   0.00000  Uiso   1.00
H311   H     0.40643   0.33118   0.02845   0.00000  Uiso   1.00
H312   H     0.42803   0.31771   0.07318   0.00000  Uiso   1.00
C313   C     0.36994   0.31976   0.07630   0.00000  Uiso   1.00
H314   H     0.36743   0.30067   0.10143   0.00000  Uiso   1.00
H315   H     0.37073   0.34800   0.08762   0.00000  Uiso   1.00
H316   H     0.34589   0.31648   0.05698   0.00000  Uiso   1.00
O317   O     0.20751   0.09052   0.95975   0.00000  Uiso   1.00
C318   C     0.23563   0.11329   0.94512   0.00000  Uiso   1.00
H319   H     0.24649   0.10242   0.91729   0.00000  Uiso   1.00
H320   H     0.25871   0.11638   0.96600   0.00000  Uiso   1.00
C321   C     0.22028   0.15081   0.93664   0.00000  Uiso   1.00
H322   H     0.21044   0.16338   0.96412   0.00000  Uiso   1.00
H323   H     0.24179   0.16850   0.92376   0.00000  Uiso   1.00
H324   H     0.19733   0.14869   0.91567   0.00000  Uiso   1.00
O325   O     0.29685   0.41295   0.04054   0.00000  Uiso   1.00
C326   C     0.33379   0.42005   0.04953   0.00000  Uiso   1.00
H327   H     0.33968   0.40690   0.07806   0.00000  Uiso   1.00
H328   H     0.34035   0.44955   0.05303   0.00000  Uiso   1.00
C329   C     0.35884   0.40357   0.01880   0.00000  Uiso   1.00
H330   H     0.35778   0.41968   0.99133   0.00000  Uiso   1.00
H331   H     0.38729   0.40385   0.02963   0.00000  Uiso   1.00
H332   H     0.35063   0.37505   0.01264   0.00000  Uiso   1.00
O333   O     0.40199   0.26462   0.96017   0.00000  Uiso   1.00
C334   C     0.38843   0.30020   0.95528   0.00000  Uiso   1.00
H335   H     0.41028   0.32129   0.95287   0.00000  Uiso   1.00
H336   H     0.37026   0.30692   0.98013   0.00000  Uiso   1.00
C337   C     0.36560   0.30150   0.91825   0.00000  Uiso   1.00
H338   H     0.34166   0.28313   0.92127   0.00000  Uiso   1.00
H339   H     0.35594   0.32966   0.91310   0.00000  Uiso   1.00
H340   H     0.38199   0.29270   0.89275   0.00000  Uiso   1.00
O341   O     0.09675   0.22814   0.04043   0.00000  Uiso   1.00
C342   C     0.12092   0.25806   0.03802   0.00000  Uiso   1.00
H343   H     0.10723   0.28403   0.04575   0.00000  Uiso   1.00
H344   H     0.13256   0.26059   0.00810   0.00000  Uiso   1.00
C345   C     0.15212   0.25206   0.06642   0.00000  Uiso   1.00
H346   H     0.16710   0.22698   0.05848   0.00000  Uiso   1.00
H347   H     0.17116   0.27560   0.06527   0.00000  Uiso   1.00
H348   H     0.14147   0.24913   0.09669   0.00000  Uiso   1.00
O349   O     0.14419   0.40866   0.17936   0.00000  Uiso   1.00
C350   C     0.17762   0.39501   0.16506   0.00000  Uiso   1.00
H351   H     0.18149   0.36555   0.17152   0.00000  Uiso   1.00
H352   H     0.20082   0.41024   0.17795   0.00000  Uiso   1.00
C353   C     0.17912   0.40033   0.12095   0.00000  Uiso   1.00
H354   H     0.17675   0.42969   0.11363   0.00000  Uiso   1.00
H355   H     0.20539   0.39014   0.10941   0.00000  Uiso   1.00
H356   H     0.15649   0.38512   0.10688   0.00000  Uiso   1.00
O357   O     0.35993   0.08746   0.81963   0.00000  Uiso   1.00
C358   C     0.32803   0.10052   0.83804   0.00000  Uiso   1.00
H359   H     0.30408   0.08423   0.82868   0.00000  Uiso   1.00
H360   H     0.32220   0.12964   0.83151   0.00000  Uiso   1.00
C361   C     0.33200   0.09622   0.88208   0.00000  Uiso   1.00
H362   H     0.35667   0.11089   0.89230   0.00000  Uiso   1.00
H363   H     0.30793   0.10772   0.89704   0.00000  Uiso   1.00
H364   H     0.33429   0.06696   0.88986   0.00000  Uiso   1.00
O365   O     0.08321   0.13554   0.18267   0.00000  Uiso   1.00
C366   C     0.09690   0.16580   0.16122   0.00000  Uiso   1.00
H367   H     0.12699   0.16921   0.16359   0.00000  Uiso   1.00
H368   H     0.08429   0.19138   0.17153   0.00000  Uiso   1.00
C369   C     0.08731   0.16119   0.11826   0.00000  Uiso   1.00
H370   H     0.05732   0.16174   0.11444   0.00000  Uiso   1.00
H371   H     0.09972   0.18364   0.10098   0.00000  Uiso   1.00
H372   H     0.09787   0.13497   0.10712   0.00000  Uiso   1.00
O373   O     0.42492   0.37364   0.81106   0.00000  Uiso   1.00
C374   C     0.41710   0.34808   0.84088   0.00000  Uiso   1.00
H375   H     0.41527   0.31985   0.82947   0.00000  Uiso   1.00
H376   H     0.39123   0.35429   0.85578   0.00000  Uiso   1.00
C377   C     0.44737   0.34985   0.87108   0.00000  Uiso   1.00
H378   H     0.44739   0.37684   0.88558   0.00000  Uiso   1.00
H379   H     0.44330   0.32846   0.89353   0.00000  Uiso   1.00
H380   H     0.47415   0.34571   0.85678   0.00000  Uiso   1.00
O381   O     0.35224   0.09546   0.17880   0.00000  Uiso   1.00
C382   C     0.31793   0.10968   0.16808   0.00000  Uiso   1.00
H383   H     0.31309   0.13773   0.17927   0.00000  Uiso   1.00
H384   H     0.29580   0.09174   0.17925   0.00000  Uiso   1.00
C385   C     0.31518   0.11079   0.12377   0.00000  Uiso   1.00
H386   H     0.31635   0.08278   0.11176   0.00000  Uiso   1.00
H387   H     0.28903   0.12338   0.11528   0.00000  Uiso   1.00
H388   H     0.33784   0.12726   0.11130   0.00000  Uiso   1.00
O389   O     0.14391   0.40809   0.82078   0.00000  Uiso   1.00
C390   C     0.17727   0.39462   0.83539   0.00000  Uiso   1.00
H391   H     0.20027   0.41146   0.82431   0.00000  Uiso   1.00
H392   H     0.18253   0.36578   0.82726   0.00000  Uiso   1.00
C393   C     0.17698   0.39722   0.87975   0.00000  Uiso   1.00
H394   H     0.15383   0.38124   0.89190   0.00000  Uiso   1.00
H395   H     0.20268   0.38617   0.89164   0.00000  Uiso   1.00
H396   H     0.17438   0.42607   0.88885   0.00000  Uiso   1.00
O397   O     0.43888   0.38634   0.20622   0.00000  Uiso   1.00
C398   C     0.46561   0.40658   0.22645   0.00000  Uiso   1.00
H399   H     0.47348   0.39275   0.25421   0.00000  Uiso   1.00
H400   H     0.45568   0.43444   0.23316   0.00000  Uiso   1.00
C401   C     0.49937   0.41006   0.20089   0.00000  Uiso   1.00
H402   H     0.49274   0.42499   0.17355   0.00000  Uiso   1.00
H403   H     0.02096   0.42517   0.21681   0.00000  Uiso   1.00
H404   H     0.00969   0.38266   0.19327   0.00000  Uiso   1.00
O405   O     0.07199   0.12286   0.80826   0.00000  Uiso   1.00
C406   C     0.07773   0.14637   0.84034   0.00000  Uiso   1.00
H407   H     0.08385   0.17480   0.83099   0.00000  Uiso   1.00
H408   H     0.10031   0.13680   0.85889   0.00000  Uiso   1.00
C409   C     0.04346   0.14633   0.86538   0.00000  Uiso   1.00
H410   H     0.03997   0.11945   0.87987   0.00000  Uiso   1.00
H411   H     0.04539   0.16768   0.88807   0.00000  Uiso   1.00
H412   H     0.01923   0.15166   0.84698   0.00000  Uiso   1.00
O413   O     0.12916   0.07686   0.81320   0.00000  Uiso   1.00
C414   C     0.15504   0.08945   0.84075   0.00000  Uiso   1.00
H415   H     0.15614   0.11967   0.84313   0.00000  Uiso   1.00
H416   H     0.18276   0.08020   0.83279   0.00000  Uiso   1.00
C417   C     0.14551   0.07366   0.88067   0.00000  Uiso   1.00
H418   H     0.14936   0.04372   0.88058   0.00000  Uiso   1.00
H419   H     0.16328   0.08591   0.90320   0.00000  Uiso   1.00
H420   H     0.11679   0.07964   0.88824   0.00000  Uiso   1.00
O421   O     0.38587   0.43812   0.20488   0.00000  Uiso   1.00
C422   C     0.37710   0.42909   0.16591   0.00000  Uiso   1.00
H423   H     0.34855   0.41899   0.16364   0.00000  Uiso   1.00
H424   H     0.39580   0.40812   0.15411   0.00000  Uiso   1.00
C425   C     0.38103   0.46314   0.14083   0.00000  Uiso   1.00
H426   H     0.40879   0.47481   0.14414   0.00000  Uiso   1.00
H427   H     0.37677   0.45635   0.10966   0.00000  Uiso   1.00
H428   H     0.36070   0.48370   0.14987   0.00000  Uiso   1.00
O429   O     0.09083   0.35597   0.82049   0.00000  Uiso   1.00
C430   C     0.10593   0.32406   0.83676   0.00000  Uiso   1.00
H431   H     0.13576   0.32683   0.84096   0.00000  Uiso   1.00
H432   H     0.10053   0.30002   0.81797   0.00000  Uiso   1.00
C433   C     0.08871   0.31696   0.87657   0.00000  Uiso   1.00
H434   H     0.05882   0.31361   0.87350   0.00000  Uiso   1.00
H435   H     0.10014   0.29180   0.88958   0.00000  Uiso   1.00
H436   H     0.09438   0.34012   0.89646   0.00000  Uiso   1.00
O437   O     0.40642   0.14664   0.17914   0.00000  Uiso   1.00
C438   C     0.39050   0.17904   0.16506   0.00000  Uiso   1.00
H439   H     0.39650   0.20235   0.18470   0.00000  Uiso   1.00
H440   H     0.36053   0.17617   0.16210   0.00000  Uiso   1.00
C441   C     0.40611   0.18784   0.12488   0.00000  Uiso   1.00
H442   H     0.39986   0.16542   0.10423   0.00000  Uiso   1.00
H443   H     0.39398   0.21338   0.11356   0.00000  Uiso   1.00
H444   H     0.43606   0.19137   0.12681   0.00000  Uiso   1.00
O445   O     0.36760   0.41968   0.81526   0.00000  Uiso   1.00
C446   C     0.33994   0.40563   0.84004   0.00000  Uiso   1.00
H447   H     0.33668   0.37548   0.83833   0.00000  Uiso   1.00
H448   H     0.31330   0.41781   0.83245   0.00000  Uiso   1.00
C449   C     0.34885   0.41565   0.88207   0.00000  Uiso   1.00
H450   H     0.34521   0.44530   0.88656   0.00000  Uiso   1.00
H451   H     0.33058   0.40034   0.90198   0.00000  Uiso   1.00
H452   H     0.37737   0.40848   0.88920   0.00000  Uiso   1.00
O453   O     0.12761   0.07653   0.18778   0.00000  Uiso   1.00
C454   C     0.15199   0.08603   0.15740   0.00000  Uiso   1.00
H455   H     0.18068   0.08231   0.16671   0.00000  Uiso   1.00
H456   H     0.14872   0.11454   0.14762   0.00000  Uiso   1.00
C457   C     0.14445   0.06152   0.12259   0.00000  Uiso   1.00
H458   H     0.11528   0.06305   0.11440   0.00000  Uiso   1.00
H459   H     0.16097   0.07043   0.09718   0.00000  Uiso   1.00
H460   H     0.15128   0.03293   0.12997   0.00000  Uiso   1.00
O461   O     0.41286   0.13956   0.81940   0.00000  Uiso   1.00
C462   C     0.39882   0.17047   0.83864   0.00000  Uiso   1.00
H463   H     0.36931   0.16742   0.84482   0.00000  Uiso   1.00
H464   H     0.40307   0.19559   0.82099   0.00000  Uiso   1.00
C465   C     0.41837   0.17530   0.87747   0.00000  Uiso   1.00
H466   H     0.44802   0.17881   0.87247   0.00000  Uiso   1.00
H467   H     0.40781   0.19968   0.89271   0.00000  Uiso   1.00
H468   H     0.41382   0.15105   0.89634   0.00000  Uiso   1.00
O469   O     0.08925   0.35866   0.18022   0.00000  Uiso   1.00
C470   C     0.10337   0.32709   0.16252   0.00000  Uiso   1.00
H471   H     0.09954   0.30271   0.18146   0.00000  Uiso   1.00
H472   H     0.13277   0.33021   0.15576   0.00000  Uiso   1.00
C473   C     0.08338   0.32043   0.12435   0.00000  Uiso   1.00
H474   H     0.08975   0.34249   0.10310   0.00000  Uiso   1.00
H475   H     0.09198   0.29404   0.11200   0.00000  Uiso   1.00
H476   H     0.05359   0.31957   0.12952   0.00000  Uiso   1.00
O477   O     0.39100   0.16195   0.68050   0.00000  Uiso   1.00
C478   C     0.42276   0.14717   0.66337   0.00000  Uiso   1.00
H479   H     0.42426   0.11702   0.66656   0.00000  Uiso   1.00
H480   H     0.44754   0.15916   0.67679   0.00000  Uiso   1.00
C481   C     0.42334   0.15636   0.61995   0.00000  Uiso   1.00
H482   H     0.42401   0.18634   0.61579   0.00000  Uiso   1.00
H483   H     0.44786   0.14446   0.60609   0.00000  Uiso   1.00
H484   H     0.39875   0.14507   0.60548   0.00000  Uiso   1.00
O485   O     0.10570   0.34140   0.32076   0.00000  Uiso   1.00
C486   C     0.07215   0.35491   0.33494   0.00000  Uiso   1.00
H487   H     0.04914   0.33872   0.32303   0.00000  Uiso   1.00
H488   H     0.06751   0.38403   0.32732   0.00000  Uiso   1.00
C489   C     0.07126   0.35118   0.37926   0.00000  Uiso   1.00
H490   H     0.09402   0.36688   0.39238   0.00000  Uiso   1.00
H491   H     0.04519   0.36183   0.39080   0.00000  Uiso   1.00
H492   H     0.07376   0.32212   0.38776   0.00000  Uiso   1.00
O493   O     0.33498   0.38752   0.68141   0.00000  Uiso   1.00
C494   C     0.34883   0.41857   0.66149   0.00000  Uiso   1.00
H495   H     0.37913   0.41988   0.66157   0.00000  Uiso   1.00
H496   H     0.33862   0.44397   0.67496   0.00000  Uiso   1.00
C497   C     0.33603   0.41782   0.61921   0.00000  Uiso   1.00
H498   H     0.30584   0.41828   0.61813   0.00000  Uiso   1.00
H499   H     0.34683   0.44197   0.60330   0.00000  Uiso   1.00
H500   H     0.34594   0.39283   0.60459   0.00000  Uiso   1.00
O501   O     0.17177   0.11934   0.31397   0.00000  Uiso   1.00
C502   C     0.15930   0.09380   0.34215   0.00000  Uiso   1.00
H503   H     0.17451   0.06798   0.33898   0.00000  Uiso   1.00
H504   H     0.12983   0.08676   0.33971   0.00000  Uiso   1.00
C505   C     0.16663   0.10898   0.38279   0.00000  Uiso   1.00
H506   H     0.16007   0.13837   0.38380   0.00000  Uiso   1.00
H507   H     0.14939   0.09483   0.40469   0.00000  Uiso   1.00
H508   H     0.19574   0.10549   0.39047   0.00000  Uiso   1.00
O509   O     0.10529   0.34247   0.67925   0.00000  Uiso   1.00
C510   C     0.07150   0.35594   0.66577   0.00000  Uiso   1.00
H511   H     0.06704   0.38506   0.67320   0.00000  Uiso   1.00
H512   H     0.04868   0.33982   0.67839   0.00000  Uiso   1.00
C513   C     0.06978   0.35207   0.62156   0.00000  Uiso   1.00
H514   H     0.07230   0.32300   0.61328   0.00000  Uiso   1.00
H515   H     0.04343   0.36254   0.61066   0.00000  Uiso   1.00
H516   H     0.09212   0.36789   0.60765   0.00000  Uiso   1.00
O517   O     0.39465   0.15754   0.32059   0.00000  Uiso   1.00
C518   C     0.42621   0.14171   0.33665   0.00000  Uiso   1.00
H519   H     0.45072   0.14941   0.31933   0.00000  Uiso   1.00
H520   H     0.42420   0.11155   0.33797   0.00000  Uiso   1.00
C521   C     0.43117   0.15560   0.37812   0.00000  Uiso   1.00
H522   H     0.40690   0.14867   0.39610   0.00000  Uiso   1.00
H523   H     0.45540   0.14277   0.39148   0.00000  Uiso   1.00
H524   H     0.43485   0.18560   0.37777   0.00000  Uiso   1.00
O525   O     0.17191   0.11984   0.68568   0.00000  Uiso   1.00
C526   C     0.16001   0.09237   0.65961   0.00000  Uiso   1.00
H527   H     0.13030   0.09379   0.65356   0.00000  Uiso   1.00
H528   H     0.16559   0.06481   0.67143   0.00000  Uiso   1.00
C529   C     0.18062   0.09659   0.62122   0.00000  Uiso   1.00
H530   H     0.21030   0.09381   0.62638   0.00000  Uiso   1.00
H531   H     0.17185   0.07537   0.60028   0.00000  Uiso   1.00
H532   H     0.17522   0.12375   0.60823   0.00000  Uiso   1.00
O533   O     0.32628   0.37867   0.31465   0.00000  Uiso   1.00
C534   C     0.33595   0.40557   0.34246   0.00000  Uiso   1.00
H535   H     0.33302   0.43346   0.33031   0.00000  Uiso   1.00
H536   H     0.36457   0.40274   0.35250   0.00000  Uiso   1.00
C537   C     0.31092   0.40217   0.37774   0.00000  Uiso   1.00
H538   H     0.31491   0.37543   0.39226   0.00000  Uiso   1.00
H539   H     0.31705   0.42417   0.39888   0.00000  Uiso   1.00
H540   H     0.28210   0.40456   0.36844   0.00000  Uiso   1.00
O541   O     0.37125   0.32030   0.30707   0.00000  Uiso   1.00
C542   C     0.39144   0.32402   0.34200   0.00000  Uiso   1.00
H543   H     0.37911   0.34472   0.36125   0.00000  Uiso   1.00
H544   H     0.42039   0.33154   0.33625   0.00000  Uiso   1.00
C545   C     0.39053   0.28797   0.36400   0.00000  Uiso   1.00
H546   H     0.40017   0.26571   0.34485   0.00000  Uiso   1.00
H547   H     0.40829   0.28951   0.39016   0.00000  Uiso   1.00
H548   H     0.36229   0.28167   0.37354   0.00000  Uiso   1.00
O549   O     0.12754   0.17848   0.69230   0.00000  Uiso   1.00
C550   C     0.10571   0.17282   0.65887   0.00000  Uiso   1.00
H551   H     0.07705   0.16590   0.66667   0.00000  Uiso   1.00
H552   H     0.11694   0.15098   0.64036   0.00000  Uiso   1.00
C553   C     0.10599   0.20756   0.63450   0.00000  Uiso   1.00
H554   H     0.13374   0.21270   0.62275   0.00000  Uiso   1.00
H555   H     0.08675   0.20509   0.60971   0.00000  Uiso   1.00
H556   H     0.09797   0.23107   0.65278   0.00000  Uiso   1.00
O557   O     0.34476   0.10231   0.32131   0.00000  Uiso   1.00
C558   C     0.35856   0.06795   0.33264   0.00000  Uiso   1.00
H559   H     0.38676   0.06287   0.32191   0.00000  Uiso   1.00
H560   H     0.34064   0.04591   0.32149   0.00000  Uiso   1.00
C561   C     0.35883   0.06543   0.37705   0.00000  Uiso   1.00
H562   H     0.33087   0.06907   0.38870   0.00000  Uiso   1.00
H563   H     0.36904   0.03838   0.38625   0.00000  Uiso   1.00
H564   H     0.37687   0.08678   0.38939   0.00000  Uiso   1.00
O565   O     0.16017   0.39254   0.68016   0.00000  Uiso   1.00
C566   C     0.14494   0.42363   0.66236   0.00000  Uiso   1.00
H567   H     0.15409   0.44877   0.67751   0.00000  Uiso   1.00
H568   H     0.11471   0.42292   0.66232   0.00000  Uiso   1.00
C569   C     0.15765   0.42555   0.62013   0.00000  Uiso   1.00
H570   H     0.15003   0.40023   0.60450   0.00000  Uiso   1.00
H571   H     0.14452   0.44891   0.60540   0.00000  Uiso   1.00
H572   H     0.18767   0.42893   0.61899   0.00000  Uiso   1.00
O573   O     0.12040   0.17194   0.31400   0.00000  Uiso   1.00
C574   C     0.09247   0.16249   0.34074   0.00000  Uiso   1.00
H575   H     0.09716   0.13552   0.35421   0.00000  Uiso   1.00
H576   H     0.06524   0.16186   0.32668   0.00000  Uiso   1.00
C577   C     0.09193   0.19066   0.37321   0.00000  Uiso   1.00
H578   H     0.08990   0.21840   0.36056   0.00000  Uiso   1.00
H579   H     0.06831   0.18580   0.39269   0.00000  Uiso   1.00
H580   H     0.11725   0.18904   0.39074   0.00000  Uiso   1.00
O581   O     0.37989   0.32884   0.68569   0.00000  Uiso   1.00
C582   C     0.40657   0.33846   0.65766   0.00000  Uiso   1.00
H583   H     0.43425   0.33957   0.67074   0.00000  Uiso   1.00
H584   H     0.40061   0.36512   0.64400   0.00000  Uiso   1.00
C585   C     0.40639   0.30999   0.62548   0.00000  Uiso   1.00
H586   H     0.38015   0.31082   0.60946   0.00000  Uiso   1.00
H587   H     0.42887   0.31534   0.60459   0.00000  Uiso   1.00
H588   H     0.40987   0.28245   0.63825   0.00000  Uiso   1.00
O589   O     0.16197   0.39004   0.31939   0.00000  Uiso   1.00
C590   C     0.14739   0.42003   0.33964   0.00000  Uiso   1.00
H591   H     0.11733   0.41825   0.34252   0.00000  Uiso   1.00
H592   H     0.15454   0.44596   0.32457   0.00000  Uiso   1.00
C593   C     0.16340   0.42081   0.38059   0.00000  Uiso   1.00
H594   H     0.19324   0.42554   0.37902   0.00000  Uiso   1.00
H595   H     0.15068   0.44286   0.39776   0.00000  Uiso   1.00
H596   H     0.15808   0.39452   0.39569   0.00000  Uiso   1.00
O597   O     0.33118   0.11792   0.68440   0.00000  Uiso   1.00
C598   C     0.34153   0.09037   0.65813   0.00000  Uiso   1.00
H599   H     0.34061   0.06305   0.67221   0.00000  Uiso   1.00
H600   H     0.36924   0.09523   0.64635   0.00000  Uiso   1.00
C601   C     0.31510   0.09059   0.62402   0.00000  Uiso   1.00
H602   H     0.31786   0.11644   0.60734   0.00000  Uiso   1.00
H603   H     0.32100   0.06761   0.60433   0.00000  Uiso   1.00
H604   H     0.28673   0.08788   0.63482   0.00000  Uiso   1.00
Zn605  Zn    0.70660  -0.00000   0.21735   0.00000  Uiso   1.00
Zn606  Zn    0.79341  -0.00000   0.78265   0.00000  Uiso   1.00
Zn607  Zn    0.50000   0.20660   0.21735   0.00000  Uiso   1.00
Zn608  Zn    0.50000   0.29341   0.78265   0.00000  Uiso   1.00
Zn609  Zn    0.79341  -0.00000   0.21735   0.00000  Uiso   1.00
Zn610  Zn    0.70660  -0.00000   0.78265   0.00000  Uiso   1.00
Zn611  Zn    0.50000   0.29341   0.21735   0.00000  Uiso   1.00
Zn612  Zn    0.50000   0.20660   0.78265   0.00000  Uiso   1.00
Zn613  Zn    0.95660   0.25000   0.71735   0.00000  Uiso   1.00
Zn614  Zn    0.54341   0.25000   0.28265   0.00000  Uiso   1.00
Zn615  Zn    0.75000   0.45659   0.71735   0.00000  Uiso   1.00
Zn616  Zn    0.75000   0.04341   0.28265   0.00000  Uiso   1.00
Zn617  Zn    0.54341   0.25000   0.71735   0.00000  Uiso   1.00
Zn618  Zn    0.95660   0.25000   0.28265   0.00000  Uiso   1.00
Zn619  Zn    0.75000   0.04341   0.71735   0.00000  Uiso   1.00
Zn620  Zn    0.75000   0.45659   0.28265   0.00000  Uiso   1.00
C621   C     0.99934   0.28266   0.41779   0.00000  Uiso   1.00
C622   C     0.99978   0.21746   0.58221   0.00000  Uiso   1.00
C623   C     0.71738   0.49726   0.41804   0.00000  Uiso   1.00
C624   C     0.78319   0.00311   0.58181   0.00000  Uiso   1.00
C625   C     0.50004   0.21684   0.41829   0.00000  Uiso   1.00
C626   C     0.50042   0.28334   0.58172   0.00000  Uiso   1.00
C627   C     0.78309   0.00204   0.41789   0.00000  Uiso   1.00
C628   C     0.71754   0.49695   0.58206   0.00000  Uiso   1.00
C629   C     0.73399   0.02874   0.91792   0.00000  Uiso   1.00
C630   C     0.76666   0.47205   0.08204   0.00000  Uiso   1.00
C631   C     0.96752   0.25680   0.91823   0.00000  Uiso   1.00
C632   C     0.53252   0.24311   0.08182   0.00000  Uiso   1.00
C633   C     0.76577   0.47120   0.91830   0.00000  Uiso   1.00
C634   C     0.73496   0.02967   0.08185   0.00000  Uiso   1.00
C635   C     0.53167   0.24192   0.91796   0.00000  Uiso   1.00
C636   C     0.96846   0.25808   0.08215   0.00000  Uiso   1.00
C637   C     0.99988   0.24972   0.39801   0.00000  Uiso   1.00
C638   C     0.50009   0.25042   0.60199   0.00000  Uiso   1.00
C639   C     0.75022   0.49975   0.39795   0.00000  Uiso   1.00
C640   C     0.75037   0.00011   0.60196   0.00000  Uiso   1.00
C641   C     0.74982   0.49985   0.89806   0.00000  Uiso   1.00
C642   C     0.75031   0.00055   0.10198   0.00000  Uiso   1.00
C643   C     0.99963   0.24962   0.89804   0.00000  Uiso   1.00
C644   C     0.50044   0.25025   0.10201   0.00000  Uiso   1.00
O645   O     0.75000   0.00000   0.25000   0.00000  Uiso   1.00
O646   O     0.75000   0.00000   0.75000   0.00000  Uiso   1.00
O647   O     0.50000   0.25000   0.25000   0.00000  Uiso   1.00
O648   O     0.50000   0.25000   0.75000   0.00000  Uiso   1.00
O649   O     0.75000   0.46963   0.33755   0.00000  Uiso   1.00
O650   O     0.75000   0.03037   0.66245   0.00000  Uiso   1.00
O651   O     0.53037   0.25000   0.33755   0.00000  Uiso   1.00
O652   O     0.96964   0.25000   0.66245   0.00000  Uiso   1.00
O653   O     0.75000   0.03037   0.33755   0.00000  Uiso   1.00
O654   O     0.75000   0.46963   0.66245   0.00000  Uiso   1.00
O655   O     0.96964   0.25000   0.33755   0.00000  Uiso   1.00
O656   O     0.53037   0.25000   0.66245   0.00000  Uiso   1.00
O657   O     0.50000   0.21964   0.83755   0.00000  Uiso   1.00
O658   O     0.50000   0.28036   0.16245   0.00000  Uiso   1.00
O659   O     0.78037  -0.00000   0.83755   0.00000  Uiso   1.00
O660   O     0.71964   0.00000   0.16245   0.00000  Uiso   1.00
O661   O     0.50000   0.28037   0.83755   0.00000  Uiso   1.00
O662   O     0.50000   0.21964   0.16245   0.00000  Uiso   1.00
O663   O     0.71964  -0.00000   0.83755   0.00000  Uiso   1.00
O664   O     0.78037   0.00000   0.16245   0.00000  Uiso   1.00
O665   O     0.70725   0.07308   0.27302   0.00000  Uiso   1.00
O666   O     0.79276   0.42692   0.72698   0.00000  Uiso   1.00
O667   O     0.92693   0.20725   0.27302   0.00000  Uiso   1.00
O668   O     0.57308   0.29275   0.72698   0.00000  Uiso   1.00
O669   O     0.79276   0.42692   0.27302   0.00000  Uiso   1.00
O670   O     0.70725   0.07308   0.72698   0.00000  Uiso   1.00
O671   O     0.57308   0.29275   0.27302   0.00000  Uiso   1.00
O672   O     0.92693   0.20725   0.72698   0.00000  Uiso   1.00
O673   O     0.70725   0.42692   0.72698   0.00000  Uiso   1.00
O674   O     0.79276   0.07308   0.27302   0.00000  Uiso   1.00
O675   O     0.92693   0.29275   0.72698   0.00000  Uiso   1.00
O676   O     0.57308   0.20724   0.27302   0.00000  Uiso   1.00
O677   O     0.79276   0.07308   0.72698   0.00000  Uiso   1.00
O678   O     0.70725   0.42692   0.27302   0.00000  Uiso   1.00
O679   O     0.57308   0.20724   0.72698   0.00000  Uiso   1.00
O680   O     0.92693   0.29275   0.27302   0.00000  Uiso   1.00
O681   O     0.95725   0.32307   0.77302   0.00000  Uiso   1.00
O682   O     0.54276   0.17692   0.22698   0.00000  Uiso   1.00
O683   O     0.67693   0.45724   0.77302   0.00000  Uiso   1.00
O684   O     0.82308   0.04276   0.22698   0.00000  Uiso   1.00
O685   O     0.54276   0.17692   0.77302   0.00000  Uiso   1.00
O686   O     0.95725   0.32307   0.22698   0.00000  Uiso   1.00
O687   O     0.82308   0.04276   0.77302   0.00000  Uiso   1.00
O688   O     0.67693   0.45724   0.22698   0.00000  Uiso   1.00
O689   O     0.95725   0.17693   0.22698   0.00000  Uiso   1.00
O690   O     0.54276   0.32307   0.77302   0.00000  Uiso   1.00
O691   O     0.67693   0.04276   0.22698   0.00000  Uiso   1.00
O692   O     0.82308   0.45724   0.77302   0.00000  Uiso   1.00
O693   O     0.54276   0.32307   0.22698   0.00000  Uiso   1.00
O694   O     0.95725   0.17693   0.77302   0.00000  Uiso   1.00
O695   O     0.82308   0.45724   0.22698   0.00000  Uiso   1.00
O696   O     0.67693   0.04276   0.77302   0.00000  Uiso   1.00
C697   C     0.50177   0.18326   0.47989   0.00000  Uiso   1.00
C698   C     0.99779   0.31690   0.52009   0.00000  Uiso   1.00
C699   C     0.81667   0.00416   0.47914   0.00000  Uiso   1.00
C700   C     0.68363   0.49419   0.52066   0.00000  Uiso   1.00
C701   C     0.99532   0.31668   0.47900   0.00000  Uiso   1.00
C702   C     0.50335   0.18342   0.52099   0.00000  Uiso   1.00
C703   C     0.68356   0.49506   0.47962   0.00000  Uiso   1.00
C704   C     0.81669   0.00656   0.52027   0.00000  Uiso   1.00
C705   C     0.78007   0.44122   0.97999   0.00000  Uiso   1.00
C706   C     0.72174   0.06075   0.02024   0.00000  Uiso   1.00
C707   C     0.56447   0.23376   0.97925   0.00000  Uiso   1.00
C708   C     0.93576   0.26803   0.02085   0.00000  Uiso   1.00
C709   C     0.72252   0.06112   0.97918   0.00000  Uiso   1.00
C710   C     0.78232   0.44238   0.02077   0.00000  Uiso   1.00
C711   C     0.93498   0.26530   0.97978   0.00000  Uiso   1.00
C712   C     0.56520   0.23616   0.02024   0.00000  Uiso   1.00
C713   C     0.75014   0.49992   0.35576   0.00000  Uiso   1.00
C714   C     0.75027   0.00004   0.64422   0.00000  Uiso   1.00
C715   C     0.99997   0.24975   0.35577   0.00000  Uiso   1.00
C716   C     0.50002   0.25034   0.64422   0.00000  Uiso   1.00
C717   C     0.99975   0.24991   0.85579   0.00000  Uiso   1.00
C718   C     0.50031   0.25005   0.14423   0.00000  Uiso   1.00
C719   C     0.74994   0.49980   0.85579   0.00000  Uiso   1.00
C720   C     0.75005   0.00021   0.14422   0.00000  Uiso   1.00
C721   C     0.67978   0.06992   0.25015   0.00000  Uiso   1.00
C722   C     0.82015   0.43010   0.74992   0.00000  Uiso   1.00
C723   C     0.92997   0.18000   0.25006   0.00000  Uiso   1.00
C724   C     0.57000   0.31997   0.75003   0.00000  Uiso   1.00
C725   C     0.82093   0.43074   0.25118   0.00000  Uiso   1.00
C726   C     0.67989   0.07001   0.74994   0.00000  Uiso   1.00
C727   C     0.56983   0.32019   0.25012   0.00000  Uiso   1.00
C728   C     0.93012   0.17989   0.74996   0.00000  Uiso   1.00
C729   C     0.68002   0.42993   0.75007   0.00000  Uiso   1.00
C730   C     0.82006   0.06993   0.25004   0.00000  Uiso   1.00
C731   C     0.93007   0.32023   0.74979   0.00000  Uiso   1.00
C732   C     0.57025   0.18019   0.24982   0.00000  Uiso   1.00
C733   C     0.81977   0.07032   0.75023   0.00000  Uiso   1.00
C734   C     0.68005   0.42991   0.25006   0.00000  Uiso   1.00
C735   C     0.57011   0.17990   0.74999   0.00000  Uiso   1.00
C736   C     0.93044   0.32070   0.25093   0.00000  Uiso   1.00
C737   C     0.63530   0.39181   0.21450   0.00000  Uiso   1.00
C738   C     0.86649   0.10660   0.78530   0.00000  Uiso   1.00
C739   C     0.60368   0.13064   0.21631   0.00000  Uiso   1.00
C740   C     0.89872   0.37209   0.78200   0.00000  Uiso   1.00
C741   C     0.86312   0.11005   0.21428   0.00000  Uiso   1.00
C742   C     0.63539   0.39124   0.78573   0.00000  Uiso   1.00
C743   C     0.90889   0.38204   0.23036   0.00000  Uiso   1.00
C744   C     0.59992   0.12639   0.78114   0.00000  Uiso   1.00
C745   C     0.62769   0.10077   0.78186   0.00000  Uiso   1.00
C746   C     0.88126   0.40788   0.22865   0.00000  Uiso   1.00
C747   C     0.60844   0.36433   0.78569   0.00000  Uiso   1.00
C748   C     0.89022   0.13683   0.21429   0.00000  Uiso   1.00
C749   C     0.87098   0.39778   0.78259   0.00000  Uiso   1.00
C750   C     0.62882   0.10232   0.21720   0.00000  Uiso   1.00
C751   C     0.89347   0.13343   0.78528   0.00000  Uiso   1.00
C752   C     0.60778   0.36553   0.21468   0.00000  Uiso   1.00
C753   C     0.88331   0.14390   0.71526   0.00000  Uiso   1.00
C754   C     0.61465   0.35820   0.28560   0.00000  Uiso   1.00
C755   C     0.85479   0.38189   0.71535   0.00000  Uiso   1.00
C756   C     0.64780   0.12099   0.28279   0.00000  Uiso   1.00
C757   C     0.61444   0.35867   0.71452   0.00000  Uiso   1.00
C758   C     0.88613   0.14052   0.28570   0.00000  Uiso   1.00
C759   C     0.64841   0.12159   0.71734   0.00000  Uiso   1.00
C760   C     0.85179   0.37879   0.28479   0.00000  Uiso   1.00
C761   C     0.87691   0.35042   0.28327   0.00000  Uiso   1.00
C762   C     0.62340   0.14994   0.71862   0.00000  Uiso   1.00
C763   C     0.85983   0.11296   0.28582   0.00000  Uiso   1.00
C764   C     0.64195   0.38498   0.71473   0.00000  Uiso   1.00
C765   C     0.62094   0.14766   0.28308   0.00000  Uiso   1.00
C766   C     0.88005   0.35365   0.71610   0.00000  Uiso   1.00
C767   C     0.64249   0.38417   0.28533   0.00000  Uiso   1.00
C768   C     0.85473   0.11887   0.71593   0.00000  Uiso   1.00
C769   C     0.50039   0.21647   0.45919   0.00000  Uiso   1.00
C770   C     0.99954   0.28370   0.54080   0.00000  Uiso   1.00
C771   C     0.78347   0.00263   0.45878   0.00000  Uiso   1.00
C772   C     0.71680   0.49757   0.54118   0.00000  Uiso   1.00
C773   C     0.99796   0.28332   0.45869   0.00000  Uiso   1.00
C774   C     0.50123   0.21677   0.54134   0.00000  Uiso   1.00
C775   C     0.71676   0.49798   0.45896   0.00000  Uiso   1.00
C776   C     0.78355   0.00369   0.54091   0.00000  Uiso   1.00
C777   C     0.76595   0.47103   0.95915   0.00000  Uiso   1.00
C778   C     0.73603   0.03082   0.04095   0.00000  Uiso   1.00
C779   C     0.53231   0.24221   0.95882   0.00000  Uiso   1.00
C780   C     0.96807   0.25962   0.04126   0.00000  Uiso   1.00
C781   C     0.73605   0.03069   0.95872   0.00000  Uiso   1.00
C782   C     0.76718   0.47185   0.04121   0.00000  Uiso   1.00
C783   C     0.96731   0.25773   0.95914   0.00000  Uiso   1.00
C784   C     0.53294   0.24360   0.04092   0.00000  Uiso   1.00
H785   H     0.99976   0.30761   0.40089   0.00000  Uiso   1.00
H786   H     0.99853   0.19251   0.59910   0.00000  Uiso   1.00
H787   H     0.69248   0.49498   0.40137   0.00000  Uiso   1.00
H788   H     0.80832   0.00458   0.59827   0.00000  Uiso   1.00
H789   H     0.50065   0.19176   0.40189   0.00000  Uiso   1.00
H790   H     0.50044   0.30846   0.59813   0.00000  Uiso   1.00
H791   H     0.80820   0.00320   0.40127   0.00000  Uiso   1.00
H792   H     0.69283   0.49421   0.59893   0.00000  Uiso   1.00
H793   H     0.72066   0.04974   0.90112   0.00000  Uiso   1.00
H794   H     0.77821   0.44976   0.09863   0.00000  Uiso   1.00
H795   H     0.94292   0.26196   0.90177   0.00000  Uiso   1.00
H796   H     0.55696   0.23718   0.09825   0.00000  Uiso   1.00
H797   H     0.77723   0.44881   0.90198   0.00000  Uiso   1.00
H798   H     0.72319   0.05171   0.09840   0.00000  Uiso   1.00
H799   H     0.55606   0.23604   0.90133   0.00000  Uiso   1.00
H800   H     0.94390   0.26248   0.09899   0.00000  Uiso   1.00
C801   C     0.59760   0.34852   0.25018   0.00000  Uiso   1.00
C802   C     0.90220   0.15177   0.75011   0.00000  Uiso   1.00
C803   C     0.65160   0.09793   0.25012   0.00000  Uiso   1.00
C804   C     0.84889   0.40280   0.74931   0.00000  Uiso   1.00
C805   C     0.90173   0.15207   0.25002   0.00000  Uiso   1.00
C806   C     0.59795   0.34807   0.75006   0.00000  Uiso   1.00
C807   C     0.85160   0.40542   0.25483   0.00000  Uiso   1.00
C808   C     0.65161   0.09776   0.74966   0.00000  Uiso   1.00
C809   C     0.59819   0.15178   0.74996   0.00000  Uiso   1.00
C810   C     0.90475   0.35107   0.25454   0.00000  Uiso   1.00
C811   C     0.65212   0.40166   0.75021   0.00000  Uiso   1.00
C812   C     0.84814   0.09789   0.25006   0.00000  Uiso   1.00
C813   C     0.90244   0.34883   0.74936   0.00000  Uiso   1.00
C814   C     0.59869   0.15254   0.24974   0.00000  Uiso   1.00
C815   C     0.84729   0.09900   0.75051   0.00000  Uiso   1.00
C816   C     0.65236   0.40149   0.24994   0.00000  Uiso   1.00
C817   C     0.99958   0.24999   0.47951   0.00000  Uiso   1.00
C818   C     0.50001   0.25015   0.52051   0.00000  Uiso   1.00
C819   C     0.75008   0.00092   0.47945   0.00000  Uiso   1.00
C820   C     0.75011   0.00105   0.52047   0.00000  Uiso   1.00
C821   C     0.75152   0.00121   0.97948   0.00000  Uiso   1.00
C822   C     0.75178   0.00142   0.02051   0.00000  Uiso   1.00
C823   C     0.50010   0.25092   0.97952   0.00000  Uiso   1.00
C824   C     0.50040   0.25154   0.02052   0.00000  Uiso   1.00
O825   O     0.99759   0.15067   0.46004   0.00000  Uiso   1.00
C826   C     0.53182   0.13430   0.45386   0.00000  Uiso   1.00
H827   H     0.53709   0.11453   0.47772   0.00000  Uiso   1.00
H828   H     0.55484   0.15420   0.45237   0.00000  Uiso   1.00
C829   C     0.53098   0.11311   0.41570   0.00000  Uiso   1.00
H830   H     0.52550   0.13161   0.39073   0.00000  Uiso   1.00
H831   H     0.55765   0.09982   0.41090   0.00000  Uiso   1.00
H832   H     0.50939   0.09187   0.41692   0.00000  Uiso   1.00
O833   O     0.50239   0.34944   0.53994   0.00000  Uiso   1.00
C834   C     0.96861   0.36706   0.54477   0.00000  Uiso   1.00
H835   H     0.94474   0.34813   0.54440   0.00000  Uiso   1.00
H836   H     0.96542   0.38766   0.52128   0.00000  Uiso   1.00
C837   C     0.96850   0.38725   0.58356   0.00000  Uiso   1.00
H838   H     0.99081   0.40776   0.58402   0.00000  Uiso   1.00
H839   H     0.94213   0.40135   0.58750   0.00000  Uiso   1.00
H840   H     0.97234   0.36793   0.60818   0.00000  Uiso   1.00
O841   O     0.84909   0.00418   0.45848   0.00000  Uiso   1.00
C842   C     0.86498   0.46938   0.46130   0.00000  Uiso   1.00
H843   H     0.84455   0.44701   0.45813   0.00000  Uiso   1.00
H844   H     0.87903   0.46631   0.48986   0.00000  Uiso   1.00
C845   C     0.89296   0.46528   0.42887   0.00000  Uiso   1.00
H846   H     0.91405   0.48692   0.43121   0.00000  Uiso   1.00
H847   H     0.90619   0.43837   0.43144   0.00000  Uiso   1.00
H848   H     0.87951   0.46725   0.39989   0.00000  Uiso   1.00
O849   O     0.65170   0.48499   0.53994   0.00000  Uiso   1.00
C850   C     0.63355   0.01659   0.55280   0.00000  Uiso   1.00
H851   H     0.64044   0.04161   0.53571   0.00000  Uiso   1.00
H852   H     0.64030   0.02170   0.58388   0.00000  Uiso   1.00
C853   C     0.59273   0.00998   0.55050   0.00000  Uiso   1.00
H854   H     0.58508   0.48596   0.56859   0.00000  Uiso   1.00
H855   H     0.57804   0.03405   0.56167   0.00000  Uiso   1.00
H856   H     0.58447   0.00497   0.51976   0.00000  Uiso   1.00
O857   O     0.99336   0.34944   0.45892   0.00000  Uiso   1.00
C858   C     0.95771   0.35414   0.44393   0.00000  Uiso   1.00
H859   H     0.93954   0.36527   0.46682   0.00000  Uiso   1.00
H860   H     0.94496   0.32851   0.43320   0.00000  Uiso   1.00
C861   C     0.95902   0.38083   0.40985   0.00000  Uiso   1.00
H862   H     0.97658   0.37010   0.38615   0.00000  Uiso   1.00
H863   H     0.93121   0.38477   0.39800   0.00000  Uiso   1.00
H864   H     0.97002   0.40745   0.41973   0.00000  Uiso   1.00
O865   O     0.50441   0.15057   0.54089   0.00000  Uiso   1.00
C866   C     0.54044   0.14418   0.55368   0.00000  Uiso   1.00
H867   H     0.54846   0.16333   0.57714   0.00000  Uiso   1.00
H868   H     0.56055   0.14698   0.52946   0.00000  Uiso   1.00
C869   C     0.54283   0.10588   0.57026   0.00000  Uiso   1.00
H870   H     0.53555   0.08576   0.54739   0.00000  Uiso   1.00
H871   H     0.57098   0.10064   0.58048   0.00000  Uiso   1.00
H872   H     0.52385   0.10276   0.59538   0.00000  Uiso   1.00
O873   O     0.65115   0.48916   0.45996   0.00000  Uiso   1.00
C874   C     0.63709   0.02290   0.44725   0.00000  Uiso   1.00
H875   H     0.65860   0.04148   0.43572   0.00000  Uiso   1.00
H876   H     0.62300   0.03671   0.47167   0.00000  Uiso   1.00
C877   C     0.60961   0.01641   0.41478   0.00000  Uiso   1.00
H878   H     0.58764   0.49790   0.42523   0.00000  Uiso   1.00
H879   H     0.59741   0.04265   0.40569   0.00000  Uiso   1.00
H880   H     0.62321   0.00411   0.38905   0.00000  Uiso   1.00
O881   O     0.84919   0.00867   0.54067   0.00000  Uiso   1.00
C882   C     0.86453   0.04377   0.53595   0.00000  Uiso   1.00
H883   H     0.84404   0.06554   0.54067   0.00000  Uiso   1.00
H884   H     0.87643   0.04709   0.50626   0.00000  Uiso   1.00
C885   C     0.89498   0.04879   0.56555   0.00000  Uiso   1.00
H886   H     0.91699   0.02894   0.55982   0.00000  Uiso   1.00
H887   H     0.90635   0.07677   0.56325   0.00000  Uiso   1.00
H888   H     0.88445   0.04442   0.59566   0.00000  Uiso   1.00
O889   O     0.79318   0.41106   0.96070   0.00000  Uiso   1.00
C890   C     0.76482   0.38542   0.95496   0.00000  Uiso   1.00
H891   H     0.76016   0.38278   0.92304   0.00000  Uiso   1.00
H892   H     0.73826   0.39265   0.96881   0.00000  Uiso   1.00
C893   C     0.77655   0.34856   0.97072   0.00000  Uiso   1.00
H894   H     0.78028   0.34992   0.00288   0.00000  Uiso   1.00
H895   H     0.75543   0.32778   0.96407   0.00000  Uiso   1.00
H896   H     0.80256   0.34035   0.95694   0.00000  Uiso   1.00
O897   O     0.70390   0.08827   0.03990   0.00000  Uiso   1.00
C898   C     0.72901   0.11597   0.04981   0.00000  Uiso   1.00
H899   H     0.73311   0.13450   0.02455   0.00000  Uiso   1.00
H900   H     0.75591   0.10507   0.05906   0.00000  Uiso   1.00
C901   C     0.71360   0.13824   0.08332   0.00000  Uiso   1.00
H902   H     0.71129   0.12111   0.11001   0.00000  Uiso   1.00
H903   H     0.73195   0.16159   0.08961   0.00000  Uiso   1.00
H904   H     0.68629   0.14878   0.07548   0.00000  Uiso   1.00
O905   O     0.59590   0.22467   0.95925   0.00000  Uiso   1.00
C906   C     0.59654   0.18674   0.95205   0.00000  Uiso   1.00
H907   H     0.60644   0.18275   0.92167   0.00000  Uiso   1.00
H908   H     0.56942   0.17299   0.95405   0.00000  Uiso   1.00
C909   C     0.62308   0.16800   0.97964   0.00000  Uiso   1.00
H910   H     0.61124   0.16594   0.00944   0.00000  Uiso   1.00
H911   H     0.62877   0.14009   0.96902   0.00000  Uiso   1.00
H912   H     0.64901   0.18357   0.98098   0.00000  Uiso   1.00
O913   O     0.90386   0.27537   0.04084   0.00000  Uiso   1.00
C914   C     0.90460   0.31199   0.05359   0.00000  Uiso   1.00
H915   H     0.90643   0.33118   0.02845   0.00000  Uiso   1.00
H916   H     0.92803   0.31771   0.07318   0.00000  Uiso   1.00
C917   C     0.86994   0.31976   0.07630   0.00000  Uiso   1.00
H918   H     0.86743   0.30067   0.10143   0.00000  Uiso   1.00
H919   H     0.87073   0.34800   0.08762   0.00000  Uiso   1.00
H920   H     0.84589   0.31648   0.05698   0.00000  Uiso   1.00
O921   O     0.70751   0.09052   0.95975   0.00000  Uiso   1.00
C922   C     0.73563   0.11329   0.94512   0.00000  Uiso   1.00
H923   H     0.74649   0.10242   0.91729   0.00000  Uiso   1.00
H924   H     0.75871   0.11638   0.96600   0.00000  Uiso   1.00
C925   C     0.72028   0.15081   0.93664   0.00000  Uiso   1.00
H926   H     0.71044   0.16338   0.96412   0.00000  Uiso   1.00
H927   H     0.74179   0.16850   0.92376   0.00000  Uiso   1.00
H928   H     0.69733   0.14869   0.91567   0.00000  Uiso   1.00
O929   O     0.79685   0.41295   0.04054   0.00000  Uiso   1.00
C930   C     0.83379   0.42005   0.04953   0.00000  Uiso   1.00
H931   H     0.83968   0.40690   0.07806   0.00000  Uiso   1.00
H932   H     0.84035   0.44955   0.05303   0.00000  Uiso   1.00
C933   C     0.85884   0.40357   0.01880   0.00000  Uiso   1.00
H934   H     0.85778   0.41968   0.99133   0.00000  Uiso   1.00
H935   H     0.88729   0.40385   0.02963   0.00000  Uiso   1.00
H936   H     0.85063   0.37505   0.01264   0.00000  Uiso   1.00
O937   O     0.90199   0.26462   0.96017   0.00000  Uiso   1.00
C938   C     0.88843   0.30020   0.95528   0.00000  Uiso   1.00
H939   H     0.91028   0.32129   0.95287   0.00000  Uiso   1.00
H940   H     0.87026   0.30692   0.98013   0.00000  Uiso   1.00
C941   C     0.86560   0.30150   0.91825   0.00000  Uiso   1.00
H942   H     0.84166   0.28313   0.92127   0.00000  Uiso   1.00
H943   H     0.85594   0.32966   0.91310   0.00000  Uiso   1.00
H944   H     0.88199   0.29270   0.89275   0.00000  Uiso   1.00
O945   O     0.59675   0.22814   0.04043   0.00000  Uiso   1.00
C946   C     0.62092   0.25806   0.03802   0.00000  Uiso   1.00
H947   H     0.60723   0.28403   0.04575   0.00000  Uiso   1.00
H948   H     0.63256   0.26059   0.00810   0.00000  Uiso   1.00
C949   C     0.65212   0.25206   0.06642   0.00000  Uiso   1.00
H950   H     0.66710   0.22698   0.05848   0.00000  Uiso   1.00
H951   H     0.67116   0.27560   0.06527   0.00000  Uiso   1.00
H952   H     0.64147   0.24913   0.09669   0.00000  Uiso   1.00
O953   O     0.64419   0.40866   0.17936   0.00000  Uiso   1.00
C954   C     0.67762   0.39501   0.16506   0.00000  Uiso   1.00
H955   H     0.68149   0.36555   0.17152   0.00000  Uiso   1.00
H956   H     0.70082   0.41024   0.17795   0.00000  Uiso   1.00
C957   C     0.67912   0.40033   0.12095   0.00000  Uiso   1.00
H958   H     0.67675   0.42969   0.11363   0.00000  Uiso   1.00
H959   H     0.70539   0.39014   0.10941   0.00000  Uiso   1.00
H960   H     0.65649   0.38512   0.10688   0.00000  Uiso   1.00
O961   O     0.85993   0.08746   0.81963   0.00000  Uiso   1.00
C962   C     0.82803   0.10052   0.83804   0.00000  Uiso   1.00
H963   H     0.80408   0.08423   0.82868   0.00000  Uiso   1.00
H964   H     0.82220   0.12964   0.83151   0.00000  Uiso   1.00
C965   C     0.83200   0.09622   0.88208   0.00000  Uiso   1.00
H966   H     0.85667   0.11089   0.89230   0.00000  Uiso   1.00
H967   H     0.80793   0.10772   0.89704   0.00000  Uiso   1.00
H968   H     0.83429   0.06696   0.88986   0.00000  Uiso   1.00
O969   O     0.58321   0.13554   0.18267   0.00000  Uiso   1.00
C970   C     0.59690   0.16580   0.16122   0.00000  Uiso   1.00
H971   H     0.62699   0.16921   0.16359   0.00000  Uiso   1.00
H972   H     0.58429   0.19138   0.17153   0.00000  Uiso   1.00
C973   C     0.58731   0.16119   0.11826   0.00000  Uiso   1.00
H974   H     0.55732   0.16174   0.11444   0.00000  Uiso   1.00
H975   H     0.59972   0.18364   0.10098   0.00000  Uiso   1.00
H976   H     0.59787   0.13497   0.10712   0.00000  Uiso   1.00
O977   O     0.92492   0.37364   0.81106   0.00000  Uiso   1.00
C978   C     0.91710   0.34808   0.84088   0.00000  Uiso   1.00
H979   H     0.91527   0.31985   0.82947   0.00000  Uiso   1.00
H980   H     0.89123   0.35429   0.85578   0.00000  Uiso   1.00
C981   C     0.94737   0.34985   0.87108   0.00000  Uiso   1.00
H982   H     0.94739   0.37684   0.88558   0.00000  Uiso   1.00
H983   H     0.94330   0.32846   0.89353   0.00000  Uiso   1.00
H984   H     0.97415   0.34571   0.85678   0.00000  Uiso   1.00
O985   O     0.85224   0.09546   0.17880   0.00000  Uiso   1.00
C986   C     0.81793   0.10968   0.16808   0.00000  Uiso   1.00
H987   H     0.81309   0.13773   0.17927   0.00000  Uiso   1.00
H988   H     0.79580   0.09174   0.17925   0.00000  Uiso   1.00
C989   C     0.81518   0.11079   0.12377   0.00000  Uiso   1.00
H990   H     0.81635   0.08278   0.11176   0.00000  Uiso   1.00
H991   H     0.78903   0.12338   0.11528   0.00000  Uiso   1.00
H992   H     0.83784   0.12726   0.11130   0.00000  Uiso   1.00
O993   O     0.64391   0.40809   0.82078   0.00000  Uiso   1.00
C994   C     0.67727   0.39462   0.83539   0.00000  Uiso   1.00
H995   H     0.70027   0.41146   0.82431   0.00000  Uiso   1.00
H996   H     0.68253   0.36578   0.82726   0.00000  Uiso   1.00
C997   C     0.67698   0.39722   0.87975   0.00000  Uiso   1.00
H998   H     0.65383   0.38124   0.89190   0.00000  Uiso   1.00
H999   H     0.70268   0.38617   0.89164   0.00000  Uiso   1.00
H1000  H     0.67438   0.42607   0.88885   0.00000  Uiso   1.00
O1001  O     0.93888   0.38634   0.20622   0.00000  Uiso   1.00
C1002  C     0.96561   0.40658   0.22645   0.00000  Uiso   1.00
H1003  H     0.97348   0.39275   0.25421   0.00000  Uiso   1.00
H1004  H     0.95568   0.43444   0.23316   0.00000  Uiso   1.00
C1005  C     0.99937   0.41006   0.20089   0.00000  Uiso   1.00
H1006  H     0.99274   0.42499   0.17355   0.00000  Uiso   1.00
H1007  H     0.52096   0.42517   0.21681   0.00000  Uiso   1.00
H1008  H     0.50969   0.38266   0.19327   0.00000  Uiso   1.00
O1009  O     0.57199   0.12286   0.80826   0.00000  Uiso   1.00
C1010  C     0.57773   0.14637   0.84034   0.00000  Uiso   1.00
H1011  H     0.58385   0.17480   0.83099   0.00000  Uiso   1.00
H1012  H     0.60031   0.13680   0.85889   0.00000  Uiso   1.00
C1013  C     0.54346   0.14633   0.86538   0.00000  Uiso   1.00
H1014  H     0.53997   0.11945   0.87987   0.00000  Uiso   1.00
H1015  H     0.54539   0.16768   0.88807   0.00000  Uiso   1.00
H1016  H     0.51923   0.15166   0.84698   0.00000  Uiso   1.00
O1017  O     0.62916   0.07686   0.81320   0.00000  Uiso   1.00
C1018  C     0.65504   0.08945   0.84075   0.00000  Uiso   1.00
H1019  H     0.65614   0.11967   0.84313   0.00000  Uiso   1.00
H1020  H     0.68276   0.08020   0.83279   0.00000  Uiso   1.00
C1021  C     0.64551   0.07366   0.88067   0.00000  Uiso   1.00
H1022  H     0.64936   0.04372   0.88058   0.00000  Uiso   1.00
H1023  H     0.66328   0.08591   0.90320   0.00000  Uiso   1.00
H1024  H     0.61679   0.07964   0.88824   0.00000  Uiso   1.00
O1025  O     0.88587   0.43812   0.20488   0.00000  Uiso   1.00
C1026  C     0.87710   0.42909   0.16591   0.00000  Uiso   1.00
H1027  H     0.84855   0.41899   0.16364   0.00000  Uiso   1.00
H1028  H     0.89580   0.40812   0.15411   0.00000  Uiso   1.00
C1029  C     0.88103   0.46314   0.14083   0.00000  Uiso   1.00
H1030  H     0.90879   0.47481   0.14414   0.00000  Uiso   1.00
H1031  H     0.87677   0.45635   0.10966   0.00000  Uiso   1.00
H1032  H     0.86070   0.48370   0.14987   0.00000  Uiso   1.00
O1033  O     0.59083   0.35597   0.82049   0.00000  Uiso   1.00
C1034  C     0.60593   0.32406   0.83676   0.00000  Uiso   1.00
H1035  H     0.63576   0.32683   0.84096   0.00000  Uiso   1.00
H1036  H     0.60053   0.30002   0.81797   0.00000  Uiso   1.00
C1037  C     0.58871   0.31696   0.87657   0.00000  Uiso   1.00
H1038  H     0.55882   0.31361   0.87350   0.00000  Uiso   1.00
H1039  H     0.60014   0.29180   0.88958   0.00000  Uiso   1.00
H1040  H     0.59438   0.34012   0.89646   0.00000  Uiso   1.00
O1041  O     0.90642   0.14664   0.17914   0.00000  Uiso   1.00
C1042  C     0.89050   0.17904   0.16506   0.00000  Uiso   1.00
H1043  H     0.89650   0.20235   0.18470   0.00000  Uiso   1.00
H1044  H     0.86053   0.17617   0.16210   0.00000  Uiso   1.00
C1045  C     0.90611   0.18784   0.12488   0.00000  Uiso   1.00
H1046  H     0.89986   0.16542   0.10423   0.00000  Uiso   1.00
H1047  H     0.89398   0.21338   0.11356   0.00000  Uiso   1.00
H1048  H     0.93606   0.19137   0.12681   0.00000  Uiso   1.00
O1049  O     0.86760   0.41968   0.81526   0.00000  Uiso   1.00
C1050  C     0.83994   0.40563   0.84004   0.00000  Uiso   1.00
H1051  H     0.83668   0.37548   0.83833   0.00000  Uiso   1.00
H1052  H     0.81330   0.41781   0.83245   0.00000  Uiso   1.00
C1053  C     0.84885   0.41565   0.88207   0.00000  Uiso   1.00
H1054  H     0.84521   0.44530   0.88656   0.00000  Uiso   1.00
H1055  H     0.83058   0.40034   0.90198   0.00000  Uiso   1.00
H1056  H     0.87737   0.40848   0.88920   0.00000  Uiso   1.00
O1057  O     0.62761   0.07653   0.18778   0.00000  Uiso   1.00
C1058  C     0.65199   0.08603   0.15740   0.00000  Uiso   1.00
H1059  H     0.68068   0.08231   0.16671   0.00000  Uiso   1.00
H1060  H     0.64872   0.11454   0.14762   0.00000  Uiso   1.00
C1061  C     0.64445   0.06152   0.12259   0.00000  Uiso   1.00
H1062  H     0.61528   0.06305   0.11440   0.00000  Uiso   1.00
H1063  H     0.66097   0.07043   0.09718   0.00000  Uiso   1.00
H1064  H     0.65128   0.03293   0.12997   0.00000  Uiso   1.00
O1065  O     0.91286   0.13956   0.81940   0.00000  Uiso   1.00
C1066  C     0.89882   0.17047   0.83864   0.00000  Uiso   1.00
H1067  H     0.86931   0.16742   0.84482   0.00000  Uiso   1.00
H1068  H     0.90307   0.19559   0.82099   0.00000  Uiso   1.00
C1069  C     0.91837   0.17530   0.87747   0.00000  Uiso   1.00
H1070  H     0.94802   0.17881   0.87247   0.00000  Uiso   1.00
H1071  H     0.90781   0.19968   0.89271   0.00000  Uiso   1.00
H1072  H     0.91382   0.15105   0.89634   0.00000  Uiso   1.00
O1073  O     0.58925   0.35866   0.18022   0.00000  Uiso   1.00
C1074  C     0.60337   0.32709   0.16252   0.00000  Uiso   1.00
H1075  H     0.59954   0.30271   0.18146   0.00000  Uiso   1.00
H1076  H     0.63277   0.33021   0.15576   0.00000  Uiso   1.00
C1077  C     0.58338   0.32043   0.12435   0.00000  Uiso   1.00
H1078  H     0.58975   0.34249   0.10310   0.00000  Uiso   1.00
H1079  H     0.59198   0.29404   0.11200   0.00000  Uiso   1.00
H1080  H     0.55359   0.31957   0.12952   0.00000  Uiso   1.00
O1081  O     0.89100   0.16195   0.68050   0.00000  Uiso   1.00
C1082  C     0.92276   0.14717   0.66337   0.00000  Uiso   1.00
H1083  H     0.92426   0.11702   0.66656   0.00000  Uiso   1.00
H1084  H     0.94754   0.15916   0.67679   0.00000  Uiso   1.00
C1085  C     0.92334   0.15636   0.61995   0.00000  Uiso   1.00
H1086  H     0.92401   0.18634   0.61579   0.00000  Uiso   1.00
H1087  H     0.94786   0.14446   0.60609   0.00000  Uiso   1.00
H1088  H     0.89875   0.14507   0.60548   0.00000  Uiso   1.00
O1089  O     0.60570   0.34140   0.32076   0.00000  Uiso   1.00
C1090  C     0.57215   0.35491   0.33494   0.00000  Uiso   1.00
H1091  H     0.54914   0.33872   0.32303   0.00000  Uiso   1.00
H1092  H     0.56751   0.38403   0.32732   0.00000  Uiso   1.00
C1093  C     0.57126   0.35118   0.37926   0.00000  Uiso   1.00
H1094  H     0.59402   0.36688   0.39238   0.00000  Uiso   1.00
H1095  H     0.54519   0.36183   0.39080   0.00000  Uiso   1.00
H1096  H     0.57376   0.32212   0.38776   0.00000  Uiso   1.00
O1097  O     0.83498   0.38752   0.68141   0.00000  Uiso   1.00
C1098  C     0.84883   0.41857   0.66149   0.00000  Uiso   1.00
H1099  H     0.87913   0.41988   0.66157   0.00000  Uiso   1.00
H1100  H     0.83862   0.44397   0.67496   0.00000  Uiso   1.00
C1101  C     0.83603   0.41782   0.61921   0.00000  Uiso   1.00
H1102  H     0.80584   0.41828   0.61813   0.00000  Uiso   1.00
H1103  H     0.84683   0.44197   0.60330   0.00000  Uiso   1.00
H1104  H     0.84594   0.39283   0.60459   0.00000  Uiso   1.00
O1105  O     0.67177   0.11934   0.31397   0.00000  Uiso   1.00
C1106  C     0.65930   0.09380   0.34215   0.00000  Uiso   1.00
H1107  H     0.67451   0.06798   0.33898   0.00000  Uiso   1.00
H1108  H     0.62983   0.08676   0.33971   0.00000  Uiso   1.00
C1109  C     0.66663   0.10898   0.38279   0.00000  Uiso   1.00
H1110  H     0.66007   0.13837   0.38380   0.00000  Uiso   1.00
H1111  H     0.64939   0.09483   0.40469   0.00000  Uiso   1.00
H1112  H     0.69574   0.10549   0.39047   0.00000  Uiso   1.00
O1113  O     0.60529   0.34247   0.67925   0.00000  Uiso   1.00
C1114  C     0.57150   0.35594   0.66577   0.00000  Uiso   1.00
H1115  H     0.56704   0.38506   0.67320   0.00000  Uiso   1.00
H1116  H     0.54868   0.33982   0.67839   0.00000  Uiso   1.00
C1117  C     0.56978   0.35207   0.62156   0.00000  Uiso   1.00
H1118  H     0.57230   0.32300   0.61328   0.00000  Uiso   1.00
H1119  H     0.54343   0.36254   0.61066   0.00000  Uiso   1.00
H1120  H     0.59212   0.36789   0.60765   0.00000  Uiso   1.00
O1121  O     0.89465   0.15754   0.32059   0.00000  Uiso   1.00
C1122  C     0.92621   0.14171   0.33665   0.00000  Uiso   1.00
H1123  H     0.95072   0.14941   0.31933   0.00000  Uiso   1.00
H1124  H     0.92420   0.11155   0.33797   0.00000  Uiso   1.00
C1125  C     0.93117   0.15560   0.37812   0.00000  Uiso   1.00
H1126  H     0.90690   0.14867   0.39610   0.00000  Uiso   1.00
H1127  H     0.95540   0.14277   0.39148   0.00000  Uiso   1.00
H1128  H     0.93485   0.18560   0.37777   0.00000  Uiso   1.00
O1129  O     0.67191   0.11984   0.68568   0.00000  Uiso   1.00
C1130  C     0.66001   0.09237   0.65961   0.00000  Uiso   1.00
H1131  H     0.63030   0.09379   0.65356   0.00000  Uiso   1.00
H1132  H     0.66559   0.06481   0.67143   0.00000  Uiso   1.00
C1133  C     0.68062   0.09659   0.62122   0.00000  Uiso   1.00
H1134  H     0.71030   0.09381   0.62638   0.00000  Uiso   1.00
H1135  H     0.67185   0.07537   0.60028   0.00000  Uiso   1.00
H1136  H     0.67522   0.12375   0.60823   0.00000  Uiso   1.00
O1137  O     0.82628   0.37867   0.31465   0.00000  Uiso   1.00
C1138  C     0.83595   0.40557   0.34246   0.00000  Uiso   1.00
H1139  H     0.83302   0.43346   0.33031   0.00000  Uiso   1.00
H1140  H     0.86457   0.40274   0.35250   0.00000  Uiso   1.00
C1141  C     0.81092   0.40217   0.37774   0.00000  Uiso   1.00
H1142  H     0.81491   0.37543   0.39226   0.00000  Uiso   1.00
H1143  H     0.81705   0.42417   0.39888   0.00000  Uiso   1.00
H1144  H     0.78210   0.40456   0.36844   0.00000  Uiso   1.00
O1145  O     0.87125   0.32030   0.30707   0.00000  Uiso   1.00
C1146  C     0.89144   0.32402   0.34200   0.00000  Uiso   1.00
H1147  H     0.87911   0.34472   0.36125   0.00000  Uiso   1.00
H1148  H     0.92039   0.33154   0.33625   0.00000  Uiso   1.00
C1149  C     0.89053   0.28797   0.36400   0.00000  Uiso   1.00
H1150  H     0.90017   0.26571   0.34485   0.00000  Uiso   1.00
H1151  H     0.90829   0.28951   0.39016   0.00000  Uiso   1.00
H1152  H     0.86229   0.28167   0.37354   0.00000  Uiso   1.00
O1153  O     0.62754   0.17848   0.69230   0.00000  Uiso   1.00
C1154  C     0.60571   0.17282   0.65887   0.00000  Uiso   1.00
H1155  H     0.57705   0.16590   0.66667   0.00000  Uiso   1.00
H1156  H     0.61694   0.15098   0.64036   0.00000  Uiso   1.00
C1157  C     0.60599   0.20756   0.63450   0.00000  Uiso   1.00
H1158  H     0.63374   0.21270   0.62275   0.00000  Uiso   1.00
H1159  H     0.58675   0.20509   0.60971   0.00000  Uiso   1.00
H1160  H     0.59797   0.23107   0.65278   0.00000  Uiso   1.00
O1161  O     0.84476   0.10231   0.32131   0.00000  Uiso   1.00
C1162  C     0.85856   0.06795   0.33264   0.00000  Uiso   1.00
H1163  H     0.88676   0.06287   0.32191   0.00000  Uiso   1.00
H1164  H     0.84064   0.04591   0.32149   0.00000  Uiso   1.00
C1165  C     0.85883   0.06543   0.37705   0.00000  Uiso   1.00
H1166  H     0.83087   0.06907   0.38870   0.00000  Uiso   1.00
H1167  H     0.86904   0.03838   0.38625   0.00000  Uiso   1.00
H1168  H     0.87687   0.08678   0.38939   0.00000  Uiso   1.00
O1169  O     0.66017   0.39254   0.68016   0.00000  Uiso   1.00
C1170  C     0.64494   0.42363   0.66236   0.00000  Uiso   1.00
H1171  H     0.65409   0.44877   0.67751   0.00000  Uiso   1.00
H1172  H     0.61471   0.42292   0.66232   0.00000  Uiso   1.00
C1173  C     0.65765   0.42555   0.62013   0.00000  Uiso   1.00
H1174  H     0.65003   0.40023   0.60450   0.00000  Uiso   1.00
H1175  H     0.64452   0.44891   0.60540   0.00000  Uiso   1.00
H1176  H     0.68767   0.42893   0.61899   0.00000  Uiso   1.00
O1177  O     0.62040   0.17194   0.31400   0.00000  Uiso   1.00
C1178  C     0.59247   0.16249   0.34074   0.00000  Uiso   1.00
H1179  H     0.59716   0.13552   0.35421   0.00000  Uiso   1.00
H1180  H     0.56524   0.16186   0.32668   0.00000  Uiso   1.00
C1181  C     0.59193   0.19066   0.37321   0.00000  Uiso   1.00
H1182  H     0.58990   0.21840   0.36056   0.00000  Uiso   1.00
H1183  H     0.56831   0.18580   0.39269   0.00000  Uiso   1.00
H1184  H     0.61725   0.18904   0.39074   0.00000  Uiso   1.00
O1185  O     0.87989   0.32884   0.68569   0.00000  Uiso   1.00
C1186  C     0.90657   0.33846   0.65766   0.00000  Uiso   1.00
H1187  H     0.93425   0.33957   0.67074   0.00000  Uiso   1.00
H1188  H     0.90061   0.36512   0.64400   0.00000  Uiso   1.00
C1189  C     0.90639   0.30999   0.62548   0.00000  Uiso   1.00
H1190  H     0.88015   0.31082   0.60946   0.00000  Uiso   1.00
H1191  H     0.92887   0.31534   0.60459   0.00000  Uiso   1.00
H1192  H     0.90987   0.28245   0.63825   0.00000  Uiso   1.00
O1193  O     0.66197   0.39004   0.31939   0.00000  Uiso   1.00
C1194  C     0.64739   0.42003   0.33964   0.00000  Uiso   1.00
H1195  H     0.61733   0.41825   0.34252   0.00000  Uiso   1.00
H1196  H     0.65454   0.44596   0.32457   0.00000  Uiso   1.00
C1197  C     0.66340   0.42081   0.38059   0.00000  Uiso   1.00
H1198  H     0.69324   0.42554   0.37902   0.00000  Uiso   1.00
H1199  H     0.65068   0.44286   0.39776   0.00000  Uiso   1.00
H1200  H     0.65808   0.39452   0.39569   0.00000  Uiso   1.00
O1201  O     0.83118   0.11792   0.68440   0.00000  Uiso   1.00
C1202  C     0.84153   0.09037   0.65813   0.00000  Uiso   1.00
H1203  H     0.84061   0.06305   0.67221   0.00000  Uiso   1.00
H1204  H     0.86924   0.09523   0.64635   0.00000  Uiso   1.00
C1205  C     0.81510   0.09059   0.62402   0.00000  Uiso   1.00
H1206  H     0.81786   0.11644   0.60734   0.00000  Uiso   1.00
H1207  H     0.82100   0.06761   0.60433   0.00000  Uiso   1.00
H1208  H     0.78673   0.08788   0.63482   0.00000  Uiso   1.00
Zn1209 Zn    0.20660   0.50000   0.21735   0.00000  Uiso   1.00
Zn1210 Zn    0.29341   0.50000   0.78265   0.00000  Uiso   1.00
Zn1211 Zn    0.00000   0.70660   0.21735   0.00000  Uiso   1.00
Zn1212 Zn    0.00000   0.79341   0.78265   0.00000  Uiso   1.00
Zn1213 Zn    0.29341   0.50000   0.21735   0.00000  Uiso   1.00
Zn1214 Zn    0.20660   0.50000   0.78265   0.00000  Uiso   1.00
Zn1215 Zn    0.00000   0.79341   0.21735   0.00000  Uiso   1.00
Zn1216 Zn    0.00000   0.70660   0.78265   0.00000  Uiso   1.00
Zn1217 Zn    0.45660   0.75000   0.71735   0.00000  Uiso   1.00
Zn1218 Zn    0.04341   0.75000   0.28265   0.00000  Uiso   1.00
Zn1219 Zn    0.25000   0.95659   0.71735   0.00000  Uiso   1.00
Zn1220 Zn    0.25000   0.54341   0.28265   0.00000  Uiso   1.00
Zn1221 Zn    0.04341   0.75000   0.71735   0.00000  Uiso   1.00
Zn1222 Zn    0.45660   0.75000   0.28265   0.00000  Uiso   1.00
Zn1223 Zn    0.25000   0.54341   0.71735   0.00000  Uiso   1.00
Zn1224 Zn    0.25000   0.95659   0.28265   0.00000  Uiso   1.00
C1225  C     0.49934   0.78266   0.41779   0.00000  Uiso   1.00
C1226  C     0.49978   0.71746   0.58221   0.00000  Uiso   1.00
C1227  C     0.21738   0.99726   0.41804   0.00000  Uiso   1.00
C1228  C     0.28319   0.50311   0.58181   0.00000  Uiso   1.00
C1229  C     0.00004   0.71684   0.41829   0.00000  Uiso   1.00
C1230  C     0.00042   0.78334   0.58172   0.00000  Uiso   1.00
C1231  C     0.28309   0.50204   0.41789   0.00000  Uiso   1.00
C1232  C     0.21754   0.99695   0.58206   0.00000  Uiso   1.00
C1233  C     0.23399   0.52874   0.91792   0.00000  Uiso   1.00
C1234  C     0.26666   0.97205   0.08204   0.00000  Uiso   1.00
C1235  C     0.46752   0.75680   0.91823   0.00000  Uiso   1.00
C1236  C     0.03252   0.74311   0.08182   0.00000  Uiso   1.00
C1237  C     0.26577   0.97120   0.91830   0.00000  Uiso   1.00
C1238  C     0.23496   0.52967   0.08185   0.00000  Uiso   1.00
C1239  C     0.03167   0.74192   0.91796   0.00000  Uiso   1.00
C1240  C     0.46846   0.75808   0.08215   0.00000  Uiso   1.00
C1241  C     0.49988   0.74972   0.39801   0.00000  Uiso   1.00
C1242  C     0.00009   0.75042   0.60199   0.00000  Uiso   1.00
C1243  C     0.25022   0.99975   0.39795   0.00000  Uiso   1.00
C1244  C     0.25037   0.50011   0.60196   0.00000  Uiso   1.00
C1245  C     0.24982   0.99985   0.89806   0.00000  Uiso   1.00
C1246  C     0.25031   0.50055   0.10198   0.00000  Uiso   1.00
C1247  C     0.49963   0.74962   0.89804   0.00000  Uiso   1.00
C1248  C     0.00044   0.75025   0.10201   0.00000  Uiso   1.00
O1249  O     0.25000   0.50000   0.25000   0.00000  Uiso   1.00
O1250  O     0.25000   0.50000   0.75000   0.00000  Uiso   1.00
O1251  O     0.00000   0.75000   0.25000   0.00000  Uiso   1.00
O1252  O     0.00000   0.75000   0.75000   0.00000  Uiso   1.00
O1253  O     0.25000   0.96963   0.33755   0.00000  Uiso   1.00
O1254  O     0.25000   0.53037   0.66245   0.00000  Uiso   1.00
O1255  O     0.03037   0.75000   0.33755   0.00000  Uiso   1.00
O1256  O     0.46964   0.75000   0.66245   0.00000  Uiso   1.00
O1257  O     0.25000   0.53037   0.33755   0.00000  Uiso   1.00
O1258  O     0.25000   0.96963   0.66245   0.00000  Uiso   1.00
O1259  O     0.46964   0.75000   0.33755   0.00000  Uiso   1.00
O1260  O     0.03037   0.75000   0.66245   0.00000  Uiso   1.00
O1261  O     0.00000   0.71964   0.83755   0.00000  Uiso   1.00
O1262  O     0.00000   0.78036   0.16245   0.00000  Uiso   1.00
O1263  O     0.28037   0.50000   0.83755   0.00000  Uiso   1.00
O1264  O     0.21964   0.50000   0.16245   0.00000  Uiso   1.00
O1265  O     0.00000   0.78037   0.83755   0.00000  Uiso   1.00
O1266  O     0.00000   0.71964   0.16245   0.00000  Uiso   1.00
O1267  O     0.21964   0.50000   0.83755   0.00000  Uiso   1.00
O1268  O     0.28037   0.50000   0.16245   0.00000  Uiso   1.00
O1269  O     0.20725   0.57308   0.27302   0.00000  Uiso   1.00
O1270  O     0.29276   0.92692   0.72698   0.00000  Uiso   1.00
O1271  O     0.42693   0.70725   0.27302   0.00000  Uiso   1.00
O1272  O     0.07308   0.79275   0.72698   0.00000  Uiso   1.00
O1273  O     0.29276   0.92692   0.27302   0.00000  Uiso   1.00
O1274  O     0.20725   0.57308   0.72698   0.00000  Uiso   1.00
O1275  O     0.07308   0.79275   0.27302   0.00000  Uiso   1.00
O1276  O     0.42693   0.70725   0.72698   0.00000  Uiso   1.00
O1277  O     0.20725   0.92692   0.72698   0.00000  Uiso   1.00
O1278  O     0.29276   0.57308   0.27302   0.00000  Uiso   1.00
O1279  O     0.42693   0.79275   0.72698   0.00000  Uiso   1.00
O1280  O     0.07308   0.70724   0.27302   0.00000  Uiso   1.00
O1281  O     0.29276   0.57308   0.72698   0.00000  Uiso   1.00
O1282  O     0.20725   0.92692   0.27302   0.00000  Uiso   1.00
O1283  O     0.07308   0.70724   0.72698   0.00000  Uiso   1.00
O1284  O     0.42693   0.79275   0.27302   0.00000  Uiso   1.00
O1285  O     0.45725   0.82307   0.77302   0.00000  Uiso   1.00
O1286  O     0.04276   0.67692   0.22698   0.00000  Uiso   1.00
O1287  O     0.17693   0.95724   0.77302   0.00000  Uiso   1.00
O1288  O     0.32308   0.54276   0.22698   0.00000  Uiso   1.00
O1289  O     0.04276   0.67692   0.77302   0.00000  Uiso   1.00
O1290  O     0.45725   0.82307   0.22698   0.00000  Uiso   1.00
O1291  O     0.32308   0.54276   0.77302   0.00000  Uiso   1.00
O1292  O     0.17693   0.95724   0.22698   0.00000  Uiso   1.00
O1293  O     0.45725   0.67693   0.22698   0.00000  Uiso   1.00
O1294  O     0.04276   0.82307   0.77302   0.00000  Uiso   1.00
O1295  O     0.17693   0.54276   0.22698   0.00000  Uiso   1.00
O1296  O     0.32308   0.95724   0.77302   0.00000  Uiso   1.00
O1297  O     0.04276   0.82307   0.22698   0.00000  Uiso   1.00
O1298  O     0.45725   0.67693   0.77302   0.00000  Uiso   1.00
O1299  O     0.32308   0.95724   0.22698   0.00000  Uiso   1.00
O1300  O     0.17693   0.54276   0.77302   0.00000  Uiso   1.00
C1301  C     0.00177   0.68326   0.47989   0.00000  Uiso   1.00
C1302  C     0.49779   0.81690   0.52009   0.00000  Uiso   1.00
C1303  C     0.31667   0.50416   0.47914   0.00000  Uiso   1.00
C1304  C     0.18363   0.99419   0.52066   0.00000  Uiso   1.00
C1305  C     0.49532   0.81668   0.47900   0.00000  Uiso   1.00
C1306  C     0.00335   0.68342   0.52099   0.00000  Uiso   1.00
C1307  C     0.18356   0.99506   0.47962   0.00000  Uiso   1.00
C1308  C     0.31669   0.50656   0.52027   0.00000  Uiso   1.00
C1309  C     0.28007   0.94122   0.97999   0.00000  Uiso   1.00
C1310  C     0.22174   0.56075   0.02024   0.00000  Uiso   1.00
C1311  C     0.06447   0.73376   0.97925   0.00000  Uiso   1.00
C1312  C     0.43576   0.76803   0.02085   0.00000  Uiso   1.00
C1313  C     0.22252   0.56112   0.97918   0.00000  Uiso   1.00
C1314  C     0.28232   0.94238   0.02077   0.00000  Uiso   1.00
C1315  C     0.43498   0.76530   0.97978   0.00000  Uiso   1.00
C1316  C     0.06520   0.73616   0.02024   0.00000  Uiso   1.00
C1317  C     0.25014   0.99992   0.35576   0.00000  Uiso   1.00
C1318  C     0.25027   0.50004   0.64422   0.00000  Uiso   1.00
C1319  C     0.49997   0.74975   0.35577   0.00000  Uiso   1.00
C1320  C     0.00002   0.75034   0.64422   0.00000  Uiso   1.00
C1321  C     0.49975   0.74991   0.85579   0.00000  Uiso   1.00
C1322  C     0.00031   0.75005   0.14423   0.00000  Uiso   1.00
C1323  C     0.24994   0.99980   0.85579   0.00000  Uiso   1.00
C1324  C     0.25005   0.50021   0.14422   0.00000  Uiso   1.00
C1325  C     0.17978   0.56992   0.25015   0.00000  Uiso   1.00
C1326  C     0.32015   0.93010   0.74992   0.00000  Uiso   1.00
C1327  C     0.42997   0.68000   0.25006   0.00000  Uiso   1.00
C1328  C     0.07000   0.81997   0.75003   0.00000  Uiso   1.00
C1329  C     0.32093   0.93074   0.25118   0.00000  Uiso   1.00
C1330  C     0.17989   0.57001   0.74994   0.00000  Uiso   1.00
C1331  C     0.06983   0.82019   0.25012   0.00000  Uiso   1.00
C1332  C     0.43012   0.67989   0.74996   0.00000  Uiso   1.00
C1333  C     0.18002   0.92993   0.75007   0.00000  Uiso   1.00
C1334  C     0.32006   0.56993   0.25004   0.00000  Uiso   1.00
C1335  C     0.43007   0.82023   0.74979   0.00000  Uiso   1.00
C1336  C     0.07025   0.68019   0.24982   0.00000  Uiso   1.00
C1337  C     0.31977   0.57032   0.75023   0.00000  Uiso   1.00
C1338  C     0.18005   0.92991   0.25006   0.00000  Uiso   1.00
C1339  C     0.07011   0.67990   0.74999   0.00000  Uiso   1.00
C1340  C     0.43044   0.82070   0.25093   0.00000  Uiso   1.00
C1341  C     0.13530   0.89181   0.21450   0.00000  Uiso   1.00
C1342  C     0.36649   0.60660   0.78530   0.00000  Uiso   1.00
C1343  C     0.10368   0.63064   0.21631   0.00000  Uiso   1.00
C1344  C     0.39872   0.87209   0.78200   0.00000  Uiso   1.00
C1345  C     0.36312   0.61005   0.21428   0.00000  Uiso   1.00
C1346  C     0.13539   0.89124   0.78573   0.00000  Uiso   1.00
C1347  C     0.40889   0.88204   0.23036   0.00000  Uiso   1.00
C1348  C     0.09992   0.62639   0.78114   0.00000  Uiso   1.00
C1349  C     0.12769   0.60077   0.78186   0.00000  Uiso   1.00
C1350  C     0.38126   0.90788   0.22865   0.00000  Uiso   1.00
C1351  C     0.10844   0.86433   0.78569   0.00000  Uiso   1.00
C1352  C     0.39022   0.63683   0.21429   0.00000  Uiso   1.00
C1353  C     0.37098   0.89778   0.78259   0.00000  Uiso   1.00
C1354  C     0.12882   0.60232   0.21720   0.00000  Uiso   1.00
C1355  C     0.39347   0.63343   0.78528   0.00000  Uiso   1.00
C1356  C     0.10778   0.86553   0.21468   0.00000  Uiso   1.00
C1357  C     0.38331   0.64390   0.71526   0.00000  Uiso   1.00
C1358  C     0.11465   0.85820   0.28560   0.00000  Uiso   1.00
C1359  C     0.35479   0.88189   0.71535   0.00000  Uiso   1.00
C1360  C     0.14780   0.62099   0.28279   0.00000  Uiso   1.00
C1361  C     0.11444   0.85867   0.71452   0.00000  Uiso   1.00
C1362  C     0.38613   0.64052   0.28570   0.00000  Uiso   1.00
C1363  C     0.14841   0.62159   0.71734   0.00000  Uiso   1.00
C1364  C     0.35179   0.87879   0.28479   0.00000  Uiso   1.00
C1365  C     0.37691   0.85042   0.28327   0.00000  Uiso   1.00
C1366  C     0.12340   0.64994   0.71862   0.00000  Uiso   1.00
C1367  C     0.35983   0.61296   0.28582   0.00000  Uiso   1.00
C1368  C     0.14195   0.88498   0.71473   0.00000  Uiso   1.00
C1369  C     0.12094   0.64766   0.28308   0.00000  Uiso   1.00
C1370  C     0.38005   0.85365   0.71610   0.00000  Uiso   1.00
C1371  C     0.14249   0.88417   0.28533   0.00000  Uiso   1.00
C1372  C     0.35473   0.61887   0.71593   0.00000  Uiso   1.00
C1373  C     0.00039   0.71647   0.45919   0.00000  Uiso   1.00
C1374  C     0.49954   0.78370   0.54080   0.00000  Uiso   1.00
C1375  C     0.28347   0.50263   0.45878   0.00000  Uiso   1.00
C1376  C     0.21680   0.99757   0.54118   0.00000  Uiso   1.00
C1377  C     0.49796   0.78332   0.45869   0.00000  Uiso   1.00
C1378  C     0.00123   0.71677   0.54134   0.00000  Uiso   1.00
C1379  C     0.21676   0.99798   0.45896   0.00000  Uiso   1.00
C1380  C     0.28355   0.50369   0.54091   0.00000  Uiso   1.00
C1381  C     0.26595   0.97103   0.95915   0.00000  Uiso   1.00
C1382  C     0.23603   0.53082   0.04095   0.00000  Uiso   1.00
C1383  C     0.03231   0.74221   0.95882   0.00000  Uiso   1.00
C1384  C     0.46807   0.75962   0.04126   0.00000  Uiso   1.00
C1385  C     0.23605   0.53069   0.95872   0.00000  Uiso   1.00
C1386  C     0.26718   0.97185   0.04121   0.00000  Uiso   1.00
C1387  C     0.46731   0.75773   0.95914   0.00000  Uiso   1.00
C1388  C     0.03294   0.74360   0.04092   0.00000  Uiso   1.00
H1389  H     0.49976   0.80761   0.40089   0.00000  Uiso   1.00
H1390  H     0.49853   0.69251   0.59910   0.00000  Uiso   1.00
H1391  H     0.19248   0.99498   0.40137   0.00000  Uiso   1.00
H1392  H     0.30832   0.50458   0.59827   0.00000  Uiso   1.00
H1393  H     0.00065   0.69176   0.40189   0.00000  Uiso   1.00
H1394  H     0.00044   0.80846   0.59813   0.00000  Uiso   1.00
H1395  H     0.30820   0.50320   0.40127   0.00000  Uiso   1.00
H1396  H     0.19283   0.99421   0.59893   0.00000  Uiso   1.00
H1397  H     0.22066   0.54974   0.90112   0.00000  Uiso   1.00
H1398  H     0.27821   0.94976   0.09863   0.00000  Uiso   1.00
H1399  H     0.44292   0.76196   0.90177   0.00000  Uiso   1.00
H1400  H     0.05696   0.73718   0.09825   0.00000  Uiso   1.00
H1401  H     0.27723   0.94881   0.90198   0.00000  Uiso   1.00
H1402  H     0.22319   0.55171   0.09840   0.00000  Uiso   1.00
H1403  H     0.05606   0.73604   0.90133   0.00000  Uiso   1.00
H1404  H     0.44390   0.76248   0.09899   0.00000  Uiso   1.00
C1405  C     0.09760   0.84852   0.25018   0.00000  Uiso   1.00
C1406  C     0.40220   0.65177   0.75011   0.00000  Uiso   1.00
C1407  C     0.15160   0.59793   0.25012   0.00000  Uiso   1.00
C1408  C     0.34889   0.90280   0.74931   0.00000  Uiso   1.00
C1409  C     0.40173   0.65207   0.25002   0.00000  Uiso   1.00
C1410  C     0.09795   0.84807   0.75006   0.00000  Uiso   1.00
C1411  C     0.35160   0.90542   0.25483   0.00000  Uiso   1.00
C1412  C     0.15161   0.59776   0.74966   0.00000  Uiso   1.00
C1413  C     0.09819   0.65178   0.74996   0.00000  Uiso   1.00
C1414  C     0.40475   0.85107   0.25454   0.00000  Uiso   1.00
C1415  C     0.15212   0.90166   0.75021   0.00000  Uiso   1.00
C1416  C     0.34814   0.59789   0.25006   0.00000  Uiso   1.00
C1417  C     0.40244   0.84883   0.74936   0.00000  Uiso   1.00
C1418  C     0.09869   0.65254   0.24974   0.00000  Uiso   1.00
C1419  C     0.34729   0.59900   0.75051   0.00000  Uiso   1.00
C1420  C     0.15236   0.90149   0.24994   0.00000  Uiso   1.00
C1421  C     0.49958   0.74999   0.47951   0.00000  Uiso   1.00
C1422  C     0.00001   0.75015   0.52051   0.00000  Uiso   1.00
C1423  C     0.25008   0.50092   0.47945   0.00000  Uiso   1.00
C1424  C     0.25011   0.50105   0.52047   0.00000  Uiso   1.00
C1425  C     0.25152   0.50121   0.97948   0.00000  Uiso   1.00
C1426  C     0.25178   0.50142   0.02051   0.00000  Uiso   1.00
C1427  C     0.00010   0.75092   0.97952   0.00000  Uiso   1.00
C1428  C     0.00040   0.75154   0.02052   0.00000  Uiso   1.00
O1429  O     0.49759   0.65067   0.46004   0.00000  Uiso   1.00
C1430  C     0.03182   0.63430   0.45386   0.00000  Uiso   1.00
H1431  H     0.03709   0.61453   0.47772   0.00000  Uiso   1.00
H1432  H     0.05484   0.65420   0.45237   0.00000  Uiso   1.00
C1433  C     0.03098   0.61311   0.41570   0.00000  Uiso   1.00
H1434  H     0.02550   0.63161   0.39073   0.00000  Uiso   1.00
H1435  H     0.05765   0.59982   0.41090   0.00000  Uiso   1.00
H1436  H     0.00939   0.59187   0.41692   0.00000  Uiso   1.00
O1437  O     0.00239   0.84944   0.53994   0.00000  Uiso   1.00
C1438  C     0.46861   0.86706   0.54477   0.00000  Uiso   1.00
H1439  H     0.44474   0.84813   0.54440   0.00000  Uiso   1.00
H1440  H     0.46542   0.88766   0.52128   0.00000  Uiso   1.00
C1441  C     0.46850   0.88725   0.58356   0.00000  Uiso   1.00
H1442  H     0.49081   0.90776   0.58402   0.00000  Uiso   1.00
H1443  H     0.44213   0.90135   0.58750   0.00000  Uiso   1.00
H1444  H     0.47234   0.86793   0.60818   0.00000  Uiso   1.00
O1445  O     0.34909   0.50418   0.45848   0.00000  Uiso   1.00
C1446  C     0.36498   0.96938   0.46130   0.00000  Uiso   1.00
H1447  H     0.34455   0.94701   0.45813   0.00000  Uiso   1.00
H1448  H     0.37903   0.96631   0.48986   0.00000  Uiso   1.00
C1449  C     0.39296   0.96528   0.42887   0.00000  Uiso   1.00
H1450  H     0.41405   0.98692   0.43121   0.00000  Uiso   1.00
H1451  H     0.40619   0.93837   0.43144   0.00000  Uiso   1.00
H1452  H     0.37951   0.96725   0.39989   0.00000  Uiso   1.00
O1453  O     0.15170   0.98499   0.53994   0.00000  Uiso   1.00
C1454  C     0.13355   0.51659   0.55280   0.00000  Uiso   1.00
H1455  H     0.14044   0.54161   0.53571   0.00000  Uiso   1.00
H1456  H     0.14030   0.52170   0.58388   0.00000  Uiso   1.00
C1457  C     0.09273   0.50998   0.55050   0.00000  Uiso   1.00
H1458  H     0.08508   0.98596   0.56859   0.00000  Uiso   1.00
H1459  H     0.07804   0.53405   0.56167   0.00000  Uiso   1.00
H1460  H     0.08447   0.50497   0.51976   0.00000  Uiso   1.00
O1461  O     0.49336   0.84944   0.45892   0.00000  Uiso   1.00
C1462  C     0.45771   0.85414   0.44393   0.00000  Uiso   1.00
H1463  H     0.43954   0.86527   0.46682   0.00000  Uiso   1.00
H1464  H     0.44496   0.82851   0.43320   0.00000  Uiso   1.00
C1465  C     0.45902   0.88083   0.40985   0.00000  Uiso   1.00
H1466  H     0.47658   0.87010   0.38615   0.00000  Uiso   1.00
H1467  H     0.43121   0.88477   0.39800   0.00000  Uiso   1.00
H1468  H     0.47002   0.90745   0.41973   0.00000  Uiso   1.00
O1469  O     0.00441   0.65057   0.54089   0.00000  Uiso   1.00
C1470  C     0.04044   0.64418   0.55368   0.00000  Uiso   1.00
H1471  H     0.04846   0.66333   0.57714   0.00000  Uiso   1.00
H1472  H     0.06055   0.64698   0.52946   0.00000  Uiso   1.00
C1473  C     0.04283   0.60588   0.57026   0.00000  Uiso   1.00
H1474  H     0.03555   0.58576   0.54739   0.00000  Uiso   1.00
H1475  H     0.07098   0.60064   0.58048   0.00000  Uiso   1.00
H1476  H     0.02385   0.60276   0.59538   0.00000  Uiso   1.00
O1477  O     0.15115   0.98916   0.45996   0.00000  Uiso   1.00
C1478  C     0.13709   0.52290   0.44725   0.00000  Uiso   1.00
H1479  H     0.15860   0.54148   0.43572   0.00000  Uiso   1.00
H1480  H     0.12300   0.53671   0.47167   0.00000  Uiso   1.00
C1481  C     0.10961   0.51641   0.41478   0.00000  Uiso   1.00
H1482  H     0.08764   0.99790   0.42523   0.00000  Uiso   1.00
H1483  H     0.09741   0.54265   0.40569   0.00000  Uiso   1.00
H1484  H     0.12321   0.50411   0.38905   0.00000  Uiso   1.00
O1485  O     0.34919   0.50867   0.54067   0.00000  Uiso   1.00
C1486  C     0.36453   0.54377   0.53595   0.00000  Uiso   1.00
H1487  H     0.34404   0.56554   0.54067   0.00000  Uiso   1.00
H1488  H     0.37643   0.54709   0.50626   0.00000  Uiso   1.00
C1489  C     0.39498   0.54879   0.56555   0.00000  Uiso   1.00
H1490  H     0.41699   0.52894   0.55982   0.00000  Uiso   1.00
H1491  H     0.40635   0.57677   0.56325   0.00000  Uiso   1.00
H1492  H     0.38445   0.54442   0.59566   0.00000  Uiso   1.00
O1493  O     0.29318   0.91106   0.96070   0.00000  Uiso   1.00
C1494  C     0.26482   0.88542   0.95496   0.00000  Uiso   1.00
H1495  H     0.26016   0.88278   0.92304   0.00000  Uiso   1.00
H1496  H     0.23826   0.89265   0.96881   0.00000  Uiso   1.00
C1497  C     0.27655   0.84856   0.97072   0.00000  Uiso   1.00
H1498  H     0.28028   0.84992   0.00288   0.00000  Uiso   1.00
H1499  H     0.25543   0.82778   0.96407   0.00000  Uiso   1.00
H1500  H     0.30256   0.84035   0.95694   0.00000  Uiso   1.00
O1501  O     0.20390   0.58827   0.03990   0.00000  Uiso   1.00
C1502  C     0.22901   0.61597   0.04981   0.00000  Uiso   1.00
H1503  H     0.23311   0.63450   0.02455   0.00000  Uiso   1.00
H1504  H     0.25591   0.60507   0.05906   0.00000  Uiso   1.00
C1505  C     0.21360   0.63824   0.08332   0.00000  Uiso   1.00
H1506  H     0.21129   0.62111   0.11001   0.00000  Uiso   1.00
H1507  H     0.23195   0.66159   0.08961   0.00000  Uiso   1.00
H1508  H     0.18629   0.64878   0.07548   0.00000  Uiso   1.00
O1509  O     0.09590   0.72467   0.95925   0.00000  Uiso   1.00
C1510  C     0.09654   0.68674   0.95205   0.00000  Uiso   1.00
H1511  H     0.10644   0.68275   0.92167   0.00000  Uiso   1.00
H1512  H     0.06942   0.67299   0.95405   0.00000  Uiso   1.00
C1513  C     0.12308   0.66800   0.97964   0.00000  Uiso   1.00
H1514  H     0.11124   0.66594   0.00944   0.00000  Uiso   1.00
H1515  H     0.12877   0.64009   0.96902   0.00000  Uiso   1.00
H1516  H     0.14901   0.68357   0.98098   0.00000  Uiso   1.00
O1517  O     0.40386   0.77537   0.04084   0.00000  Uiso   1.00
C1518  C     0.40460   0.81199   0.05359   0.00000  Uiso   1.00
H1519  H     0.40643   0.83118   0.02845   0.00000  Uiso   1.00
H1520  H     0.42803   0.81771   0.07318   0.00000  Uiso   1.00
C1521  C     0.36994   0.81976   0.07630   0.00000  Uiso   1.00
H1522  H     0.36743   0.80067   0.10143   0.00000  Uiso   1.00
H1523  H     0.37073   0.84800   0.08762   0.00000  Uiso   1.00
H1524  H     0.34589   0.81648   0.05698   0.00000  Uiso   1.00
O1525  O     0.20751   0.59052   0.95975   0.00000  Uiso   1.00
C1526  C     0.23563   0.61329   0.94512   0.00000  Uiso   1.00
H1527  H     0.24649   0.60242   0.91729   0.00000  Uiso   1.00
H1528  H     0.25871   0.61638   0.96600   0.00000  Uiso   1.00
C1529  C     0.22028   0.65081   0.93664   0.00000  Uiso   1.00
H1530  H     0.21044   0.66338   0.96412   0.00000  Uiso   1.00
H1531  H     0.24179   0.66850   0.92376   0.00000  Uiso   1.00
H1532  H     0.19733   0.64869   0.91567   0.00000  Uiso   1.00
O1533  O     0.29685   0.91295   0.04054   0.00000  Uiso   1.00
C1534  C     0.33379   0.92005   0.04953   0.00000  Uiso   1.00
H1535  H     0.33968   0.90690   0.07806   0.00000  Uiso   1.00
H1536  H     0.34035   0.94955   0.05303   0.00000  Uiso   1.00
C1537  C     0.35884   0.90357   0.01880   0.00000  Uiso   1.00
H1538  H     0.35778   0.91968   0.99133   0.00000  Uiso   1.00
H1539  H     0.38729   0.90385   0.02963   0.00000  Uiso   1.00
H1540  H     0.35063   0.87505   0.01264   0.00000  Uiso   1.00
O1541  O     0.40199   0.76462   0.96017   0.00000  Uiso   1.00
C1542  C     0.38843   0.80020   0.95528   0.00000  Uiso   1.00
H1543  H     0.41028   0.82129   0.95287   0.00000  Uiso   1.00
H1544  H     0.37026   0.80692   0.98013   0.00000  Uiso   1.00
C1545  C     0.36560   0.80150   0.91825   0.00000  Uiso   1.00
H1546  H     0.34166   0.78313   0.92127   0.00000  Uiso   1.00
H1547  H     0.35594   0.82966   0.91310   0.00000  Uiso   1.00
H1548  H     0.38199   0.79270   0.89275   0.00000  Uiso   1.00
O1549  O     0.09675   0.72814   0.04043   0.00000  Uiso   1.00
C1550  C     0.12092   0.75806   0.03802   0.00000  Uiso   1.00
H1551  H     0.10723   0.78403   0.04575   0.00000  Uiso   1.00
H1552  H     0.13256   0.76059   0.00810   0.00000  Uiso   1.00
C1553  C     0.15212   0.75206   0.06642   0.00000  Uiso   1.00
H1554  H     0.16710   0.72698   0.05848   0.00000  Uiso   1.00
H1555  H     0.17116   0.77560   0.06527   0.00000  Uiso   1.00
H1556  H     0.14147   0.74913   0.09669   0.00000  Uiso   1.00
O1557  O     0.14419   0.90866   0.17936   0.00000  Uiso   1.00
C1558  C     0.17762   0.89501   0.16506   0.00000  Uiso   1.00
H1559  H     0.18149   0.86555   0.17152   0.00000  Uiso   1.00
H1560  H     0.20082   0.91024   0.17795   0.00000  Uiso   1.00
C1561  C     0.17912   0.90033   0.12095   0.00000  Uiso   1.00
H1562  H     0.17675   0.92969   0.11363   0.00000  Uiso   1.00
H1563  H     0.20539   0.89014   0.10941   0.00000  Uiso   1.00
H1564  H     0.15649   0.88512   0.10688   0.00000  Uiso   1.00
O1565  O     0.35993   0.58746   0.81963   0.00000  Uiso   1.00
C1566  C     0.32803   0.60052   0.83804   0.00000  Uiso   1.00
H1567  H     0.30408   0.58423   0.82868   0.00000  Uiso   1.00
H1568  H     0.32220   0.62964   0.83151   0.00000  Uiso   1.00
C1569  C     0.33200   0.59622   0.88208   0.00000  Uiso   1.00
H1570  H     0.35667   0.61089   0.89230   0.00000  Uiso   1.00
H1571  H     0.30793   0.60772   0.89704   0.00000  Uiso   1.00
H1572  H     0.33429   0.56696   0.88986   0.00000  Uiso   1.00
O1573  O     0.08321   0.63554   0.18267   0.00000  Uiso   1.00
C1574  C     0.09690   0.66580   0.16122   0.00000  Uiso   1.00
H1575  H     0.12699   0.66921   0.16359   0.00000  Uiso   1.00
H1576  H     0.08429   0.69138   0.17153   0.00000  Uiso   1.00
C1577  C     0.08731   0.66119   0.11826   0.00000  Uiso   1.00
H1578  H     0.05732   0.66174   0.11444   0.00000  Uiso   1.00
H1579  H     0.09972   0.68364   0.10098   0.00000  Uiso   1.00
H1580  H     0.09787   0.63497   0.10712   0.00000  Uiso   1.00
O1581  O     0.42492   0.87364   0.81106   0.00000  Uiso   1.00
C1582  C     0.41710   0.84808   0.84088   0.00000  Uiso   1.00
H1583  H     0.41527   0.81985   0.82947   0.00000  Uiso   1.00
H1584  H     0.39123   0.85429   0.85578   0.00000  Uiso   1.00
C1585  C     0.44737   0.84985   0.87108   0.00000  Uiso   1.00
H1586  H     0.44739   0.87684   0.88558   0.00000  Uiso   1.00
H1587  H     0.44330   0.82846   0.89353   0.00000  Uiso   1.00
H1588  H     0.47415   0.84571   0.85678   0.00000  Uiso   1.00
O1589  O     0.35224   0.59546   0.17880   0.00000  Uiso   1.00
C1590  C     0.31793   0.60968   0.16808   0.00000  Uiso   1.00
H1591  H     0.31309   0.63773   0.17927   0.00000  Uiso   1.00
H1592  H     0.29580   0.59174   0.17925   0.00000  Uiso   1.00
C1593  C     0.31518   0.61079   0.12377   0.00000  Uiso   1.00
H1594  H     0.31635   0.58278   0.11176   0.00000  Uiso   1.00
H1595  H     0.28903   0.62338   0.11528   0.00000  Uiso   1.00
H1596  H     0.33784   0.62726   0.11130   0.00000  Uiso   1.00
O1597  O     0.14391   0.90809   0.82078   0.00000  Uiso   1.00
C1598  C     0.17727   0.89462   0.83539   0.00000  Uiso   1.00
H1599  H     0.20027   0.91146   0.82431   0.00000  Uiso   1.00
H1600  H     0.18253   0.86578   0.82726   0.00000  Uiso   1.00
C1601  C     0.17698   0.89722   0.87975   0.00000  Uiso   1.00
H1602  H     0.15383   0.88124   0.89190   0.00000  Uiso   1.00
H1603  H     0.20268   0.88617   0.89164   0.00000  Uiso   1.00
H1604  H     0.17438   0.92607   0.88885   0.00000  Uiso   1.00
O1605  O     0.43888   0.88634   0.20622   0.00000  Uiso   1.00
C1606  C     0.46561   0.90658   0.22645   0.00000  Uiso   1.00
H1607  H     0.47348   0.89275   0.25421   0.00000  Uiso   1.00
H1608  H     0.45568   0.93444   0.23316   0.00000  Uiso   1.00
C1609  C     0.49937   0.91006   0.20089   0.00000  Uiso   1.00
H1610  H     0.49274   0.92499   0.17355   0.00000  Uiso   1.00
H1611  H     0.02096   0.92517   0.21681   0.00000  Uiso   1.00
H1612  H     0.00969   0.88266   0.19327   0.00000  Uiso   1.00
O1613  O     0.07199   0.62286   0.80826   0.00000  Uiso   1.00
C1614  C     0.07773   0.64637   0.84034   0.00000  Uiso   1.00
H1615  H     0.08385   0.67480   0.83099   0.00000  Uiso   1.00
H1616  H     0.10031   0.63680   0.85889   0.00000  Uiso   1.00
C1617  C     0.04346   0.64633   0.86538   0.00000  Uiso   1.00
H1618  H     0.03997   0.61945   0.87987   0.00000  Uiso   1.00
H1619  H     0.04539   0.66768   0.88807   0.00000  Uiso   1.00
H1620  H     0.01923   0.65166   0.84698   0.00000  Uiso   1.00
O1621  O     0.12916   0.57686   0.81320   0.00000  Uiso   1.00
C1622  C     0.15504   0.58945   0.84075   0.00000  Uiso   1.00
H1623  H     0.15614   0.61967   0.84313   0.00000  Uiso   1.00
H1624  H     0.18276   0.58020   0.83279   0.00000  Uiso   1.00
C1625  C     0.14551   0.57366   0.88067   0.00000  Uiso   1.00
H1626  H     0.14936   0.54372   0.88058   0.00000  Uiso   1.00
H1627  H     0.16328   0.58591   0.90320   0.00000  Uiso   1.00
H1628  H     0.11679   0.57964   0.88824   0.00000  Uiso   1.00
O1629  O     0.38587   0.93812   0.20488   0.00000  Uiso   1.00
C1630  C     0.37710   0.92909   0.16591   0.00000  Uiso   1.00
H1631  H     0.34855   0.91899   0.16364   0.00000  Uiso   1.00
H1632  H     0.39580   0.90812   0.15411   0.00000  Uiso   1.00
C1633  C     0.38103   0.96314   0.14083   0.00000  Uiso   1.00
H1634  H     0.40879   0.97481   0.14414   0.00000  Uiso   1.00
H1635  H     0.37677   0.95635   0.10966   0.00000  Uiso   1.00
H1636  H     0.36070   0.98370   0.14987   0.00000  Uiso   1.00
O1637  O     0.09083   0.85597   0.82049   0.00000  Uiso   1.00
C1638  C     0.10593   0.82406   0.83676   0.00000  Uiso   1.00
H1639  H     0.13576   0.82683   0.84096   0.00000  Uiso   1.00
H1640  H     0.10053   0.80002   0.81797   0.00000  Uiso   1.00
C1641  C     0.08871   0.81696   0.87657   0.00000  Uiso   1.00
H1642  H     0.05882   0.81361   0.87350   0.00000  Uiso   1.00
H1643  H     0.10014   0.79180   0.88958   0.00000  Uiso   1.00
H1644  H     0.09438   0.84012   0.89646   0.00000  Uiso   1.00
O1645  O     0.40642   0.64664   0.17914   0.00000  Uiso   1.00
C1646  C     0.39050   0.67904   0.16506   0.00000  Uiso   1.00
H1647  H     0.39650   0.70235   0.18470   0.00000  Uiso   1.00
H1648  H     0.36053   0.67617   0.16210   0.00000  Uiso   1.00
C1649  C     0.40611   0.68784   0.12488   0.00000  Uiso   1.00
H1650  H     0.39986   0.66542   0.10423   0.00000  Uiso   1.00
H1651  H     0.39398   0.71338   0.11356   0.00000  Uiso   1.00
H1652  H     0.43606   0.69137   0.12681   0.00000  Uiso   1.00
O1653  O     0.36760   0.91968   0.81526   0.00000  Uiso   1.00
C1654  C     0.33994   0.90563   0.84004   0.00000  Uiso   1.00
H1655  H     0.33668   0.87548   0.83833   0.00000  Uiso   1.00
H1656  H     0.31330   0.91781   0.83245   0.00000  Uiso   1.00
C1657  C     0.34885   0.91565   0.88207   0.00000  Uiso   1.00
H1658  H     0.34521   0.94530   0.88656   0.00000  Uiso   1.00
H1659  H     0.33058   0.90034   0.90198   0.00000  Uiso   1.00
H1660  H     0.37737   0.90848   0.88920   0.00000  Uiso   1.00
O1661  O     0.12761   0.57653   0.18778   0.00000  Uiso   1.00
C1662  C     0.15199   0.58603   0.15740   0.00000  Uiso   1.00
H1663  H     0.18068   0.58231   0.16671   0.00000  Uiso   1.00
H1664  H     0.14872   0.61454   0.14762   0.00000  Uiso   1.00
C1665  C     0.14445   0.56152   0.12259   0.00000  Uiso   1.00
H1666  H     0.11528   0.56305   0.11440   0.00000  Uiso   1.00
H1667  H     0.16097   0.57043   0.09718   0.00000  Uiso   1.00
H1668  H     0.15128   0.53293   0.12997   0.00000  Uiso   1.00
O1669  O     0.41286   0.63956   0.81940   0.00000  Uiso   1.00
C1670  C     0.39882   0.67047   0.83864   0.00000  Uiso   1.00
H1671  H     0.36931   0.66742   0.84482   0.00000  Uiso   1.00
H1672  H     0.40307   0.69559   0.82099   0.00000  Uiso   1.00
C1673  C     0.41837   0.67530   0.87747   0.00000  Uiso   1.00
H1674  H     0.44802   0.67881   0.87247   0.00000  Uiso   1.00
H1675  H     0.40781   0.69968   0.89271   0.00000  Uiso   1.00
H1676  H     0.41382   0.65105   0.89634   0.00000  Uiso   1.00
O1677  O     0.08925   0.85866   0.18022   0.00000  Uiso   1.00
C1678  C     0.10337   0.82709   0.16252   0.00000  Uiso   1.00
H1679  H     0.09954   0.80271   0.18146   0.00000  Uiso   1.00
H1680  H     0.13277   0.83021   0.15576   0.00000  Uiso   1.00
C1681  C     0.08338   0.82043   0.12435   0.00000  Uiso   1.00
H1682  H     0.08975   0.84249   0.10310   0.00000  Uiso   1.00
H1683  H     0.09198   0.79404   0.11200   0.00000  Uiso   1.00
H1684  H     0.05359   0.81957   0.12952   0.00000  Uiso   1.00
O1685  O     0.39100   0.66195   0.68050   0.00000  Uiso   1.00
C1686  C     0.42276   0.64717   0.66337   0.00000  Uiso   1.00
H1687  H     0.42426   0.61702   0.66656   0.00000  Uiso   1.00
H1688  H     0.44754   0.65916   0.67679   0.00000  Uiso   1.00
C1689  C     0.42334   0.65636   0.61995   0.00000  Uiso   1.00
H1690  H     0.42401   0.68634   0.61579   0.00000  Uiso   1.00
H1691  H     0.44786   0.64446   0.60609   0.00000  Uiso   1.00
H1692  H     0.39875   0.64507   0.60548   0.00000  Uiso   1.00
O1693  O     0.10570   0.84140   0.32076   0.00000  Uiso   1.00
C1694  C     0.07215   0.85491   0.33494   0.00000  Uiso   1.00
H1695  H     0.04914   0.83872   0.32303   0.00000  Uiso   1.00
H1696  H     0.06751   0.88403   0.32732   0.00000  Uiso   1.00
C1697  C     0.07126   0.85118   0.37926   0.00000  Uiso   1.00
H1698  H     0.09402   0.86688   0.39238   0.00000  Uiso   1.00
H1699  H     0.04519   0.86183   0.39080   0.00000  Uiso   1.00
H1700  H     0.07376   0.82212   0.38776   0.00000  Uiso   1.00
O1701  O     0.33498   0.88752   0.68141   0.00000  Uiso   1.00
C1702  C     0.34883   0.91857   0.66149   0.00000  Uiso   1.00
H1703  H     0.37913   0.91988   0.66157   0.00000  Uiso   1.00
H1704  H     0.33862   0.94397   0.67496   0.00000  Uiso   1.00
C1705  C     0.33603   0.91782   0.61921   0.00000  Uiso   1.00
H1706  H     0.30584   0.91828   0.61813   0.00000  Uiso   1.00
H1707  H     0.34683   0.94197   0.60330   0.00000  Uiso   1.00
H1708  H     0.34594   0.89283   0.60459   0.00000  Uiso   1.00
O1709  O     0.17177   0.61934   0.31397   0.00000  Uiso   1.00
C1710  C     0.15930   0.59380   0.34215   0.00000  Uiso   1.00
H1711  H     0.17451   0.56798   0.33898   0.00000  Uiso   1.00
H1712  H     0.12983   0.58676   0.33971   0.00000  Uiso   1.00
C1713  C     0.16663   0.60898   0.38279   0.00000  Uiso   1.00
H1714  H     0.16007   0.63837   0.38380   0.00000  Uiso   1.00
H1715  H     0.14939   0.59483   0.40469   0.00000  Uiso   1.00
H1716  H     0.19574   0.60549   0.39047   0.00000  Uiso   1.00
O1717  O     0.10529   0.84247   0.67925   0.00000  Uiso   1.00
C1718  C     0.07150   0.85594   0.66577   0.00000  Uiso   1.00
H1719  H     0.06704   0.88506   0.67320   0.00000  Uiso   1.00
H1720  H     0.04868   0.83982   0.67839   0.00000  Uiso   1.00
C1721  C     0.06978   0.85207   0.62156   0.00000  Uiso   1.00
H1722  H     0.07230   0.82300   0.61328   0.00000  Uiso   1.00
H1723  H     0.04343   0.86254   0.61066   0.00000  Uiso   1.00
H1724  H     0.09212   0.86789   0.60765   0.00000  Uiso   1.00
O1725  O     0.39465   0.65754   0.32059   0.00000  Uiso   1.00
C1726  C     0.42621   0.64171   0.33665   0.00000  Uiso   1.00
H1727  H     0.45072   0.64941   0.31933   0.00000  Uiso   1.00
H1728  H     0.42420   0.61155   0.33797   0.00000  Uiso   1.00
C1729  C     0.43117   0.65560   0.37812   0.00000  Uiso   1.00
H1730  H     0.40690   0.64867   0.39610   0.00000  Uiso   1.00
H1731  H     0.45540   0.64277   0.39148   0.00000  Uiso   1.00
H1732  H     0.43485   0.68560   0.37777   0.00000  Uiso   1.00
O1733  O     0.17191   0.61984   0.68568   0.00000  Uiso   1.00
C1734  C     0.16001   0.59237   0.65961   0.00000  Uiso   1.00
H1735  H     0.13030   0.59379   0.65356   0.00000  Uiso   1.00
H1736  H     0.16559   0.56481   0.67143   0.00000  Uiso   1.00
C1737  C     0.18062   0.59659   0.62122   0.00000  Uiso   1.00
H1738  H     0.21030   0.59381   0.62638   0.00000  Uiso   1.00
H1739  H     0.17185   0.57537   0.60028   0.00000  Uiso   1.00
H1740  H     0.17522   0.62375   0.60823   0.00000  Uiso   1.00
O1741  O     0.32628   0.87867   0.31465   0.00000  Uiso   1.00
C1742  C     0.33595   0.90557   0.34246   0.00000  Uiso   1.00
H1743  H     0.33302   0.93346   0.33031   0.00000  Uiso   1.00
H1744  H     0.36457   0.90274   0.35250   0.00000  Uiso   1.00
C1745  C     0.31092   0.90217   0.37774   0.00000  Uiso   1.00
H1746  H     0.31491   0.87543   0.39226   0.00000  Uiso   1.00
H1747  H     0.31705   0.92417   0.39888   0.00000  Uiso   1.00
H1748  H     0.28210   0.90456   0.36844   0.00000  Uiso   1.00
O1749  O     0.37125   0.82030   0.30707   0.00000  Uiso   1.00
C1750  C     0.39144   0.82402   0.34200   0.00000  Uiso   1.00
H1751  H     0.37911   0.84472   0.36125   0.00000  Uiso   1.00
H1752  H     0.42039   0.83154   0.33625   0.00000  Uiso   1.00
C1753  C     0.39053   0.78797   0.36400   0.00000  Uiso   1.00
H1754  H     0.40017   0.76571   0.34485   0.00000  Uiso   1.00
H1755  H     0.40829   0.78951   0.39016   0.00000  Uiso   1.00
H1756  H     0.36229   0.78167   0.37354   0.00000  Uiso   1.00
O1757  O     0.12754   0.67848   0.69230   0.00000  Uiso   1.00
C1758  C     0.10571   0.67282   0.65887   0.00000  Uiso   1.00
H1759  H     0.07705   0.66590   0.66667   0.00000  Uiso   1.00
H1760  H     0.11694   0.65098   0.64036   0.00000  Uiso   1.00
C1761  C     0.10599   0.70756   0.63450   0.00000  Uiso   1.00
H1762  H     0.13374   0.71270   0.62275   0.00000  Uiso   1.00
H1763  H     0.08675   0.70509   0.60971   0.00000  Uiso   1.00
H1764  H     0.09797   0.73107   0.65278   0.00000  Uiso   1.00
O1765  O     0.34476   0.60231   0.32131   0.00000  Uiso   1.00
C1766  C     0.35856   0.56795   0.33264   0.00000  Uiso   1.00
H1767  H     0.38676   0.56287   0.32191   0.00000  Uiso   1.00
H1768  H     0.34064   0.54591   0.32149   0.00000  Uiso   1.00
C1769  C     0.35883   0.56543   0.37705   0.00000  Uiso   1.00
H1770  H     0.33087   0.56907   0.38870   0.00000  Uiso   1.00
H1771  H     0.36904   0.53838   0.38625   0.00000  Uiso   1.00
H1772  H     0.37687   0.58678   0.38939   0.00000  Uiso   1.00
O1773  O     0.16017   0.89254   0.68016   0.00000  Uiso   1.00
C1774  C     0.14494   0.92363   0.66236   0.00000  Uiso   1.00
H1775  H     0.15409   0.94877   0.67751   0.00000  Uiso   1.00
H1776  H     0.11471   0.92292   0.66232   0.00000  Uiso   1.00
C1777  C     0.15765   0.92555   0.62013   0.00000  Uiso   1.00
H1778  H     0.15003   0.90023   0.60450   0.00000  Uiso   1.00
H1779  H     0.14452   0.94891   0.60540   0.00000  Uiso   1.00
H1780  H     0.18767   0.92893   0.61899   0.00000  Uiso   1.00
O1781  O     0.12040   0.67194   0.31400   0.00000  Uiso   1.00
C1782  C     0.09247   0.66249   0.34074   0.00000  Uiso   1.00
H1783  H     0.09716   0.63552   0.35421   0.00000  Uiso   1.00
H1784  H     0.06524   0.66186   0.32668   0.00000  Uiso   1.00
C1785  C     0.09193   0.69066   0.37321   0.00000  Uiso   1.00
H1786  H     0.08990   0.71840   0.36056   0.00000  Uiso   1.00
H1787  H     0.06831   0.68580   0.39269   0.00000  Uiso   1.00
H1788  H     0.11725   0.68904   0.39074   0.00000  Uiso   1.00
O1789  O     0.37989   0.82884   0.68569   0.00000  Uiso   1.00
C1790  C     0.40657   0.83846   0.65766   0.00000  Uiso   1.00
H1791  H     0.43425   0.83957   0.67074   0.00000  Uiso   1.00
H1792  H     0.40061   0.86512   0.64400   0.00000  Uiso   1.00
C1793  C     0.40639   0.80999   0.62548   0.00000  Uiso   1.00
H1794  H     0.38015   0.81082   0.60946   0.00000  Uiso   1.00
H1795  H     0.42887   0.81534   0.60459   0.00000  Uiso   1.00
H1796  H     0.40987   0.78245   0.63825   0.00000  Uiso   1.00
O1797  O     0.16197   0.89004   0.31939   0.00000  Uiso   1.00
C1798  C     0.14739   0.92003   0.33964   0.00000  Uiso   1.00
H1799  H     0.11733   0.91825   0.34252   0.00000  Uiso   1.00
H1800  H     0.15454   0.94596   0.32457   0.00000  Uiso   1.00
C1801  C     0.16340   0.92081   0.38059   0.00000  Uiso   1.00
H1802  H     0.19324   0.92554   0.37902   0.00000  Uiso   1.00
H1803  H     0.15068   0.94286   0.39776   0.00000  Uiso   1.00
H1804  H     0.15808   0.89452   0.39569   0.00000  Uiso   1.00
O1805  O     0.33118   0.61792   0.68440   0.00000  Uiso   1.00
C1806  C     0.34153   0.59037   0.65813   0.00000  Uiso   1.00
H1807  H     0.34061   0.56305   0.67221   0.00000  Uiso   1.00
H1808  H     0.36924   0.59523   0.64635   0.00000  Uiso   1.00
C1809  C     0.31510   0.59059   0.62402   0.00000  Uiso   1.00
H1810  H     0.31786   0.61644   0.60734   0.00000  Uiso   1.00
H1811  H     0.32100   0.56761   0.60433   0.00000  Uiso   1.00
H1812  H     0.28673   0.58788   0.63482   0.00000  Uiso   1.00
Zn1813 Zn    0.70660   0.50000   0.21735   0.00000  Uiso   1.00
Zn1814 Zn    0.79341   0.50000   0.78265   0.00000  Uiso   1.00
Zn1815 Zn    0.50000   0.70660   0.21735   0.00000  Uiso   1.00
Zn1816 Zn    0.50000   0.79341   0.78265   0.00000  Uiso   1.00
Zn1817 Zn    0.79341   0.50000   0.21735   0.00000  Uiso   1.00
Zn1818 Zn    0.70660   0.50000   0.78265   0.00000  Uiso   1.00
Zn1819 Zn    0.50000   0.79341   0.21735   0.00000  Uiso   1.00
Zn1820 Zn    0.50000   0.70660   0.78265   0.00000  Uiso   1.00
Zn1821 Zn    0.95660   0.75000   0.71735   0.00000  Uiso   1.00
Zn1822 Zn    0.54341   0.75000   0.28265   0.00000  Uiso   1.00
Zn1823 Zn    0.75000   0.95659   0.71735   0.00000  Uiso   1.00
Zn1824 Zn    0.75000   0.54341   0.28265   0.00000  Uiso   1.00
Zn1825 Zn    0.54341   0.75000   0.71735   0.00000  Uiso   1.00
Zn1826 Zn    0.95660   0.75000   0.28265   0.00000  Uiso   1.00
Zn1827 Zn    0.75000   0.54341   0.71735   0.00000  Uiso   1.00
Zn1828 Zn    0.75000   0.95659   0.28265   0.00000  Uiso   1.00
C1829  C     0.99934   0.78266   0.41779   0.00000  Uiso   1.00
C1830  C     0.99978   0.71746   0.58221   0.00000  Uiso   1.00
C1831  C     0.71738   0.99726   0.41804   0.00000  Uiso   1.00
C1832  C     0.78319   0.50311   0.58181   0.00000  Uiso   1.00
C1833  C     0.50004   0.71684   0.41829   0.00000  Uiso   1.00
C1834  C     0.50042   0.78334   0.58172   0.00000  Uiso   1.00
C1835  C     0.78309   0.50204   0.41789   0.00000  Uiso   1.00
C1836  C     0.71754   0.99695   0.58206   0.00000  Uiso   1.00
C1837  C     0.73399   0.52874   0.91792   0.00000  Uiso   1.00
C1838  C     0.76666   0.97205   0.08204   0.00000  Uiso   1.00
C1839  C     0.96752   0.75680   0.91823   0.00000  Uiso   1.00
C1840  C     0.53252   0.74311   0.08182   0.00000  Uiso   1.00
C1841  C     0.76577   0.97120   0.91830   0.00000  Uiso   1.00
C1842  C     0.73496   0.52967   0.08185   0.00000  Uiso   1.00
C1843  C     0.53167   0.74192   0.91796   0.00000  Uiso   1.00
C1844  C     0.96846   0.75808   0.08215   0.00000  Uiso   1.00
C1845  C     0.99988   0.74972   0.39801   0.00000  Uiso   1.00
C1846  C     0.50009   0.75042   0.60199   0.00000  Uiso   1.00
C1847  C     0.75022   0.99975   0.39795   0.00000  Uiso   1.00
C1848  C     0.75037   0.50011   0.60196   0.00000  Uiso   1.00
C1849  C     0.74982   0.99985   0.89806   0.00000  Uiso   1.00
C1850  C     0.75031   0.50055   0.10198   0.00000  Uiso   1.00
C1851  C     0.99963   0.74962   0.89804   0.00000  Uiso   1.00
C1852  C     0.50044   0.75025   0.10201   0.00000  Uiso   1.00
O1853  O     0.75000   0.50000   0.25000   0.00000  Uiso   1.00
O1854  O     0.75000   0.50000   0.75000   0.00000  Uiso   1.00
O1855  O     0.50000   0.75000   0.25000   0.00000  Uiso   1.00
O1856  O     0.50000   0.75000   0.75000   0.00000  Uiso   1.00
O1857  O     0.75000   0.96963   0.33755   0.00000  Uiso   1.00
O1858  O     0.75000   0.53037   0.66245   0.00000  Uiso   1.00
O1859  O     0.53037   0.75000   0.33755   0.00000  Uiso   1.00
O1860  O     0.96964   0.75000   0.66245   0.00000  Uiso   1.00
O1861  O     0.75000   0.53037   0.33755   0.00000  Uiso   1.00
O1862  O     0.75000   0.96963   0.66245   0.00000  Uiso   1.00
O1863  O     0.96964   0.75000   0.33755   0.00000  Uiso   1.00
O1864  O     0.53037   0.75000   0.66245   0.00000  Uiso   1.00
O1865  O     0.50000   0.71964   0.83755   0.00000  Uiso   1.00
O1866  O     0.50000   0.78036   0.16245   0.00000  Uiso   1.00
O1867  O     0.78037   0.50000   0.83755   0.00000  Uiso   1.00
O1868  O     0.71964   0.50000   0.16245   0.00000  Uiso   1.00
O1869  O     0.50000   0.78037   0.83755   0.00000  Uiso   1.00
O1870  O     0.50000   0.71964   0.16245   0.00000  Uiso   1.00
O1871  O     0.71964   0.50000   0.83755   0.00000  Uiso   1.00
O1872  O     0.78037   0.50000   0.16245   0.00000  Uiso   1.00
O1873  O     0.70725   0.57308   0.27302   0.00000  Uiso   1.00
O1874  O     0.79276   0.92692   0.72698   0.00000  Uiso   1.00
O1875  O     0.92693   0.70725   0.27302   0.00000  Uiso   1.00
O1876  O     0.57308   0.79275   0.72698   0.00000  Uiso   1.00
O1877  O     0.79276   0.92692   0.27302   0.00000  Uiso   1.00
O1878  O     0.70725   0.57308   0.72698   0.00000  Uiso   1.00
O1879  O     0.57308   0.79275   0.27302   0.00000  Uiso   1.00
O1880  O     0.92693   0.70725   0.72698   0.00000  Uiso   1.00
O1881  O     0.70725   0.92692   0.72698   0.00000  Uiso   1.00
O1882  O     0.79276   0.57308   0.27302   0.00000  Uiso   1.00
O1883  O     0.92693   0.79275   0.72698   0.00000  Uiso   1.00
O1884  O     0.57308   0.70724   0.27302   0.00000  Uiso   1.00
O1885  O     0.79276   0.57308   0.72698   0.00000  Uiso   1.00
O1886  O     0.70725   0.92692   0.27302   0.00000  Uiso   1.00
O1887  O     0.57308   0.70724   0.72698   0.00000  Uiso   1.00
O1888  O     0.92693   0.79275   0.27302   0.00000  Uiso   1.00
O1889  O     0.95725   0.82307   0.77302   0.00000  Uiso   1.00
O1890  O     0.54276   0.67692   0.22698   0.00000  Uiso   1.00
O1891  O     0.67693   0.95724   0.77302   0.00000  Uiso   1.00
O1892  O     0.82308   0.54276   0.22698   0.00000  Uiso   1.00
O1893  O     0.54276   0.67692   0.77302   0.00000  Uiso   1.00
O1894  O     0.95725   0.82307   0.22698   0.00000  Uiso   1.00
O1895  O     0.82308   0.54276   0.77302   0.00000  Uiso   1.00
O1896  O     0.67693   0.95724   0.22698   0.00000  Uiso   1.00
O1897  O     0.95725   0.67693   0.22698   0.00000  Uiso   1.00
O1898  O     0.54276   0.82307   0.77302   0.00000  Uiso   1.00
O1899  O     0.67693   0.54276   0.22698   0.00000  Uiso   1.00
O1900  O     0.82308   0.95724   0.77302   0.00000  Uiso   1.00
O1901  O     0.54276   0.82307   0.22698   0.00000  Uiso   1.00
O1902  O     0.95725   0.67693   0.77302   0.00000  Uiso   1.00
O1903  O     0.82308   0.95724   0.22698   0.00000  Uiso   1.00
O1904  O     0.67693   0.54276   0.77302   0.00000  Uiso   1.00
C1905  C     0.50177   0.68326   0.47989   0.00000  Uiso   1.00
C1906  C     0.99779   0.81690   0.52009   0.00000  Uiso   1.00
C1907  C     0.81667   0.50416   0.47914   0.00000  Uiso   1.00
C1908  C     0.68363   0.99419   0.52066   0.00000  Uiso   1.00
C1909  C     0.99532   0.81668   0.47900   0.00000  Uiso   1.00
C1910  C     0.50335   0.68342   0.52099   0.00000  Uiso   1.00
C1911  C     0.68356   0.99506   0.47962   0.00000  Uiso   1.00
C1912  C     0.81669   0.50656   0.52027   0.00000  Uiso   1.00
C1913  C     0.78007   0.94122   0.97999   0.00000  Uiso   1.00
C1914  C     0.72174   0.56075   0.02024   0.00000  Uiso   1.00
C1915  C     0.56447   0.73376   0.97925   0.00000  Uiso   1.00
C1916  C     0.93576   0.76803   0.02085   0.00000  Uiso   1.00
C1917  C     0.72252   0.56112   0.97918   0.00000  Uiso   1.00
C1918  C     0.78232   0.94238   0.02077   0.00000  Uiso   1.00
C1919  C     0.93498   0.76530   0.97978   0.00000  Uiso   1.00
C1920  C     0.56520   0.73616   0.02024   0.00000  Uiso   1.00
C1921  C     0.75014   0.99992   0.35576   0.00000  Uiso   1.00
C1922  C     0.75027   0.50004   0.64422   0.00000  Uiso   1.00
C1923  C     0.99997   0.74975   0.35577   0.00000  Uiso   1.00
C1924  C     0.50002   0.75034   0.64422   0.00000  Uiso   1.00
C1925  C     0.99975   0.74991   0.85579   0.00000  Uiso   1.00
C1926  C     0.50031   0.75005   0.14423   0.00000  Uiso   1.00
C1927  C     0.74994   0.99980   0.85579   0.00000  Uiso   1.00
C1928  C     0.75005   0.50021   0.14422   0.00000  Uiso   1.00
C1929  C     0.67978   0.56992   0.25015   0.00000  Uiso   1.00
C1930  C     0.82015   0.93010   0.74992   0.00000  Uiso   1.00
C1931  C     0.92997   0.68000   0.25006   0.00000  Uiso   1.00
C1932  C     0.57000   0.81997   0.75003   0.00000  Uiso   1.00
C1933  C     0.82093   0.93074   0.25118   0.00000  Uiso   1.00
C1934  C     0.67989   0.57001   0.74994   0.00000  Uiso   1.00
C1935  C     0.56983   0.82019   0.25012   0.00000  Uiso   1.00
C1936  C     0.93012   0.67989   0.74996   0.00000  Uiso   1.00
C1937  C     0.68002   0.92993   0.75007   0.00000  Uiso   1.00
C1938  C     0.82006   0.56993   0.25004   0.00000  Uiso   1.00
C1939  C     0.93007   0.82023   0.74979   0.00000  Uiso   1.00
C1940  C     0.57025   0.68019   0.24982   0.00000  Uiso   1.00
C1941  C     0.81977   0.57032   0.75023   0.00000  Uiso   1.00
C1942  C     0.68005   0.92991   0.25006   0.00000  Uiso   1.00
C1943  C     0.57011   0.67990   0.74999   0.00000  Uiso   1.00
C1944  C     0.93044   0.82070   0.25093   0.00000  Uiso   1.00
C1945  C     0.63530   0.89181   0.21450   0.00000  Uiso   1.00
C1946  C     0.86649   0.60660   0.78530   0.00000  Uiso   1.00
C1947  C     0.60368   0.63064   0.21631   0.00000  Uiso   1.00
C1948  C     0.89872   0.87209   0.78200   0.00000  Uiso   1.00
C1949  C     0.86312   0.61005   0.21428   0.00000  Uiso   1.00
C1950  C     0.63539   0.89124   0.78573   0.00000  Uiso   1.00
C1951  C     0.90889   0.88204   0.23036   0.00000  Uiso   1.00
C1952  C     0.59992   0.62639   0.78114   0.00000  Uiso   1.00
C1953  C     0.62769   0.60077   0.78186   0.00000  Uiso   1.00
C1954  C     0.88126   0.90788   0.22865   0.00000  Uiso   1.00
C1955  C     0.60844   0.86433   0.78569   0.00000  Uiso   1.00
C1956  C     0.89022   0.63683   0.21429   0.00000  Uiso   1.00
C1957  C     0.87098   0.89778   0.78259   0.00000  Uiso   1.00
C1958  C     0.62882   0.60232   0.21720   0.00000  Uiso   1.00
C1959  C     0.89347   0.63343   0.78528   0.00000  Uiso   1.00
C1960  C     0.60778   0.86553   0.21468   0.00000  Uiso   1.00
C1961  C     0.88331   0.64390   0.71526   0.00000  Uiso   1.00
C1962  C     0.61465   0.85820   0.28560   0.00000  Uiso   1.00
C1963  C     0.85479   0.88189   0.71535   0.00000  Uiso   1.00
C1964  C     0.64780   0.62099   0.28279   0.00000  Uiso   1.00
C1965  C     0.61444   0.85867   0.71452   0.00000  Uiso   1.00
C1966  C     0.88613   0.64052   0.28570   0.00000  Uiso   1.00
C1967  C     0.64841   0.62159   0.71734   0.00000  Uiso   1.00
C1968  C     0.85179   0.87879   0.28479   0.00000  Uiso   1.00
C1969  C     0.87691   0.85042   0.28327   0.00000  Uiso   1.00
C1970  C     0.62340   0.64994   0.71862   0.00000  Uiso   1.00
C1971  C     0.85983   0.61296   0.28582   0.00000  Uiso   1.00
C1972  C     0.64195   0.88498   0.71473   0.00000  Uiso   1.00
C1973  C     0.62094   0.64766   0.28308   0.00000  Uiso   1.00
C1974  C     0.88005   0.85365   0.71610   0.00000  Uiso   1.00
C1975  C     0.64249   0.88417   0.28533   0.00000  Uiso   1.00
C1976  C     0.85473   0.61887   0.71593   0.00000  Uiso   1.00
C1977  C     0.50039   0.71647   0.45919   0.00000  Uiso   1.00
C1978  C     0.99954   0.78370   0.54080   0.00000  Uiso   1.00
C1979  C     0.78347   0.50263   0.45878   0.00000  Uiso   1.00
C1980  C     0.71680   0.99757   0.54118   0.00000  Uiso   1.00
C1981  C     0.99796   0.78332   0.45869   0.00000  Uiso   1.00
C1982  C     0.50123   0.71677   0.54134   0.00000  Uiso   1.00
C1983  C     0.71676   0.99798   0.45896   0.00000  Uiso   1.00
C1984  C     0.78355   0.50369   0.54091   0.00000  Uiso   1.00
C1985  C     0.76595   0.97103   0.95915   0.00000  Uiso   1.00
C1986  C     0.73603   0.53082   0.04095   0.00000  Uiso   1.00
C1987  C     0.53231   0.74221   0.95882   0.00000  Uiso   1.00
C1988  C     0.96807   0.75962   0.04126   0.00000  Uiso   1.00
C1989  C     0.73605   0.53069   0.95872   0.00000  Uiso   1.00
C1990  C     0.76718   0.97185   0.04121   0.00000  Uiso   1.00
C1991  C     0.96731   0.75773   0.95914   0.00000  Uiso   1.00
C1992  C     0.53294   0.74360   0.04092   0.00000  Uiso   1.00
H1993  H     0.99976   0.80761   0.40089   0.00000  Uiso   1.00
H1994  H     0.99853   0.69251   0.59910   0.00000  Uiso   1.00
H1995  H     0.69248   0.99498   0.40137   0.00000  Uiso   1.00
H1996  H     0.80832   0.50458   0.59827   0.00000  Uiso   1.00
H1997  H     0.50065   0.69176   0.40189   0.00000  Uiso   1.00
H1998  H     0.50044   0.80846   0.59813   0.00000  Uiso   1.00
H1999  H     0.80820   0.50320   0.40127   0.00000  Uiso   1.00
H2000  H     0.69283   0.99421   0.59893   0.00000  Uiso   1.00
H2001  H     0.72066   0.54974   0.90112   0.00000  Uiso   1.00
H2002  H     0.77821   0.94976   0.09863   0.00000  Uiso   1.00
H2003  H     0.94292   0.76196   0.90177   0.00000  Uiso   1.00
H2004  H     0.55696   0.73718   0.09825   0.00000  Uiso   1.00
H2005  H     0.77723   0.94881   0.90198   0.00000  Uiso   1.00
H2006  H     0.72319   0.55171   0.09840   0.00000  Uiso   1.00
H2007  H     0.55606   0.73604   0.90133   0.00000  Uiso   1.00
H2008  H     0.94390   0.76248   0.09899   0.00000  Uiso   1.00
C2009  C     0.59760   0.84852   0.25018   0.00000  Uiso   1.00
C2010  C     0.90220   0.65177   0.75011   0.00000  Uiso   1.00
C2011  C     0.65160   0.59793   0.25012   0.00000  Uiso   1.00
C2012  C     0.84889   0.90280   0.74931   0.00000  Uiso   1.00
C2013  C     0.90173   0.65207   0.25002   0.00000  Uiso   1.00
C2014  C     0.59795   0.84807   0.75006   0.00000  Uiso   1.00
C2015  C     0.85160   0.90542   0.25483   0.00000  Uiso   1.00
C2016  C     0.65161   0.59776   0.74966   0.00000  Uiso   1.00
C2017  C     0.59819   0.65178   0.74996   0.00000  Uiso   1.00
C2018  C     0.90475   0.85107   0.25454   0.00000  Uiso   1.00
C2019  C     0.65212   0.90166   0.75021   0.00000  Uiso   1.00
C2020  C     0.84814   0.59789   0.25006   0.00000  Uiso   1.00
C2021  C     0.90244   0.84883   0.74936   0.00000  Uiso   1.00
C2022  C     0.59869   0.65254   0.24974   0.00000  Uiso   1.00
C2023  C     0.84729   0.59900   0.75051   0.00000  Uiso   1.00
C2024  C     0.65236   0.90149   0.24994   0.00000  Uiso   1.00
C2025  C     0.99958   0.74999   0.47951   0.00000  Uiso   1.00
C2026  C     0.50001   0.75015   0.52051   0.00000  Uiso   1.00
C2027  C     0.75008   0.50092   0.47945   0.00000  Uiso   1.00
C2028  C     0.75011   0.50105   0.52047   0.00000  Uiso   1.00
C2029  C     0.75152   0.50121   0.97948   0.00000  Uiso   1.00
C2030  C     0.75178   0.50142   0.02051   0.00000  Uiso   1.00
C2031  C     0.50010   0.75092   0.97952   0.00000  Uiso   1.00
C2032  C     0.50040   0.75154   0.02052   0.00000  Uiso   1.00
O2033  O     0.99759   0.65067   0.46004   0.00000  Uiso   1.00
C2034  C     0.53182   0.63430   0.45386   0.00000  Uiso   1.00
H2035  H     0.53709   0.61453   0.47772   0.00000  Uiso   1.00
H2036  H     0.55484   0.65420   0.45237   0.00000  Uiso   1.00
C2037  C     0.53098   0.61311   0.41570   0.00000  Uiso   1.00
H2038  H     0.52550   0.63161   0.39073   0.00000  Uiso   1.00
H2039  H     0.55765   0.59982   0.41090   0.00000  Uiso   1.00
H2040  H     0.50939   0.59187   0.41692   0.00000  Uiso   1.00
O2041  O     0.50239   0.84944   0.53994   0.00000  Uiso   1.00
C2042  C     0.96861   0.86706   0.54477   0.00000  Uiso   1.00
H2043  H     0.94474   0.84813   0.54440   0.00000  Uiso   1.00
H2044  H     0.96542   0.88766   0.52128   0.00000  Uiso   1.00
C2045  C     0.96850   0.88725   0.58356   0.00000  Uiso   1.00
H2046  H     0.99081   0.90776   0.58402   0.00000  Uiso   1.00
H2047  H     0.94213   0.90135   0.58750   0.00000  Uiso   1.00
H2048  H     0.97234   0.86793   0.60818   0.00000  Uiso   1.00
O2049  O     0.84909   0.50418   0.45848   0.00000  Uiso   1.00
C2050  C     0.86498   0.96938   0.46130   0.00000  Uiso   1.00
H2051  H     0.84455   0.94701   0.45813   0.00000  Uiso   1.00
H2052  H     0.87903   0.96631   0.48986   0.00000  Uiso   1.00
C2053  C     0.89296   0.96528   0.42887   0.00000  Uiso   1.00
H2054  H     0.91405   0.98692   0.43121   0.00000  Uiso   1.00
H2055  H     0.90619   0.93837   0.43144   0.00000  Uiso   1.00
H2056  H     0.87951   0.96725   0.39989   0.00000  Uiso   1.00
O2057  O     0.65170   0.98499   0.53994   0.00000  Uiso   1.00
C2058  C     0.63355   0.51659   0.55280   0.00000  Uiso   1.00
H2059  H     0.64044   0.54161   0.53571   0.00000  Uiso   1.00
H2060  H     0.64030   0.52170   0.58388   0.00000  Uiso   1.00
C2061  C     0.59273   0.50998   0.55050   0.00000  Uiso   1.00
H2062  H     0.58508   0.98596   0.56859   0.00000  Uiso   1.00
H2063  H     0.57804   0.53405   0.56167   0.00000  Uiso   1.00
H2064  H     0.58447   0.50497   0.51976   0.00000  Uiso   1.00
O2065  O     0.99336   0.84944   0.45892   0.00000  Uiso   1.00
C2066  C     0.95771   0.85414   0.44393   0.00000  Uiso   1.00
H2067  H     0.93954   0.86527   0.46682   0.00000  Uiso   1.00
H2068  H     0.94496   0.82851   0.43320   0.00000  Uiso   1.00
C2069  C     0.95902   0.88083   0.40985   0.00000  Uiso   1.00
H2070  H     0.97658   0.87010   0.38615   0.00000  Uiso   1.00
H2071  H     0.93121   0.88477   0.39800   0.00000  Uiso   1.00
H2072  H     0.97002   0.90745   0.41973   0.00000  Uiso   1.00
O2073  O     0.50441   0.65057   0.54089   0.00000  Uiso   1.00
C2074  C     0.54044   0.64418   0.55368   0.00000  Uiso   1.00
H2075  H     0.54846   0.66333   0.57714   0.00000  Uiso   1.00
H2076  H     0.56055   0.64698   0.52946   0.00000  Uiso   1.00
C2077  C     0.54283   0.60588   0.57026   0.00000  Uiso   1.00
H2078  H     0.53555   0.58576   0.54739   0.00000  Uiso   1.00
H2079  H     0.57098   0.60064   0.58048   0.00000  Uiso   1.00
H2080  H     0.52385   0.60276   0.59538   0.00000  Uiso   1.00
O2081  O     0.65115   0.98916   0.45996   0.00000  Uiso   1.00
C2082  C     0.63709   0.52290   0.44725   0.00000  Uiso   1.00
H2083  H     0.65860   0.54148   0.43572   0.00000  Uiso   1.00
H2084  H     0.62300   0.53671   0.47167   0.00000  Uiso   1.00
C2085  C     0.60961   0.51641   0.41478   0.00000  Uiso   1.00
H2086  H     0.58764   0.99790   0.42523   0.00000  Uiso   1.00
H2087  H     0.59741   0.54265   0.40569   0.00000  Uiso   1.00
H2088  H     0.62321   0.50411   0.38905   0.00000  Uiso   1.00
O2089  O     0.84919   0.50867   0.54067   0.00000  Uiso   1.00
C2090  C     0.86453   0.54377   0.53595   0.00000  Uiso   1.00
H2091  H     0.84404   0.56554   0.54067   0.00000  Uiso   1.00
H2092  H     0.87643   0.54709   0.50626   0.00000  Uiso   1.00
C2093  C     0.89498   0.54879   0.56555   0.00000  Uiso   1.00
H2094  H     0.91699   0.52894   0.55982   0.00000  Uiso   1.00
H2095  H     0.90635   0.57677   0.56325   0.00000  Uiso   1.00
H2096  H     0.88445   0.54442   0.59566   0.00000  Uiso   1.00
O2097  O     0.79318   0.91106   0.96070   0.00000  Uiso   1.00
C2098  C     0.76482   0.88542   0.95496   0.00000  Uiso   1.00
H2099  H     0.76016   0.88278   0.92304   0.00000  Uiso   1.00
H2100  H     0.73826   0.89265   0.96881   0.00000  Uiso   1.00
C2101  C     0.77655   0.84856   0.97072   0.00000  Uiso   1.00
H2102  H     0.78028   0.84992   0.00288   0.00000  Uiso   1.00
H2103  H     0.75543   0.82778   0.96407   0.00000  Uiso   1.00
H2104  H     0.80256   0.84035   0.95694   0.00000  Uiso   1.00
O2105  O     0.70390   0.58827   0.03990   0.00000  Uiso   1.00
C2106  C     0.72901   0.61597   0.04981   0.00000  Uiso   1.00
H2107  H     0.73311   0.63450   0.02455   0.00000  Uiso   1.00
H2108  H     0.75591   0.60507   0.05906   0.00000  Uiso   1.00
C2109  C     0.71360   0.63824   0.08332   0.00000  Uiso   1.00
H2110  H     0.71129   0.62111   0.11001   0.00000  Uiso   1.00
H2111  H     0.73195   0.66159   0.08961   0.00000  Uiso   1.00
H2112  H     0.68629   0.64878   0.07548   0.00000  Uiso   1.00
O2113  O     0.59590   0.72467   0.95925   0.00000  Uiso   1.00
C2114  C     0.59654   0.68674   0.95205   0.00000  Uiso   1.00
H2115  H     0.60644   0.68275   0.92167   0.00000  Uiso   1.00
H2116  H     0.56942   0.67299   0.95405   0.00000  Uiso   1.00
C2117  C     0.62308   0.66800   0.97964   0.00000  Uiso   1.00
H2118  H     0.61124   0.66594   0.00944   0.00000  Uiso   1.00
H2119  H     0.62877   0.64009   0.96902   0.00000  Uiso   1.00
H2120  H     0.64901   0.68357   0.98098   0.00000  Uiso   1.00
O2121  O     0.90386   0.77537   0.04084   0.00000  Uiso   1.00
C2122  C     0.90460   0.81199   0.05359   0.00000  Uiso   1.00
H2123  H     0.90643   0.83118   0.02845   0.00000  Uiso   1.00
H2124  H     0.92803   0.81771   0.07318   0.00000  Uiso   1.00
C2125  C     0.86994   0.81976   0.07630   0.00000  Uiso   1.00
H2126  H     0.86743   0.80067   0.10143   0.00000  Uiso   1.00
H2127  H     0.87073   0.84800   0.08762   0.00000  Uiso   1.00
H2128  H     0.84589   0.81648   0.05698   0.00000  Uiso   1.00
O2129  O     0.70751   0.59052   0.95975   0.00000  Uiso   1.00
C2130  C     0.73563   0.61329   0.94512   0.00000  Uiso   1.00
H2131  H     0.74649   0.60242   0.91729   0.00000  Uiso   1.00
H2132  H     0.75871   0.61638   0.96600   0.00000  Uiso   1.00
C2133  C     0.72028   0.65081   0.93664   0.00000  Uiso   1.00
H2134  H     0.71044   0.66338   0.96412   0.00000  Uiso   1.00
H2135  H     0.74179   0.66850   0.92376   0.00000  Uiso   1.00
H2136  H     0.69733   0.64869   0.91567   0.00000  Uiso   1.00
O2137  O     0.79685   0.91295   0.04054   0.00000  Uiso   1.00
C2138  C     0.83379   0.92005   0.04953   0.00000  Uiso   1.00
H2139  H     0.83968   0.90690   0.07806   0.00000  Uiso   1.00
H2140  H     0.84035   0.94955   0.05303   0.00000  Uiso   1.00
C2141  C     0.85884   0.90357   0.01880   0.00000  Uiso   1.00
H2142  H     0.85778   0.91968   0.99133   0.00000  Uiso   1.00
H2143  H     0.88729   0.90385   0.02963   0.00000  Uiso   1.00
H2144  H     0.85063   0.87505   0.01264   0.00000  Uiso   1.00
O2145  O     0.90199   0.76462   0.96017   0.00000  Uiso   1.00
C2146  C     0.88843   0.80020   0.95528   0.00000  Uiso   1.00
H2147  H     0.91028   0.82129   0.95287   0.00000  Uiso   1.00
H2148  H     0.87026   0.80692   0.98013   0.00000  Uiso   1.00
C2149  C     0.86560   0.80150   0.91825   0.00000  Uiso   1.00
H2150  H     0.84166   0.78313   0.92127   0.00000  Uiso   1.00
H2151  H     0.85594   0.82966   0.91310   0.00000  Uiso   1.00
H2152  H     0.88199   0.79270   0.89275   0.00000  Uiso   1.00
O2153  O     0.59675   0.72814   0.04043   0.00000  Uiso   1.00
C2154  C     0.62092   0.75806   0.03802   0.00000  Uiso   1.00
H2155  H     0.60723   0.78403   0.04575   0.00000  Uiso   1.00
H2156  H     0.63256   0.76059   0.00810   0.00000  Uiso   1.00
C2157  C     0.65212   0.75206   0.06642   0.00000  Uiso   1.00
H2158  H     0.66710   0.72698   0.05848   0.00000  Uiso   1.00
H2159  H     0.67116   0.77560   0.06527   0.00000  Uiso   1.00
H2160  H     0.64147   0.74913   0.09669   0.00000  Uiso   1.00
O2161  O     0.64419   0.90866   0.17936   0.00000  Uiso   1.00
C2162  C     0.67762   0.89501   0.16506   0.00000  Uiso   1.00
H2163  H     0.68149   0.86555   0.17152   0.00000  Uiso   1.00
H2164  H     0.70082   0.91024   0.17795   0.00000  Uiso   1.00
C2165  C     0.67912   0.90033   0.12095   0.00000  Uiso   1.00
H2166  H     0.67675   0.92969   0.11363   0.00000  Uiso   1.00
H2167  H     0.70539   0.89014   0.10941   0.00000  Uiso   1.00
H2168  H     0.65649   0.88512   0.10688   0.00000  Uiso   1.00
O2169  O     0.85993   0.58746   0.81963   0.00000  Uiso   1.00
C2170  C     0.82803   0.60052   0.83804   0.00000  Uiso   1.00
H2171  H     0.80408   0.58423   0.82868   0.00000  Uiso   1.00
H2172  H     0.82220   0.62964   0.83151   0.00000  Uiso   1.00
C2173  C     0.83200   0.59622   0.88208   0.00000  Uiso   1.00
H2174  H     0.85667   0.61089   0.89230   0.00000  Uiso   1.00
H2175  H     0.80793   0.60772   0.89704   0.00000  Uiso   1.00
H2176  H     0.83429   0.56696   0.88986   0.00000  Uiso   1.00
O2177  O     0.58321   0.63554   0.18267   0.00000  Uiso   1.00
C2178  C     0.59690   0.66580   0.16122   0.00000  Uiso   1.00
H2179  H     0.62699   0.66921   0.16359   0.00000  Uiso   1.00
H2180  H     0.58429   0.69138   0.17153   0.00000  Uiso   1.00
C2181  C     0.58731   0.66119   0.11826   0.00000  Uiso   1.00
H2182  H     0.55732   0.66174   0.11444   0.00000  Uiso   1.00
H2183  H     0.59972   0.68364   0.10098   0.00000  Uiso   1.00
H2184  H     0.59787   0.63497   0.10712   0.00000  Uiso   1.00
O2185  O     0.92492   0.87364   0.81106   0.00000  Uiso   1.00
C2186  C     0.91710   0.84808   0.84088   0.00000  Uiso   1.00
H2187  H     0.91527   0.81985   0.82947   0.00000  Uiso   1.00
H2188  H     0.89123   0.85429   0.85578   0.00000  Uiso   1.00
C2189  C     0.94737   0.84985   0.87108   0.00000  Uiso   1.00
H2190  H     0.94739   0.87684   0.88558   0.00000  Uiso   1.00
H2191  H     0.94330   0.82846   0.89353   0.00000  Uiso   1.00
H2192  H     0.97415   0.84571   0.85678   0.00000  Uiso   1.00
O2193  O     0.85224   0.59546   0.17880   0.00000  Uiso   1.00
C2194  C     0.81793   0.60968   0.16808   0.00000  Uiso   1.00
H2195  H     0.81309   0.63773   0.17927   0.00000  Uiso   1.00
H2196  H     0.79580   0.59174   0.17925   0.00000  Uiso   1.00
C2197  C     0.81518   0.61079   0.12377   0.00000  Uiso   1.00
H2198  H     0.81635   0.58278   0.11176   0.00000  Uiso   1.00
H2199  H     0.78903   0.62338   0.11528   0.00000  Uiso   1.00
H2200  H     0.83784   0.62726   0.11130   0.00000  Uiso   1.00
O2201  O     0.64391   0.90809   0.82078   0.00000  Uiso   1.00
C2202  C     0.67727   0.89462   0.83539   0.00000  Uiso   1.00
H2203  H     0.70027   0.91146   0.82431   0.00000  Uiso   1.00
H2204  H     0.68253   0.86578   0.82726   0.00000  Uiso   1.00
C2205  C     0.67698   0.89722   0.87975   0.00000  Uiso   1.00
H2206  H     0.65383   0.88124   0.89190   0.00000  Uiso   1.00
H2207  H     0.70268   0.88617   0.89164   0.00000  Uiso   1.00
H2208  H     0.67438   0.92607   0.88885   0.00000  Uiso   1.00
O2209  O     0.93888   0.88634   0.20622   0.00000  Uiso   1.00
C2210  C     0.96561   0.90658   0.22645   0.00000  Uiso   1.00
H2211  H     0.97348   0.89275   0.25421   0.00000  Uiso   1.00
H2212  H     0.95568   0.93444   0.23316   0.00000  Uiso   1.00
C2213  C     0.99937   0.91006   0.20089   0.00000  Uiso   1.00
H2214  H     0.99274   0.92499   0.17355   0.00000  Uiso   1.00
H2215  H     0.52096   0.92517   0.21681   0.00000  Uiso   1.00
H2216  H     0.50969   0.88266   0.19327   0.00000  Uiso   1.00
O2217  O     0.57199   0.62286   0.80826   0.00000  Uiso   1.00
C2218  C     0.57773   0.64637   0.84034   0.00000  Uiso   1.00
H2219  H     0.58385   0.67480   0.83099   0.00000  Uiso   1.00
H2220  H     0.60031   0.63680   0.85889   0.00000  Uiso   1.00
C2221  C     0.54346   0.64633   0.86538   0.00000  Uiso   1.00
H2222  H     0.53997   0.61945   0.87987   0.00000  Uiso   1.00
H2223  H     0.54539   0.66768   0.88807   0.00000  Uiso   1.00
H2224  H     0.51923   0.65166   0.84698   0.00000  Uiso   1.00
O2225  O     0.62916   0.57686   0.81320   0.00000  Uiso   1.00
C2226  C     0.65504   0.58945   0.84075   0.00000  Uiso   1.00
H2227  H     0.65614   0.61967   0.84313   0.00000  Uiso   1.00
H2228  H     0.68276   0.58020   0.83279   0.00000  Uiso   1.00
C2229  C     0.64551   0.57366   0.88067   0.00000  Uiso   1.00
H2230  H     0.64936   0.54372   0.88058   0.00000  Uiso   1.00
H2231  H     0.66328   0.58591   0.90320   0.00000  Uiso   1.00
H2232  H     0.61679   0.57964   0.88824   0.00000  Uiso   1.00
O2233  O     0.88587   0.93812   0.20488   0.00000  Uiso   1.00
C2234  C     0.87710   0.92909   0.16591   0.00000  Uiso   1.00
H2235  H     0.84855   0.91899   0.16364   0.00000  Uiso   1.00
H2236  H     0.89580   0.90812   0.15411   0.00000  Uiso   1.00
C2237  C     0.88103   0.96314   0.14083   0.00000  Uiso   1.00
H2238  H     0.90879   0.97481   0.14414   0.00000  Uiso   1.00
H2239  H     0.87677   0.95635   0.10966   0.00000  Uiso   1.00
H2240  H     0.86070   0.98370   0.14987   0.00000  Uiso   1.00
O2241  O     0.59083   0.85597   0.82049   0.00000  Uiso   1.00
C2242  C     0.60593   0.82406   0.83676   0.00000  Uiso   1.00
H2243  H     0.63576   0.82683   0.84096   0.00000  Uiso   1.00
H2244  H     0.60053   0.80002   0.81797   0.00000  Uiso   1.00
C2245  C     0.58871   0.81696   0.87657   0.00000  Uiso   1.00
H2246  H     0.55882   0.81361   0.87350   0.00000  Uiso   1.00
H2247  H     0.60014   0.79180   0.88958   0.00000  Uiso   1.00
H2248  H     0.59438   0.84012   0.89646   0.00000  Uiso   1.00
O2249  O     0.90642   0.64664   0.17914   0.00000  Uiso   1.00
C2250  C     0.89050   0.67904   0.16506   0.00000  Uiso   1.00
H2251  H     0.89650   0.70235   0.18470   0.00000  Uiso   1.00
H2252  H     0.86053   0.67617   0.16210   0.00000  Uiso   1.00
C2253  C     0.90611   0.68784   0.12488   0.00000  Uiso   1.00
H2254  H     0.89986   0.66542   0.10423   0.00000  Uiso   1.00
H2255  H     0.89398   0.71338   0.11356   0.00000  Uiso   1.00
H2256  H     0.93606   0.69137   0.12681   0.00000  Uiso   1.00
O2257  O     0.86760   0.91968   0.81526   0.00000  Uiso   1.00
C2258  C     0.83994   0.90563   0.84004   0.00000  Uiso   1.00
H2259  H     0.83668   0.87548   0.83833   0.00000  Uiso   1.00
H2260  H     0.81330   0.91781   0.83245   0.00000  Uiso   1.00
C2261  C     0.84885   0.91565   0.88207   0.00000  Uiso   1.00
H2262  H     0.84521   0.94530   0.88656   0.00000  Uiso   1.00
H2263  H     0.83058   0.90034   0.90198   0.00000  Uiso   1.00
H2264  H     0.87737   0.90848   0.88920   0.00000  Uiso   1.00
O2265  O     0.62761   0.57653   0.18778   0.00000  Uiso   1.00
C2266  C     0.65199   0.58603   0.15740   0.00000  Uiso   1.00
H2267  H     0.68068   0.58231   0.16671   0.00000  Uiso   1.00
H2268  H     0.64872   0.61454   0.14762   0.00000  Uiso   1.00
C2269  C     0.64445   0.56152   0.12259   0.00000  Uiso   1.00
H2270  H     0.61528   0.56305   0.11440   0.00000  Uiso   1.00
H2271  H     0.66097   0.57043   0.09718   0.00000  Uiso   1.00
H2272  H     0.65128   0.53293   0.12997   0.00000  Uiso   1.00
O2273  O     0.91286   0.63956   0.81940   0.00000  Uiso   1.00
C2274  C     0.89882   0.67047   0.83864   0.00000  Uiso   1.00
H2275  H     0.86931   0.66742   0.84482   0.00000  Uiso   1.00
H2276  H     0.90307   0.69559   0.82099   0.00000  Uiso   1.00
C2277  C     0.91837   0.67530   0.87747   0.00000  Uiso   1.00
H2278  H     0.94802   0.67881   0.87247   0.00000  Uiso   1.00
H2279  H     0.90781   0.69968   0.89271   0.00000  Uiso   1.00
H2280  H     0.91382   0.65105   0.89634   0.00000  Uiso   1.00
O2281  O     0.58925   0.85866   0.18022   0.00000  Uiso   1.00
C2282  C     0.60337   0.82709   0.16252   0.00000  Uiso   1.00
H2283  H     0.59954   0.80271   0.18146   0.00000  Uiso   1.00
H2284  H     0.63277   0.83021   0.15576   0.00000  Uiso   1.00
C2285  C     0.58338   0.82043   0.12435   0.00000  Uiso   1.00
H2286  H     0.58975   0.84249   0.10310   0.00000  Uiso   1.00
H2287  H     0.59198   0.79404   0.11200   0.00000  Uiso   1.00
H2288  H     0.55359   0.81957   0.12952   0.00000  Uiso   1.00
O2289  O     0.89100   0.66195   0.68050   0.00000  Uiso   1.00
C2290  C     0.92276   0.64717   0.66337   0.00000  Uiso   1.00
H2291  H     0.92426   0.61702   0.66656   0.00000  Uiso   1.00
H2292  H     0.94754   0.65916   0.67679   0.00000  Uiso   1.00
C2293  C     0.92334   0.65636   0.61995   0.00000  Uiso   1.00
H2294  H     0.92401   0.68634   0.61579   0.00000  Uiso   1.00
H2295  H     0.94786   0.64446   0.60609   0.00000  Uiso   1.00
H2296  H     0.89875   0.64507   0.60548   0.00000  Uiso   1.00
O2297  O     0.60570   0.84140   0.32076   0.00000  Uiso   1.00
C2298  C     0.57215   0.85491   0.33494   0.00000  Uiso   1.00
H2299  H     0.54914   0.83872   0.32303   0.00000  Uiso   1.00
H2300  H     0.56751   0.88403   0.32732   0.00000  Uiso   1.00
C2301  C     0.57126   0.85118   0.37926   0.00000  Uiso   1.00
H2302  H     0.59402   0.86688   0.39238   0.00000  Uiso   1.00
H2303  H     0.54519   0.86183   0.39080   0.00000  Uiso   1.00
H2304  H     0.57376   0.82212   0.38776   0.00000  Uiso   1.00
O2305  O     0.83498   0.88752   0.68141   0.00000  Uiso   1.00
C2306  C     0.84883   0.91857   0.66149   0.00000  Uiso   1.00
H2307  H     0.87913   0.91988   0.66157   0.00000  Uiso   1.00
H2308  H     0.83862   0.94397   0.67496   0.00000  Uiso   1.00
C2309  C     0.83603   0.91782   0.61921   0.00000  Uiso   1.00
H2310  H     0.80584   0.91828   0.61813   0.00000  Uiso   1.00
H2311  H     0.84683   0.94197   0.60330   0.00000  Uiso   1.00
H2312  H     0.84594   0.89283   0.60459   0.00000  Uiso   1.00
O2313  O     0.67177   0.61934   0.31397   0.00000  Uiso   1.00
C2314  C     0.65930   0.59380   0.34215   0.00000  Uiso   1.00
H2315  H     0.67451   0.56798   0.33898   0.00000  Uiso   1.00
H2316  H     0.62983   0.58676   0.33971   0.00000  Uiso   1.00
C2317  C     0.66663   0.60898   0.38279   0.00000  Uiso   1.00
H2318  H     0.66007   0.63837   0.38380   0.00000  Uiso   1.00
H2319  H     0.64939   0.59483   0.40469   0.00000  Uiso   1.00
H2320  H     0.69574   0.60549   0.39047   0.00000  Uiso   1.00
O2321  O     0.60529   0.84247   0.67925   0.00000  Uiso   1.00
C2322  C     0.57150   0.85594   0.66577   0.00000  Uiso   1.00
H2323  H     0.56704   0.88506   0.67320   0.00000  Uiso   1.00
H2324  H     0.54868   0.83982   0.67839   0.00000  Uiso   1.00
C2325  C     0.56978   0.85207   0.62156   0.00000  Uiso   1.00
H2326  H     0.57230   0.82300   0.61328   0.00000  Uiso   1.00
H2327  H     0.54343   0.86254   0.61066   0.00000  Uiso   1.00
H2328  H     0.59212   0.86789   0.60765   0.00000  Uiso   1.00
O2329  O     0.89465   0.65754   0.32059   0.00000  Uiso   1.00
C2330  C     0.92621   0.64171   0.33665   0.00000  Uiso   1.00
H2331  H     0.95072   0.64941   0.31933   0.00000  Uiso   1.00
H2332  H     0.92420   0.61155   0.33797   0.00000  Uiso   1.00
C2333  C     0.93117   0.65560   0.37812   0.00000  Uiso   1.00
H2334  H     0.90690   0.64867   0.39610   0.00000  Uiso   1.00
H2335  H     0.95540   0.64277   0.39148   0.00000  Uiso   1.00
H2336  H     0.93485   0.68560   0.37777   0.00000  Uiso   1.00
O2337  O     0.67191   0.61984   0.68568   0.00000  Uiso   1.00
C2338  C     0.66001   0.59237   0.65961   0.00000  Uiso   1.00
H2339  H     0.63030   0.59379   0.65356   0.00000  Uiso   1.00
H2340  H     0.66559   0.56481   0.67143   0.00000  Uiso   1.00
C2341  C     0.68062   0.59659   0.62122   0.00000  Uiso   1.00
H2342  H     0.71030   0.59381   0.62638   0.00000  Uiso   1.00
H2343  H     0.67185   0.57537   0.60028   0.00000  Uiso   1.00
H2344  H     0.67522   0.62375   0.60823   0.00000  Uiso   1.00
O2345  O     0.82628   0.87867   0.31465   0.00000  Uiso   1.00
C2346  C     0.83595   0.90557   0.34246   0.00000  Uiso   1.00
H2347  H     0.83302   0.93346   0.33031   0.00000  Uiso   1.00
H2348  H     0.86457   0.90274   0.35250   0.00000  Uiso   1.00
C2349  C     0.81092   0.90217   0.37774   0.00000  Uiso   1.00
H2350  H     0.81491   0.87543   0.39226   0.00000  Uiso   1.00
H2351  H     0.81705   0.92417   0.39888   0.00000  Uiso   1.00
H2352  H     0.78210   0.90456   0.36844   0.00000  Uiso   1.00
O2353  O     0.87125   0.82030   0.30707   0.00000  Uiso   1.00
C2354  C     0.89144   0.82402   0.34200   0.00000  Uiso   1.00
H2355  H     0.87911   0.84472   0.36125   0.00000  Uiso   1.00
H2356  H     0.92039   0.83154   0.33625   0.00000  Uiso   1.00
C2357  C     0.89053   0.78797   0.36400   0.00000  Uiso   1.00
H2358  H     0.90017   0.76571   0.34485   0.00000  Uiso   1.00
H2359  H     0.90829   0.78951   0.39016   0.00000  Uiso   1.00
H2360  H     0.86229   0.78167   0.37354   0.00000  Uiso   1.00
O2361  O     0.62754   0.67848   0.69230   0.00000  Uiso   1.00
C2362  C     0.60571   0.67282   0.65887   0.00000  Uiso   1.00
H2363  H     0.57705   0.66590   0.66667   0.00000  Uiso   1.00
H2364  H     0.61694   0.65098   0.64036   0.00000  Uiso   1.00
C2365  C     0.60599   0.70756   0.63450   0.00000  Uiso   1.00
H2366  H     0.63374   0.71270   0.62275   0.00000  Uiso   1.00
H2367  H     0.58675   0.70509   0.60971   0.00000  Uiso   1.00
H2368  H     0.59797   0.73107   0.65278   0.00000  Uiso   1.00
O2369  O     0.84476   0.60231   0.32131   0.00000  Uiso   1.00
C2370  C     0.85856   0.56795   0.33264   0.00000  Uiso   1.00
H2371  H     0.88676   0.56287   0.32191   0.00000  Uiso   1.00
H2372  H     0.84064   0.54591   0.32149   0.00000  Uiso   1.00
C2373  C     0.85883   0.56543   0.37705   0.00000  Uiso   1.00
H2374  H     0.83087   0.56907   0.38870   0.00000  Uiso   1.00
H2375  H     0.86904   0.53838   0.38625   0.00000  Uiso   1.00
H2376  H     0.87687   0.58678   0.38939   0.00000  Uiso   1.00
O2377  O     0.66017   0.89254   0.68016   0.00000  Uiso   1.00
C2378  C     0.64494   0.92363   0.66236   0.00000  Uiso   1.00
H2379  H     0.65409   0.94877   0.67751   0.00000  Uiso   1.00
H2380  H     0.61471   0.92292   0.66232   0.00000  Uiso   1.00
C2381  C     0.65765   0.92555   0.62013   0.00000  Uiso   1.00
H2382  H     0.65003   0.90023   0.60450   0.00000  Uiso   1.00
H2383  H     0.64452   0.94891   0.60540   0.00000  Uiso   1.00
H2384  H     0.68767   0.92893   0.61899   0.00000  Uiso   1.00
O2385  O     0.62040   0.67194   0.31400   0.00000  Uiso   1.00
C2386  C     0.59247   0.66249   0.34074   0.00000  Uiso   1.00
H2387  H     0.59716   0.63552   0.35421   0.00000  Uiso   1.00
H2388  H     0.56524   0.66186   0.32668   0.00000  Uiso   1.00
C2389  C     0.59193   0.69066   0.37321   0.00000  Uiso   1.00
H2390  H     0.58990   0.71840   0.36056   0.00000  Uiso   1.00
H2391  H     0.56831   0.68580   0.39269   0.00000  Uiso   1.00
H2392  H     0.61725   0.68904   0.39074   0.00000  Uiso   1.00
O2393  O     0.87989   0.82884   0.68569   0.00000  Uiso   1.00
C2394  C     0.90657   0.83846   0.65766   0.00000  Uiso   1.00
H2395  H     0.93425   0.83957   0.67074   0.00000  Uiso   1.00
H2396  H     0.90061   0.86512   0.64400   0.00000  Uiso   1.00
C2397  C     0.90639   0.80999   0.62548   0.00000  Uiso   1.00
H2398  H     0.88015   0.81082   0.60946   0.00000  Uiso   1.00
H2399  H     0.92887   0.81534   0.60459   0.00000  Uiso   1.00
H2400  H     0.90987   0.78245   0.63825   0.00000  Uiso   1.00
O2401  O     0.66197   0.89004   0.31939   0.00000  Uiso   1.00
C2402  C     0.64739   0.92003   0.33964   0.00000  Uiso   1.00
H2403  H     0.61733   0.91825   0.34252   0.00000  Uiso   1.00
H2404  H     0.65454   0.94596   0.32457   0.00000  Uiso   1.00
C2405  C     0.66340   0.92081   0.38059   0.00000  Uiso   1.00
H2406  H     0.69324   0.92554   0.37902   0.00000  Uiso   1.00
H2407  H     0.65068   0.94286   0.39776   0.00000  Uiso   1.00
H2408  H     0.65808   0.89452   0.39569   0.00000  Uiso   1.00
O2409  O     0.83118   0.61792   0.68440   0.00000  Uiso   1.00
C2410  C     0.84153   0.59037   0.65813   0.00000  Uiso   1.00
H2411  H     0.84061   0.56305   0.67221   0.00000  Uiso   1.00
H2412  H     0.86924   0.59523   0.64635   0.00000  Uiso   1.00
C2413  C     0.81510   0.59059   0.62402   0.00000  Uiso   1.00
H2414  H     0.81786   0.61644   0.60734   0.00000  Uiso   1.00
H2415  H     0.82100   0.56761   0.60433   0.00000  Uiso   1.00
H2416  H     0.78673   0.58788   0.63482   0.00000  Uiso   1.00
loop_
_geom_bond_atom_site_label_1
_geom_bond_atom_site_label_2
_geom_bond_distance
_geom_bond_site_symmetry_2
_ccdc_geom_bond_type
Zn1    O1292   1.935   1_545 S
Zn1    O41     1.949   .     S
Zn1    O56     1.937   .     S
Zn1    O87     1.948   .     S
Zn2    O55     1.937   .     S
Zn2    O1296   1.948   1_545 S
Zn2    O42     1.949   .     S
Zn2    O83     1.935   .     S
Zn3    O689    1.935   1_455 S
Zn3    O58     1.936   .     S
Zn3    O43     1.951   .     S
Zn3    O78     1.947   .     S
Zn4    O681    1.947   1_455 S
Zn4    O57     1.936   .     S
Zn4    O44     1.951   .     S
Zn4    O86     1.935   .     S
Zn5    O1299   1.946   1_545 S
Zn5    O41     1.946   .     S
Zn5    O60     1.938   .     S
Zn5    O80     1.937   .     S
Zn6    O1287   1.937   1_545 S
Zn6    O59     1.938   .     S
Zn6    O42     1.946   .     S
Zn6    O92     1.946   .     S
Zn7    O686    1.947   1_455 S
Zn7    O43     1.944   .     S
Zn7    O54     1.939   .     S
Zn7    O89     1.937   .     S
Zn8    O53     1.939   .     S
Zn8    O694    1.937   1_455 S
Zn8    O44     1.944   .     S
Zn8    O81     1.947   .     S
Zn9    O48     1.937   .     S
Zn9    O71     1.948   .     S
Zn9    O68     1.935   .     S
Zn9    O648    1.949   .     S
Zn10   O47     1.937   .     S
Zn10   O72     1.948   .     S
Zn10   O67     1.935   .     S
Zn10   O43     1.949   .     S
Zn11   O62     1.947   .     S
Zn11   O69     1.935   .     S
Zn11   O50     1.936   .     S
Zn11   O1250   1.951   .     S
Zn12   O49     1.936   .     S
Zn12   O70     1.935   .     S
Zn12   O41     1.951   .     S
Zn12   O61     1.947   .     S
Zn13   O44     1.946   .     S
Zn13   O75     1.946   .     S
Zn13   O52     1.938   .     S
Zn13   O64     1.937   .     S
Zn14   O76     1.946   .     S
Zn14   O51     1.938   .     S
Zn14   O63     1.937   .     S
Zn14   O647    1.946   .     S
Zn15   O66     1.947   .     S
Zn15   O73     1.937   .     S
Zn15   O42     1.944   .     S
Zn15   O46     1.939   .     S
Zn16   O45     1.939   .     S
Zn16   O65     1.947   .     S
Zn16   O74     1.937   .     S
Zn16   O1249   1.944   .     S
C17    C169    1.400   .     A
C17    H181    1.083   .     S
C17    C33     1.390   .     A
C18    H182    1.083   .     S
C18    C638    1.390   .     S
C18    C774    1.399   .     S
C19    C35     1.390   .     A
C19    C171    1.400   .     A
C19    H183    1.082   .     S
C20    H184    1.084   .     S
C20    C36     1.392   .     A
C20    C172    1.399   .     A
C21    C165    1.399   .     A
C21    H185    1.081   .     S
C21    C637    1.391   1_455 S
C22    C34     1.393   .     A
C22    H186    1.082   .     S
C22    C770    1.399   1_455 S
C23    C167    1.398   .     A
C23    H187    1.084   .     S
C23    C1243   1.391   1_545 S
C24    H188    1.079   .     S
C24    C168    1.398   .     A
C24    C1244   1.391   .     S
C25    C177    1.399   .     A
C25    H189    1.081   .     S
C25    C1245   1.393   1_545 S
C26    H190    1.084   .     S
C26    C178    1.396   .     A
C26    C1246   1.391   .     S
C27    C179    1.399   .     A
C27    C39     1.394   .     A
C27    H191    1.083   .     S
C28    C40     1.392   .     A
C28    C180    1.399   .     A
C28    H192    1.083   .     S
C29    H193    1.083   .     S
C29    C37     1.392   .     A
C29    C173    1.397   .     A
C30    C38     1.394   .     A
C30    C174    1.400   .     A
C30    H194    1.082   .     S
C31    H195    1.084   .     S
C31    C175    1.397   .     A
C31    C643    1.392   1_455 S
C32    H196    1.083   .     S
C32    C176    1.399   .     A
C32    C644    1.390   .     S
C33    C111    1.444   .     S
C33    C625    1.391   .     S
C34    C112    1.444   .     S
C34    C622    1.390   1_455 S
C35    C109    1.443   .     S
C35    C1231   1.391   .     S
C36    C110    1.445   .     S
C36    C1232   1.391   1_545 S
C37    C115    1.445   .     S
C37    C1233   1.393   .     S
C38    C116    1.444   .     S
C38    C1234   1.391   1_545 S
C39    C113    1.445   .     S
C39    C635    1.392   .     S
C40    C114    1.444   .     S
C40    C636    1.390   1_455 S
O41    Zn1224  1.944   1_545 S
O42    Zn1219  1.951   1_545 S
O43    Zn618   1.946   1_455 S
O44    Zn613   1.949   1_455 S
O45    C109    1.278   .     A
O46    C110    1.279   .     A
O47    C715    1.278   1_455 S
O48    C716    1.278   .     S
O49    C1317   1.279   1_545 S
O50    C1318   1.278   .     S
O51    C111    1.279   .     A
O52    C112    1.279   .     A
O53    C717    1.278   1_455 A
O54    C114    1.279   .     A
O55    C1323   1.280   1_545 A
O56    C116    1.279   .     A
O57    C717    1.280   1_455 A
O58    C114    1.278   .     S
O59    C1323   1.278   1_545 A
O60    C116    1.278   .     A
O61    C117    1.283   .     A
O62    C118    1.283   .     A
O63    C119    1.280   .     A
O64    C120    1.281   .     A
O65    C121    1.283   .     A
O66    C122    1.279   .     A
O67    C123    1.281   .     A
O68    C124    1.280   .     A
O69    C125    1.279   .     A
O70    C126    1.280   .     A
O71    C127    1.283   .     A
O72    C128    1.278   .     A
O73    C129    1.278   .     A
O74    C130    1.278   .     A
O75    C131    1.279   .     A
O76    C132    1.279   .     A
O77    Zn608   1.947   .     S
O77    C127    1.281   .     A
O78    C128    1.284   .     A
O79    Zn1214  1.937   .     S
O79    C125    1.282   .     A
O80    C126    1.280   .     A
O81    C131    1.280   .     A
O82    C132    1.282   .     A
O82    Zn611   1.947   .     S
O83    C129    1.283   .     A
O84    C130    1.281   .     A
O84    Zn1209  1.935   .     S
O85    Zn607   1.935   .     S
O85    C119    1.281   .     A
O86    C120    1.278   .     A
O87    C117    1.281   .     A
O88    C118    1.279   .     A
O88    Zn1210  1.948   .     S
O89    C123    1.278   .     A
O90    Zn612   1.937   .     S
O90    C124    1.277   .     A
O91    Zn1213  1.946   .     S
O91    C121    1.278   .     A
O92    C122    1.277   .     A
C93    C165    1.410   .     A
C93    C98     1.407   .     A
C93    O825    1.387   1_455 S
C94    C97     1.408   .     A
C94    C166    1.411   .     A
C94    O833    1.387   .     S
C95    O237    1.384   .     S
C95    C167    1.407   .     A
C95    C100    1.410   .     A
C96    C99     1.404   .     A
C96    O245    1.385   .     S
C96    C168    1.413   .     A
C97    O253    1.387   .     S
C97    C169    1.415   .     A
C98    C170    1.414   .     A
C98    O261    1.385   .     S
C99    O269    1.386   .     S
C99    C171    1.412   .     A
C100   O277    1.386   .     S
C100   C172    1.410   .     A
C101   O285    1.381   .     S
C101   C173    1.408   .     A
C101   C106    1.398   1_556 S
C102   O293    1.385   .     S
C102   C174    1.411   .     A
C102   C105    1.404   1_554 S
C103   C175    1.410   .     A
C103   O301    1.385   .     S
C103   C108    1.405   1_556 S
C104   C176    1.414   .     A
C104   O309    1.385   .     S
C104   C107    1.408   1_554 S
C105   C177    1.414   .     A
C105   O317    1.385   .     S
C105   C102    1.404   1_556 S
C106   C178    1.408   .     A
C106   O325    1.384   .     S
C106   C101    1.398   1_554 S
C107   C179    1.411   .     A
C107   O333    1.387   .     S
C107   C104    1.408   1_556 S
C108   O341    1.384   .     S
C108   C180    1.409   .     A
C108   C103    1.405   1_554 S
C109   O1257   1.279   .     S
C110   O1258   1.278   1_545 S
C111   O651    1.278   .     S
C112   O652    1.278   1_455 S
C113   O657    1.278   .     A
C113   O661    1.280   .     A
C115   O1263   1.280   .     A
C115   O1267   1.278   .     A
C117   C199    1.465   .     S
C118   C200    1.462   .     S
C119   C201    1.456   .     S
C120   C202    1.453   .     S
C121   C203    1.472   .     S
C122   C204    1.462   .     S
C123   C197    1.454   .     S
C124   C198    1.452   .     S
C125   C207    1.456   .     S
C126   C208    1.453   .     S
C127   C209    1.467   .     S
C128   C210    1.463   .     S
C129   C211    1.457   .     S
C130   C212    1.454   .     S
C131   C205    1.466   .     S
C132   C206    1.472   .     S
C133   O349    1.387   .     S
C133   C148    1.395   .     A
C133   C212    1.411   .     A
C134   C211    1.412   .     A
C134   C147    1.395   .     A
C134   O357    1.387   .     S
C135   C146    1.397   .     A
C135   C210    1.413   .     A
C135   O365    1.388   .     S
C136   O373    1.386   .     S
C136   C209    1.415   .     A
C136   C145    1.395   .     A
C137   C144    1.396   .     A
C137   O381    1.387   .     S
C137   C208    1.411   .     A
C138   C143    1.396   .     A
C138   C207    1.411   .     A
C138   O389    1.387   .     S
C139   C142    1.396   .     A
C139   C206    1.412   .     A
C139   O397    1.384   .     S
C140   C205    1.417   .     A
C140   C141    1.393   .     A
C140   O405    1.387   .     S
C141   O413    1.385   .     S
C141   C204    1.413   .     A
C142   O421    1.384   .     S
C142   C203    1.412   .     A
C143   O429    1.386   .     S
C143   C202    1.412   .     A
C144   O437    1.386   .     S
C144   C201    1.411   .     A
C145   O445    1.385   .     S
C145   C200    1.412   .     A
C146   O453    1.385   .     S
C146   C199    1.414   .     A
C147   C198    1.412   .     A
C147   O461    1.387   .     S
C148   O469    1.385   .     S
C148   C197    1.412   .     A
C149   O477    1.387   .     S
C149   C164    1.393   .     A
C149   C198    1.410   .     A
C150   C163    1.395   .     A
C150   C197    1.411   .     A
C150   O485    1.388   .     S
C151   O493    1.387   .     S
C151   C200    1.412   .     A
C151   C162    1.397   .     A
C152   C161    1.396   .     A
C152   C199    1.412   .     A
C152   O501    1.386   .     S
C153   C202    1.410   .     A
C153   C160    1.395   .     A
C153   O509    1.388   .     S
C154   C201    1.410   .     A
C154   O517    1.385   .     S
C154   C159    1.396   .     A
C155   C158    1.395   .     A
C155   O525    1.386   .     S
C155   C204    1.413   .     A
C156   O533    1.385   .     S
C156   C203    1.415   .     A
C156   C157    1.398   .     A
C157   C206    1.417   .     A
C157   O541    1.386   .     S
C158   C205    1.418   .     A
C158   O549    1.387   .     S
C159   C208    1.411   .     A
C159   O557    1.387   .     S
C160   O565    1.384   .     S
C160   C207    1.411   .     A
C161   C210    1.416   .     A
C161   O573    1.386   .     S
C162   C209    1.416   .     A
C162   O581    1.386   .     S
C163   C212    1.411   .     A
C163   O589    1.385   .     S
C164   O597    1.384   .     S
C164   C211    1.413   .     A
C165   C817    1.417   1_455 S
C166   C626    1.399   .     S
C166   C818    1.418   .     S
C167   C215    1.416   .     A
C168   C1424   1.418   .     S
C169   C213    1.417   .     A
C170   C214    1.418   .     A
C170   C622    1.399   1_455 S
C171   C1423   1.416   .     S
C172   C216    1.418   .     A
C173   C1425   1.417   .     S
C174   C218    1.415   .     A
C175   C219    1.417   .     A
C176   C824    1.416   .     S
C177   C217    1.417   .     A
C178   C1426   1.417   .     S
C179   C823    1.417   .     S
C180   C220    1.417   .     A
C213   C769    1.417   .     S
C213   C818    1.402   .     S
C214   C770    1.418   1_455 S
C214   C817    1.402   1_455 S
C215   C216    1.403   .     A
C215   C1379   1.416   1_545 S
C216   C1376   1.418   1_545 S
C217   C1381   1.417   1_545 S
C217   C218    1.403   1_556 S
C218   C1386   1.417   1_545 S
C218   C217    1.403   1_554 S
C219   C783    1.417   1_455 S
C219   C220    1.402   1_556 S
C220   C780    1.416   1_455 S
C220   C219    1.402   1_554 S
O221   C697    1.387   .     S
O221   C826    1.414   .     S
C222   C225    1.522   .     S
C222   H224    1.116   .     S
C222   H223    1.109   .     S
C222   O825    1.414   1_455 S
C225   H228    1.111   .     S
C225   H227    1.110   .     S
C225   H226    1.109   .     S
O229   C698    1.387   1_455 S
O229   C834    1.414   1_455 S
C230   H232    1.109   .     S
C230   C233    1.522   .     S
C230   H231    1.117   .     S
C230   O833    1.414   .     S
C233   H234    1.111   .     S
C233   H236    1.109   .     S
C233   H235    1.111   .     S
O237   C1446   1.413   1_545 S
C238   H240    1.112   .     S
C238   C241    1.520   .     S
C238   H239    1.116   .     S
C238   O1445   1.413   .     S
C241   H243    1.109   .     S
C241   H244    1.111   .     S
C241   H242    1.111   .     S
O245   C1454   1.414   .     S
C246   H248    1.108   .     S
C246   H247    1.116   .     S
C246   C249    1.521   .     S
C246   O1453   1.414   1_545 S
C249   H252    1.110   .     S
C249   H251    1.108   .     S
C249   H1458   1.111   1_545 S
H250   C1457   1.111   .     S
O253   C254    1.419   .     S
C254   H256    1.113   .     S
C254   H255    1.109   .     S
C254   C257    1.521   .     S
C257   H258    1.110   .     S
C257   H260    1.111   .     S
C257   H259    1.110   .     S
O261   C262    1.416   .     S
C262   H263    1.108   .     S
C262   C265    1.519   .     S
C262   H264    1.113   .     S
C265   H267    1.111   .     S
C265   H268    1.111   .     S
C265   H266    1.110   .     S
O269   C1478   1.414   .     S
C270   H272    1.108   .     S
C270   H271    1.112   .     S
C270   C273    1.521   .     S
C270   O1477   1.414   1_545 S
C273   H276    1.110   .     S
C273   H275    1.110   .     S
C273   H1482   1.111   1_545 S
H274   C1481   1.111   .     S
O277   C278    1.414   .     S
C278   H279    1.115   .     S
C278   C281    1.522   .     S
C278   H280    1.111   .     S
C281   H284    1.110   .     S
C281   H283    1.111   .     S
C281   H282    1.111   .     S
O285   C286    1.416   .     S
C286   C289    1.522   .     S
C286   H288    1.118   .     S
C286   H287    1.110   .     S
C289   H292    1.109   .     S
C289   H291    1.110   .     S
C289   H290    1.110   1_556 S
H290   C289    1.110   1_554 S
O293   C294    1.413   .     S
C294   H295    1.108   .     S
C294   C297    1.521   .     S
C294   H296    1.115   .     S
C297   H299    1.110   .     S
C297   H298    1.110   .     S
C297   H300    1.112   .     S
O301   C302    1.417   .     S
C302   H304    1.117   .     S
C302   C305    1.524   .     S
C302   H303    1.111   .     S
C305   H307    1.111   .     S
C305   H308    1.110   .     S
C305   H306    1.109   1_556 S
H306   C305    1.109   1_554 S
O309   C310    1.417   .     S
C310   H311    1.112   .     S
C310   C313    1.520   .     S
C310   H312    1.112   .     S
C313   H315    1.110   .     S
C313   H314    1.111   .     S
C313   H316    1.111   .     S
O317   C318    1.416   .     S
C318   H320    1.115   .     S
C318   H319    1.108   .     S
C318   C321    1.521   .     S
C321   H322    1.109   .     S
C321   H324    1.111   .     S
C321   H323    1.110   .     S
O325   C326    1.416   .     S
C326   H327    1.110   .     S
C326   C329    1.526   .     S
C326   H328    1.116   .     S
C329   H331    1.110   .     S
C329   H332    1.110   .     S
C329   H330    1.110   1_554 S
H330   C329    1.110   1_556 S
O333   C334    1.412   .     S
C334   C337    1.521   .     S
C334   H335    1.116   .     S
C334   H336    1.109   .     S
C337   H340    1.110   .     S
C337   H338    1.111   .     S
C337   H339    1.110   .     S
O341   C342    1.412   .     S
C342   H343    1.114   .     S
C342   C345    1.521   .     S
C342   H344    1.112   .     S
C345   H348    1.111   .     S
C345   H347    1.110   .     S
C345   H346    1.111   .     S
O349   C350    1.417   .     S
C350   H351    1.115   .     S
C350   C353    1.521   .     S
C350   H352    1.110   .     S
C353   H355    1.111   .     S
C353   H354    1.111   .     S
C353   H356    1.111   .     S
O357   C358    1.417   .     S
C358   C361    1.521   .     S
C358   H359    1.110   .     S
C358   H360    1.115   .     S
C361   H364    1.111   .     S
C361   H363    1.108   .     S
C361   H362    1.110   .     S
O365   C366    1.419   .     S
C366   H367    1.116   .     S
C366   C369    1.521   .     S
C366   H368    1.110   .     S
C369   H372    1.110   .     S
C369   H371    1.109   .     S
C369   H370    1.111   .     S
O373   C374    1.412   .     S
C374   H375    1.112   .     S
C374   C377    1.521   .     S
C374   H376    1.103   .     S
C377   H380    1.110   .     S
C377   H379    1.106   .     S
C377   H378    1.111   .     S
O381   C382    1.417   .     S
C382   H383    1.116   .     S
C382   H384    1.110   .     S
C382   C385    1.519   .     S
C385   H387    1.109   .     S
C385   H386    1.111   .     S
C385   H388    1.110   .     S
O389   C390    1.416   .     S
C390   H392    1.115   .     S
C390   H391    1.110   .     S
C390   C393    1.520   .     S
C393   H394    1.110   .     S
C393   H396    1.111   .     S
C393   H395    1.108   .     S
O397   C398    1.412   .     S
C398   H400    1.114   .     S
C398   C401    1.521   .     S
C398   H399    1.115   .     S
C401   H402    1.111   .     S
C401   H1007   1.111   .     S
C401   H1008   1.110   .     S
H403   C1005   1.111   1_455 S
H404   C1005   1.110   1_455 S
O405   C406    1.414   .     S
C406   H407    1.113   .     S
C406   C409    1.522   .     S
C406   H408    1.104   .     S
C409   H410    1.111   .     S
C409   H412    1.110   .     S
C409   H411    1.108   .     S
O413   C414    1.417   .     S
C414   C417    1.521   .     S
C414   H416    1.110   .     S
C414   H415    1.115   .     S
C417   H419    1.106   .     S
C417   H418    1.111   .     S
C417   H420    1.110   .     S
O421   C422    1.412   .     S
C422   H423    1.114   .     S
C422   C425    1.521   .     S
C422   H424    1.112   .     S
C425   H426    1.111   .     S
C425   H427    1.107   .     S
C425   H428    1.111   .     S
O429   C430    1.414   .     S
C430   H432    1.112   .     S
C430   C433    1.521   .     S
C430   H431    1.110   .     S
C433   H436    1.110   .     S
C433   H435    1.111   .     S
C433   H434    1.110   .     S
O437   C438    1.414   .     S
C438   H439    1.112   .     S
C438   C441    1.521   .     S
C438   H440    1.111   .     S
C441   H443    1.111   .     S
C441   H442    1.111   .     S
C441   H444    1.110   .     S
O445   C446    1.416   .     S
C446   H448    1.110   .     S
C446   C449    1.520   .     S
C446   H447    1.116   .     S
C449   H451    1.106   .     S
C449   H452    1.110   .     S
C449   H450    1.111   .     S
O453   C454    1.412   .     S
C454   H455    1.111   .     S
C454   C457    1.520   .     S
C454   H456    1.106   .     S
C457   H458    1.111   .     S
C457   H460    1.111   .     S
C457   H459    1.107   .     S
O461   C462    1.415   .     S
C462   C465    1.521   .     S
C462   H463    1.110   .     S
C462   H464    1.112   .     S
C465   H466    1.110   .     S
C465   H467    1.111   .     S
C465   H468    1.110   .     S
O469   C470    1.413   .     S
C470   H472    1.110   .     S
C470   H471    1.112   .     S
C470   C473    1.519   .     S
C473   H476    1.110   .     S
C473   H474    1.111   .     S
C473   H475    1.107   .     S
O477   C478    1.418   .     S
C478   H479    1.115   .     S
C478   C481    1.522   .     S
C478   H480    1.110   .     S
C481   H483    1.111   .     S
C481   H482    1.111   .     S
C481   H484    1.111   .     S
O485   C486    1.418   .     S
C486   C489    1.521   .     S
C486   H487    1.110   .     S
C486   H488    1.115   .     S
C489   H491    1.110   .     S
C489   H490    1.110   .     S
C489   H492    1.111   .     S
O493   C494    1.419   .     S
C494   H496    1.110   .     S
C494   H495    1.115   .     S
C494   C497    1.521   .     S
C497   H500    1.111   .     S
C497   H499    1.111   .     S
C497   H498    1.111   .     S
O501   C502    1.417   .     S
C502   C505    1.523   .     S
C502   H504    1.116   .     S
C502   H503    1.111   .     S
C505   H507    1.107   .     S
C505   H506    1.109   .     S
C505   H508    1.111   .     S
O509   C510    1.418   .     S
C510   H511    1.114   .     S
C510   H512    1.110   .     S
C510   C513    1.521   .     S
C513   H515    1.109   .     S
C513   H514    1.111   .     S
C513   H516    1.109   .     S
O517   C518    1.412   .     S
C518   H519    1.112   .     S
C518   C521    1.520   .     S
C518   H520    1.112   .     S
C521   H522    1.110   .     S
C521   H524    1.110   .     S
C521   H523    1.109   .     S
O525   C526    1.417   .     S
C526   C529    1.522   .     S
C526   H528    1.110   .     S
C526   H527    1.113   .     S
C529   H532    1.111   .     S
C529   H531    1.108   .     S
C529   H530    1.111   .     S
O533   C534    1.418   .     S
C534   H535    1.111   .     S
C534   C537    1.520   .     S
C534   H536    1.113   .     S
C537   H540    1.111   .     S
C537   H539    1.109   .     S
C537   H538    1.111   .     S
O541   C542    1.414   .     S
C542   H543    1.107   .     S
C542   C545    1.522   .     S
C542   H544    1.115   .     S
C545   H548    1.111   .     S
C545   H547    1.110   .     S
C545   H546    1.110   .     S
O549   C550    1.413   .     S
C550   C553    1.522   .     S
C550   H552    1.106   .     S
C550   H551    1.114   .     S
C553   H554    1.111   .     S
C553   H555    1.109   .     S
C553   H556    1.109   .     S
O557   C558    1.417   .     S
C558   C561    1.521   .     S
C558   H559    1.116   .     S
C558   H560    1.110   .     S
C561   H563    1.110   .     S
C561   H562    1.111   .     S
C561   H564    1.110   .     S
O565   C566    1.412   .     S
C566   H567    1.112   .     S
C566   C569    1.518   .     S
C566   H568    1.111   .     S
C569   H572    1.110   .     S
C569   H571    1.108   .     S
C569   H570    1.110   .     S
O573   C574    1.415   .     S
C574   H576    1.112   .     S
C574   C577    1.521   .     S
C574   H575    1.106   .     S
C577   H578    1.109   .     S
C577   H579    1.107   .     S
C577   H580    1.110   .     S
O581   C582    1.412   .     S
C582   H583    1.113   .     S
C582   H584    1.108   .     S
C582   C585    1.521   .     S
C585   H586    1.111   .     S
C585   H588    1.110   .     S
C585   H587    1.108   .     S
O589   C590    1.412   .     S
C590   C593    1.520   .     S
C590   H592    1.112   .     S
C590   H591    1.111   .     S
C593   H595    1.108   .     S
C593   H594    1.111   .     S
C593   H596    1.110   .     S
O597   C598    1.410   .     S
C598   C601    1.519   .     S
C598   H599    1.113   .     S
C598   H600    1.108   .     S
C601   H602    1.111   .     S
C601   H604    1.110   .     S
C601   H603    1.104   .     S
Zn605  O1896   1.935   1_545 S
Zn605  O645    1.949   .     S
Zn605  O660    1.937   .     S
Zn605  O691    1.948   .     S
Zn606  O659    1.937   .     S
Zn606  O1900   1.948   1_545 S
Zn606  O646    1.949   .     S
Zn606  O687    1.935   .     S
Zn607  O662    1.936   .     S
Zn607  O647    1.951   .     S
Zn607  O682    1.947   .     S
Zn608  O661    1.936   .     S
Zn608  O648    1.951   .     S
Zn608  O690    1.935   .     S
Zn609  O1903   1.946   1_545 S
Zn609  O645    1.946   .     S
Zn609  O664    1.938   .     S
Zn609  O684    1.937   .     S
Zn610  O1891   1.937   1_545 S
Zn610  O663    1.938   .     S
Zn610  O646    1.946   .     S
Zn610  O696    1.946   .     S
Zn611  O647    1.944   .     S
Zn611  O658    1.939   .     S
Zn611  O693    1.937   .     S
Zn612  O657    1.939   .     S
Zn612  O648    1.944   .     S
Zn612  O685    1.947   .     S
Zn613  O652    1.937   .     S
Zn613  O675    1.948   .     S
Zn613  O672    1.935   .     S
Zn613  O44     1.949   1_655 S
Zn614  O651    1.937   .     S
Zn614  O676    1.948   .     S
Zn614  O671    1.935   .     S
Zn614  O647    1.949   .     S
Zn615  O666    1.947   .     S
Zn615  O673    1.935   .     S
Zn615  O654    1.936   .     S
Zn615  O1854   1.951   .     S
Zn616  O653    1.936   .     S
Zn616  O674    1.935   .     S
Zn616  O645    1.951   .     S
Zn616  O665    1.947   .     S
Zn617  O648    1.946   .     S
Zn617  O679    1.946   .     S
Zn617  O656    1.938   .     S
Zn617  O668    1.937   .     S
Zn618  O680    1.946   .     S
Zn618  O655    1.938   .     S
Zn618  O667    1.937   .     S
Zn618  O43     1.946   1_655 S
Zn619  O670    1.947   .     S
Zn619  O677    1.937   .     S
Zn619  O646    1.944   .     S
Zn619  O650    1.939   .     S
Zn620  O649    1.939   .     S
Zn620  O669    1.947   .     S
Zn620  O678    1.937   .     S
Zn620  O1853   1.944   .     S
C621   C773    1.400   .     A
C621   H785    1.083   .     S
C621   C637    1.390   .     A
C622   H786    1.083   .     S
C622   C34     1.390   1_655 S
C622   C170    1.399   1_655 S
C623   C639    1.390   .     A
C623   C775    1.400   .     A
C623   H787    1.082   .     S
C624   H788    1.084   .     S
C624   C640    1.392   .     A
C624   C776    1.399   .     A
C625   C769    1.399   .     A
C625   H789    1.081   .     S
C626   C638    1.393   .     A
C626   H790    1.082   .     S
C627   C771    1.398   .     A
C627   H791    1.084   .     S
C627   C1847   1.391   1_545 S
C628   H792    1.079   .     S
C628   C772    1.398   .     A
C628   C1848   1.391   .     S
C629   C781    1.399   .     A
C629   H793    1.081   .     S
C629   C1849   1.393   1_545 S
C630   H794    1.084   .     S
C630   C782    1.396   .     A
C630   C1850   1.391   .     S
C631   C783    1.399   .     A
C631   C643    1.394   .     A
C631   H795    1.083   .     S
C632   C644    1.392   .     A
C632   C784    1.399   .     A
C632   H796    1.083   .     S
C633   H797    1.083   .     S
C633   C641    1.392   .     A
C633   C777    1.397   .     A
C634   C642    1.394   .     A
C634   C778    1.400   .     A
C634   H798    1.082   .     S
C635   H799    1.084   .     S
C635   C779    1.397   .     A
C636   H800    1.083   .     S
C636   C780    1.399   .     A
C636   C40     1.390   1_655 S
C637   C715    1.444   .     S
C637   C21     1.391   1_655 S
C638   C716    1.444   .     S
C639   C713    1.443   .     S
C639   C1835   1.391   .     S
C640   C714    1.445   .     S
C640   C1836   1.391   1_545 S
C641   C719    1.445   .     S
C641   C1837   1.393   .     S
C642   C720    1.444   .     S
C642   C1838   1.391   1_545 S
C643   C717    1.445   .     S
C643   C31     1.392   1_655 S
C644   C718    1.444   .     S
O645   Zn1828  1.944   1_545 S
O646   Zn1823  1.951   1_545 S
O649   C713    1.278   .     A
O650   C714    1.279   .     A
O652   C112    1.278   1_655 S
O653   C1921   1.279   1_545 S
O654   C1922   1.278   .     S
O655   C715    1.279   .     A
O656   C716    1.279   .     A
O658   C718    1.279   .     A
O659   C1927   1.280   1_545 A
O660   C720    1.279   .     A
O662   C718    1.278   .     S
O663   C1927   1.278   1_545 A
O664   C720    1.278   .     A
O665   C721    1.283   .     A
O666   C722    1.283   .     A
O667   C723    1.280   .     A
O668   C724    1.281   .     A
O669   C725    1.283   .     A
O670   C726    1.279   .     A
O671   C727    1.281   .     A
O672   C728    1.280   .     A
O673   C729    1.279   .     A
O674   C730    1.280   .     A
O675   C731    1.283   .     A
O676   C732    1.278   .     A
O677   C733    1.278   .     A
O678   C734    1.278   .     A
O679   C735    1.279   .     A
O680   C736    1.279   .     A
O681   Zn4     1.947   1_655 S
O681   C731    1.281   .     A
O682   C732    1.284   .     A
O683   Zn1818  1.937   .     S
O683   C729    1.282   .     A
O684   C730    1.280   .     A
O685   C735    1.280   .     A
O686   C736    1.282   .     A
O686   Zn7     1.947   1_655 S
O687   C733    1.283   .     A
O688   C734    1.281   .     A
O688   Zn1813  1.935   .     S
O689   Zn3     1.935   1_655 S
O689   C723    1.281   .     A
O690   C724    1.278   .     A
O691   C721    1.281   .     A
O692   C722    1.279   .     A
O692   Zn1814  1.948   .     S
O693   C727    1.278   .     A
O694   Zn8     1.937   1_655 S
O694   C728    1.277   .     A
O695   Zn1817  1.946   .     S
O695   C725    1.278   .     A
O696   C726    1.277   .     A
C697   C769    1.410   .     A
C697   C702    1.407   .     A
C698   C701    1.408   .     A
C698   C770    1.411   .     A
C698   O229    1.387   1_655 S
C699   O841    1.384   .     S
C699   C771    1.407   .     A
C699   C704    1.410   .     A
C700   C703    1.404   .     A
C700   O849    1.385   .     S
C700   C772    1.413   .     A
C701   O857    1.387   .     S
C701   C773    1.415   .     A
C702   C774    1.414   .     A
C702   O865    1.385   .     S
C703   O873    1.386   .     S
C703   C775    1.412   .     A
C704   O881    1.386   .     S
C704   C776    1.410   .     A
C705   O889    1.381   .     S
C705   C777    1.408   .     A
C705   C710    1.398   1_556 S
C706   O897    1.385   .     S
C706   C778    1.411   .     A
C706   C709    1.404   1_554 S
C707   C779    1.410   .     A
C707   O905    1.385   .     S
C707   C712    1.405   1_556 S
C708   C780    1.414   .     A
C708   O913    1.385   .     S
C708   C711    1.408   1_554 S
C709   C781    1.414   .     A
C709   O921    1.385   .     S
C709   C706    1.404   1_556 S
C710   C782    1.408   .     A
C710   O929    1.384   .     S
C710   C705    1.398   1_554 S
C711   C783    1.411   .     A
C711   O937    1.387   .     S
C711   C708    1.408   1_556 S
C712   O945    1.384   .     S
C712   C784    1.409   .     A
C712   C707    1.405   1_554 S
C713   O1861   1.279   .     S
C714   O1862   1.278   1_545 S
C715   O47     1.278   1_655 S
C717   O53     1.278   1_655 A
C717   O57     1.280   1_655 A
C719   O1867   1.280   .     A
C719   O1871   1.278   .     A
C721   C803    1.465   .     S
C722   C804    1.462   .     S
C723   C805    1.456   .     S
C724   C806    1.453   .     S
C725   C807    1.472   .     S
C726   C808    1.462   .     S
C727   C801    1.454   .     S
C728   C802    1.452   .     S
C729   C811    1.456   .     S
C730   C812    1.453   .     S
C731   C813    1.467   .     S
C732   C814    1.463   .     S
C733   C815    1.457   .     S
C734   C816    1.454   .     S
C735   C809    1.466   .     S
C736   C810    1.472   .     S
C737   O953    1.387   .     S
C737   C752    1.395   .     A
C737   C816    1.411   .     A
C738   C815    1.412   .     A
C738   C751    1.395   .     A
C738   O961    1.387   .     S
C739   C750    1.397   .     A
C739   C814    1.413   .     A
C739   O969    1.388   .     S
C740   O977    1.386   .     S
C740   C813    1.415   .     A
C740   C749    1.395   .     A
C741   C748    1.396   .     A
C741   O985    1.387   .     S
C741   C812    1.411   .     A
C742   C747    1.396   .     A
C742   C811    1.411   .     A
C742   O993    1.387   .     S
C743   C746    1.396   .     A
C743   C810    1.412   .     A
C743   O1001   1.384   .     S
C744   C809    1.417   .     A
C744   C745    1.393   .     A
C744   O1009   1.387   .     S
C745   O1017   1.385   .     S
C745   C808    1.413   .     A
C746   O1025   1.384   .     S
C746   C807    1.412   .     A
C747   O1033   1.386   .     S
C747   C806    1.412   .     A
C748   O1041   1.386   .     S
C748   C805    1.411   .     A
C749   O1049   1.385   .     S
C749   C804    1.412   .     A
C750   O1057   1.385   .     S
C750   C803    1.414   .     A
C751   C802    1.412   .     A
C751   O1065   1.387   .     S
C752   O1073   1.385   .     S
C752   C801    1.412   .     A
C753   O1081   1.387   .     S
C753   C768    1.393   .     A
C753   C802    1.410   .     A
C754   C767    1.395   .     A
C754   C801    1.411   .     A
C754   O1089   1.388   .     S
C755   O1097   1.387   .     S
C755   C804    1.412   .     A
C755   C766    1.397   .     A
C756   C765    1.396   .     A
C756   C803    1.412   .     A
C756   O1105   1.386   .     S
C757   C806    1.410   .     A
C757   C764    1.395   .     A
C757   O1113   1.388   .     S
C758   C805    1.410   .     A
C758   O1121   1.385   .     S
C758   C763    1.396   .     A
C759   C762    1.395   .     A
C759   O1129   1.386   .     S
C759   C808    1.413   .     A
C760   O1137   1.385   .     S
C760   C807    1.415   .     A
C760   C761    1.398   .     A
C761   C810    1.417   .     A
C761   O1145   1.386   .     S
C762   C809    1.418   .     A
C762   O1153   1.387   .     S
C763   C812    1.411   .     A
C763   O1161   1.387   .     S
C764   O1169   1.384   .     S
C764   C811    1.411   .     A
C765   C814    1.416   .     A
C765   O1177   1.386   .     S
C766   C813    1.416   .     A
C766   O1185   1.386   .     S
C767   C816    1.411   .     A
C767   O1193   1.385   .     S
C768   O1201   1.384   .     S
C768   C815    1.413   .     A
C770   C22     1.399   1_655 S
C770   C214    1.418   1_655 S
C771   C819    1.416   .     A
C772   C2028   1.418   .     S
C773   C817    1.417   .     A
C774   C818    1.418   .     A
C775   C2027   1.416   .     S
C776   C820    1.418   .     A
C777   C2029   1.417   .     S
C778   C822    1.415   .     A
C779   C823    1.417   .     A
C780   C220    1.416   1_655 S
C781   C821    1.417   .     A
C782   C2030   1.417   .     S
C783   C219    1.417   1_655 S
C784   C824    1.417   .     A
C817   C165    1.417   1_655 S
C817   C214    1.402   1_655 S
C819   C820    1.403   .     A
C819   C1983   1.416   1_545 S
C820   C1980   1.418   1_545 S
C821   C1985   1.417   1_545 S
C821   C822    1.403   1_556 S
C822   C1990   1.417   1_545 S
C822   C821    1.403   1_554 S
C823   C824    1.402   1_556 S
C824   C823    1.402   1_554 S
O825   C93     1.387   1_655 S
O825   C222    1.414   1_655 S
C826   C829    1.522   .     S
C826   H828    1.116   .     S
C826   H827    1.109   .     S
C829   H832    1.111   .     S
C829   H831    1.110   .     S
C829   H830    1.109   .     S
C834   H836    1.109   .     S
C834   C837    1.522   .     S
C834   H835    1.117   .     S
C834   O229    1.414   1_655 S
C837   H838    1.111   .     S
C837   H840    1.109   .     S
C837   H839    1.111   .     S
O841   C2050   1.413   1_545 S
C842   H844    1.112   .     S
C842   C845    1.520   .     S
C842   H843    1.116   .     S
C842   O2049   1.413   .     S
C845   H847    1.109   .     S
C845   H848    1.111   .     S
C845   H846    1.111   .     S
O849   C2058   1.414   .     S
C850   H852    1.108   .     S
C850   H851    1.116   .     S
C850   C853    1.521   .     S
C850   O2057   1.414   1_545 S
C853   H856    1.110   .     S
C853   H855    1.108   .     S
C853   H2062   1.111   1_545 S
H854   C2061   1.111   .     S
O857   C858    1.419   .     S
C858   H860    1.113   .     S
C858   H859    1.109   .     S
C858   C861    1.521   .     S
C861   H862    1.110   .     S
C861   H864    1.111   .     S
C861   H863    1.110   .     S
O865   C866    1.416   .     S
C866   H867    1.108   .     S
C866   C869    1.519   .     S
C866   H868    1.113   .     S
C869   H871    1.111   .     S
C869   H872    1.111   .     S
C869   H870    1.110   .     S
O873   C2082   1.414   .     S
C874   H876    1.108   .     S
C874   H875    1.112   .     S
C874   C877    1.521   .     S
C874   O2081   1.414   1_545 S
C877   H880    1.110   .     S
C877   H879    1.110   .     S
C877   H2086   1.111   1_545 S
H878   C2085   1.111   .     S
O881   C882    1.414   .     S
C882   H883    1.115   .     S
C882   C885    1.522   .     S
C882   H884    1.111   .     S
C885   H888    1.110   .     S
C885   H887    1.111   .     S
C885   H886    1.111   .     S
O889   C890    1.416   .     S
C890   C893    1.522   .     S
C890   H892    1.118   .     S
C890   H891    1.110   .     S
C893   H896    1.109   .     S
C893   H895    1.110   .     S
C893   H894    1.110   1_556 S
H894   C893    1.110   1_554 S
O897   C898    1.413   .     S
C898   H899    1.108   .     S
C898   C901    1.521   .     S
C898   H900    1.115   .     S
C901   H903    1.110   .     S
C901   H902    1.110   .     S
C901   H904    1.112   .     S
O905   C906    1.417   .     S
C906   H908    1.117   .     S
C906   C909    1.524   .     S
C906   H907    1.111   .     S
C909   H911    1.111   .     S
C909   H912    1.110   .     S
C909   H910    1.109   1_556 S
H910   C909    1.109   1_554 S
O913   C914    1.417   .     S
C914   H915    1.112   .     S
C914   C917    1.520   .     S
C914   H916    1.112   .     S
C917   H919    1.110   .     S
C917   H918    1.111   .     S
C917   H920    1.111   .     S
O921   C922    1.416   .     S
C922   H924    1.115   .     S
C922   H923    1.108   .     S
C922   C925    1.521   .     S
C925   H926    1.109   .     S
C925   H928    1.111   .     S
C925   H927    1.110   .     S
O929   C930    1.416   .     S
C930   H931    1.110   .     S
C930   C933    1.526   .     S
C930   H932    1.116   .     S
C933   H935    1.110   .     S
C933   H936    1.110   .     S
C933   H934    1.110   1_554 S
H934   C933    1.110   1_556 S
O937   C938    1.412   .     S
C938   C941    1.521   .     S
C938   H939    1.116   .     S
C938   H940    1.109   .     S
C941   H944    1.110   .     S
C941   H942    1.111   .     S
C941   H943    1.110   .     S
O945   C946    1.412   .     S
C946   H947    1.114   .     S
C946   C949    1.521   .     S
C946   H948    1.112   .     S
C949   H952    1.111   .     S
C949   H951    1.110   .     S
C949   H950    1.111   .     S
O953   C954    1.417   .     S
C954   H955    1.115   .     S
C954   C957    1.521   .     S
C954   H956    1.110   .     S
C957   H959    1.111   .     S
C957   H958    1.111   .     S
C957   H960    1.111   .     S
O961   C962    1.417   .     S
C962   C965    1.521   .     S
C962   H963    1.110   .     S
C962   H964    1.115   .     S
C965   H968    1.111   .     S
C965   H967    1.108   .     S
C965   H966    1.110   .     S
O969   C970    1.419   .     S
C970   H971    1.116   .     S
C970   C973    1.521   .     S
C970   H972    1.110   .     S
C973   H976    1.110   .     S
C973   H975    1.109   .     S
C973   H974    1.111   .     S
O977   C978    1.412   .     S
C978   H979    1.112   .     S
C978   C981    1.521   .     S
C978   H980    1.103   .     S
C981   H984    1.110   .     S
C981   H983    1.106   .     S
C981   H982    1.111   .     S
O985   C986    1.417   .     S
C986   H987    1.116   .     S
C986   H988    1.110   .     S
C986   C989    1.519   .     S
C989   H991    1.109   .     S
C989   H990    1.111   .     S
C989   H992    1.110   .     S
O993   C994    1.416   .     S
C994   H996    1.115   .     S
C994   H995    1.110   .     S
C994   C997    1.520   .     S
C997   H998    1.110   .     S
C997   H1000   1.111   .     S
C997   H999    1.108   .     S
O1001  C1002   1.412   .     S
C1002  H1004   1.114   .     S
C1002  C1005   1.521   .     S
C1002  H1003   1.115   .     S
C1005  H1006   1.111   .     S
C1005  H403    1.111   1_655 S
C1005  H404    1.110   1_655 S
O1009  C1010   1.414   .     S
C1010  H1011   1.113   .     S
C1010  C1013   1.522   .     S
C1010  H1012   1.104   .     S
C1013  H1014   1.111   .     S
C1013  H1016   1.110   .     S
C1013  H1015   1.108   .     S
O1017  C1018   1.417   .     S
C1018  C1021   1.521   .     S
C1018  H1020   1.110   .     S
C1018  H1019   1.115   .     S
C1021  H1023   1.106   .     S
C1021  H1022   1.111   .     S
C1021  H1024   1.110   .     S
O1025  C1026   1.412   .     S
C1026  H1027   1.114   .     S
C1026  C1029   1.521   .     S
C1026  H1028   1.112   .     S
C1029  H1030   1.111   .     S
C1029  H1031   1.107   .     S
C1029  H1032   1.111   .     S
O1033  C1034   1.414   .     S
C1034  H1036   1.112   .     S
C1034  C1037   1.521   .     S
C1034  H1035   1.110   .     S
C1037  H1040   1.110   .     S
C1037  H1039   1.111   .     S
C1037  H1038   1.110   .     S
O1041  C1042   1.414   .     S
C1042  H1043   1.112   .     S
C1042  C1045   1.521   .     S
C1042  H1044   1.111   .     S
C1045  H1047   1.111   .     S
C1045  H1046   1.111   .     S
C1045  H1048   1.110   .     S
O1049  C1050   1.416   .     S
C1050  H1052   1.110   .     S
C1050  C1053   1.520   .     S
C1050  H1051   1.116   .     S
C1053  H1055   1.106   .     S
C1053  H1056   1.110   .     S
C1053  H1054   1.111   .     S
O1057  C1058   1.412   .     S
C1058  H1059   1.111   .     S
C1058  C1061   1.520   .     S
C1058  H1060   1.106   .     S
C1061  H1062   1.111   .     S
C1061  H1064   1.111   .     S
C1061  H1063   1.107   .     S
O1065  C1066   1.415   .     S
C1066  C1069   1.521   .     S
C1066  H1067   1.110   .     S
C1066  H1068   1.112   .     S
C1069  H1070   1.110   .     S
C1069  H1071   1.111   .     S
C1069  H1072   1.110   .     S
O1073  C1074   1.413   .     S
C1074  H1076   1.110   .     S
C1074  H1075   1.112   .     S
C1074  C1077   1.519   .     S
C1077  H1080   1.110   .     S
C1077  H1078   1.111   .     S
C1077  H1079   1.107   .     S
O1081  C1082   1.418   .     S
C1082  H1083   1.115   .     S
C1082  C1085   1.522   .     S
C1082  H1084   1.110   .     S
C1085  H1087   1.111   .     S
C1085  H1086   1.111   .     S
C1085  H1088   1.111   .     S
O1089  C1090   1.418   .     S
C1090  C1093   1.521   .     S
C1090  H1091   1.110   .     S
C1090  H1092   1.115   .     S
C1093  H1095   1.110   .     S
C1093  H1094   1.110   .     S
C1093  H1096   1.111   .     S
O1097  C1098   1.419   .     S
C1098  H1100   1.110   .     S
C1098  H1099   1.115   .     S
C1098  C1101   1.521   .     S
C1101  H1104   1.111   .     S
C1101  H1103   1.111   .     S
C1101  H1102   1.111   .     S
O1105  C1106   1.417   .     S
C1106  C1109   1.523   .     S
C1106  H1108   1.116   .     S
C1106  H1107   1.111   .     S
C1109  H1111   1.107   .     S
C1109  H1110   1.109   .     S
C1109  H1112   1.111   .     S
O1113  C1114   1.418   .     S
C1114  H1115   1.114   .     S
C1114  H1116   1.110   .     S
C1114  C1117   1.521   .     S
C1117  H1119   1.109   .     S
C1117  H1118   1.111   .     S
C1117  H1120   1.109   .     S
O1121  C1122   1.412   .     S
C1122  H1123   1.112   .     S
C1122  C1125   1.520   .     S
C1122  H1124   1.112   .     S
C1125  H1126   1.110   .     S
C1125  H1128   1.110   .     S
C1125  H1127   1.109   .     S
O1129  C1130   1.417   .     S
C1130  C1133   1.522   .     S
C1130  H1132   1.110   .     S
C1130  H1131   1.113   .     S
C1133  H1136   1.111   .     S
C1133  H1135   1.108   .     S
C1133  H1134   1.111   .     S
O1137  C1138   1.418   .     S
C1138  H1139   1.111   .     S
C1138  C1141   1.520   .     S
C1138  H1140   1.113   .     S
C1141  H1144   1.111   .     S
C1141  H1143   1.109   .     S
C1141  H1142   1.111   .     S
O1145  C1146   1.414   .     S
C1146  H1147   1.107   .     S
C1146  C1149   1.522   .     S
C1146  H1148   1.115   .     S
C1149  H1152   1.111   .     S
C1149  H1151   1.110   .     S
C1149  H1150   1.110   .     S
O1153  C1154   1.413   .     S
C1154  C1157   1.522   .     S
C1154  H1156   1.106   .     S
C1154  H1155   1.114   .     S
C1157  H1158   1.111   .     S
C1157  H1159   1.109   .     S
C1157  H1160   1.109   .     S
O1161  C1162   1.417   .     S
C1162  C1165   1.521   .     S
C1162  H1163   1.116   .     S
C1162  H1164   1.110   .     S
C1165  H1167   1.110   .     S
C1165  H1166   1.111   .     S
C1165  H1168   1.110   .     S
O1169  C1170   1.412   .     S
C1170  H1171   1.112   .     S
C1170  C1173   1.518   .     S
C1170  H1172   1.111   .     S
C1173  H1176   1.110   .     S
C1173  H1175   1.108   .     S
C1173  H1174   1.110   .     S
O1177  C1178   1.415   .     S
C1178  H1180   1.112   .     S
C1178  C1181   1.521   .     S
C1178  H1179   1.106   .     S
C1181  H1182   1.109   .     S
C1181  H1183   1.107   .     S
C1181  H1184   1.110   .     S
O1185  C1186   1.412   .     S
C1186  H1187   1.113   .     S
C1186  H1188   1.108   .     S
C1186  C1189   1.521   .     S
C1189  H1190   1.111   .     S
C1189  H1192   1.110   .     S
C1189  H1191   1.108   .     S
O1193  C1194   1.412   .     S
C1194  C1197   1.520   .     S
C1194  H1196   1.112   .     S
C1194  H1195   1.111   .     S
C1197  H1199   1.108   .     S
C1197  H1198   1.111   .     S
C1197  H1200   1.110   .     S
O1201  C1202   1.410   .     S
C1202  C1205   1.519   .     S
C1202  H1203   1.113   .     S
C1202  H1204   1.108   .     S
C1205  H1206   1.111   .     S
C1205  H1208   1.110   .     S
C1205  H1207   1.104   .     S
Zn1209 O1249   1.949   .     S
Zn1209 O1264   1.937   .     S
Zn1209 O1295   1.948   .     S
Zn1210 O1263   1.937   .     S
Zn1210 O1250   1.949   .     S
Zn1210 O1291   1.935   .     S
Zn1211 O1897   1.935   1_455 S
Zn1211 O1266   1.936   .     S
Zn1211 O1251   1.951   .     S
Zn1211 O1286   1.947   .     S
Zn1212 O1889   1.947   1_455 S
Zn1212 O1265   1.936   .     S
Zn1212 O1252   1.951   .     S
Zn1212 O1294   1.935   .     S
Zn1213 O1249   1.946   .     S
Zn1213 O1268   1.938   .     S
Zn1213 O1288   1.937   .     S
Zn1214 O1267   1.938   .     S
Zn1214 O1250   1.946   .     S
Zn1214 O1300   1.946   .     S
Zn1215 O1894   1.947   1_455 S
Zn1215 O1251   1.944   .     S
Zn1215 O1262   1.939   .     S
Zn1215 O1297   1.937   .     S
Zn1216 O1261   1.939   .     S
Zn1216 O1902   1.937   1_455 S
Zn1216 O1252   1.944   .     S
Zn1216 O1289   1.947   .     S
Zn1217 O1256   1.937   .     S
Zn1217 O1279   1.948   .     S
Zn1217 O1276   1.935   .     S
Zn1217 O1856   1.949   .     S
Zn1218 O1255   1.937   .     S
Zn1218 O1280   1.948   .     S
Zn1218 O1275   1.935   .     S
Zn1218 O1251   1.949   .     S
Zn1219 O1270   1.947   .     S
Zn1219 O1277   1.935   .     S
Zn1219 O1258   1.936   .     S
Zn1219 O42     1.951   1_565 S
Zn1220 O1257   1.936   .     S
Zn1220 O1278   1.935   .     S
Zn1220 O1249   1.951   .     S
Zn1220 O1269   1.947   .     S
Zn1221 O1252   1.946   .     S
Zn1221 O1283   1.946   .     S
Zn1221 O1260   1.938   .     S
Zn1221 O1272   1.937   .     S
Zn1222 O1284   1.946   .     S
Zn1222 O1259   1.938   .     S
Zn1222 O1271   1.937   .     S
Zn1222 O1855   1.946   .     S
Zn1223 O1274   1.947   .     S
Zn1223 O1281   1.937   .     S
Zn1223 O1250   1.944   .     S
Zn1223 O1254   1.939   .     S
Zn1224 O1253   1.939   .     S
Zn1224 O1273   1.947   .     S
Zn1224 O1282   1.937   .     S
Zn1224 O41     1.944   1_565 S
C1225  C1377   1.400   .     A
C1225  H1389   1.083   .     S
C1225  C1241   1.390   .     A
C1226  H1390   1.083   .     S
C1226  C1846   1.390   .     S
C1226  C1982   1.399   .     S
C1227  C1243   1.390   .     A
C1227  C1379   1.400   .     A
C1227  H1391   1.082   .     S
C1228  H1392   1.084   .     S
C1228  C1244   1.392   .     A
C1228  C1380   1.399   .     A
C1229  C1373   1.399   .     A
C1229  H1393   1.081   .     S
C1229  C1845   1.391   1_455 S
C1230  C1242   1.393   .     A
C1230  H1394   1.082   .     S
C1230  C1978   1.399   1_455 S
C1231  C1375   1.398   .     A
C1231  H1395   1.084   .     S
C1232  H1396   1.079   .     S
C1232  C1376   1.398   .     A
C1232  C36     1.391   1_565 S
C1233  C1385   1.399   .     A
C1233  H1397   1.081   .     S
C1234  H1398   1.084   .     S
C1234  C1386   1.396   .     A
C1234  C38     1.391   1_565 S
C1235  C1387   1.399   .     A
C1235  C1247   1.394   .     A
C1235  H1399   1.083   .     S
C1236  C1248   1.392   .     A
C1236  C1388   1.399   .     A
C1236  H1400   1.083   .     S
C1237  H1401   1.083   .     S
C1237  C1245   1.392   .     A
C1237  C1381   1.397   .     A
C1238  C1246   1.394   .     A
C1238  C1382   1.400   .     A
C1238  H1402   1.082   .     S
C1239  H1403   1.084   .     S
C1239  C1383   1.397   .     A
C1239  C1851   1.392   1_455 S
C1240  H1404   1.083   .     S
C1240  C1384   1.399   .     A
C1240  C1852   1.390   .     S
C1241  C1319   1.444   .     S
C1241  C1833   1.391   .     S
C1242  C1320   1.444   .     S
C1242  C1830   1.390   1_455 S
C1243  C1317   1.443   .     S
C1243  C23     1.391   1_565 S
C1244  C1318   1.445   .     S
C1245  C1323   1.445   .     S
C1245  C25     1.393   1_565 S
C1246  C1324   1.444   .     S
C1247  C1321   1.445   .     S
C1247  C1843   1.392   .     S
C1248  C1322   1.444   .     S
C1248  C1844   1.390   1_455 S
O1251  Zn1826  1.946   1_455 S
O1252  Zn1821  1.949   1_455 S
O1253  C1317   1.278   .     A
O1254  C1318   1.279   .     A
O1255  C1923   1.278   1_455 S
O1256  C1924   1.278   .     S
O1258  C110    1.278   1_565 S
O1259  C1319   1.279   .     A
O1260  C1320   1.279   .     A
O1261  C1925   1.278   1_455 A
O1262  C1322   1.279   .     A
O1264  C1324   1.279   .     A
O1265  C1925   1.280   1_455 A
O1266  C1322   1.278   .     S
O1268  C1324   1.278   .     A
O1269  C1325   1.283   .     A
O1270  C1326   1.283   .     A
O1271  C1327   1.280   .     A
O1272  C1328   1.281   .     A
O1273  C1329   1.283   .     A
O1274  C1330   1.279   .     A
O1275  C1331   1.281   .     A
O1276  C1332   1.280   .     A
O1277  C1333   1.279   .     A
O1278  C1334   1.280   .     A
O1279  C1335   1.283   .     A
O1280  C1336   1.278   .     A
O1281  C1337   1.278   .     A
O1282  C1338   1.278   .     A
O1283  C1339   1.279   .     A
O1284  C1340   1.279   .     A
O1285  Zn1816  1.947   .     S
O1285  C1335   1.281   .     A
O1286  C1336   1.284   .     A
O1287  Zn6     1.937   1_565 S
O1287  C1333   1.282   .     A
O1288  C1334   1.280   .     A
O1289  C1339   1.280   .     A
O1290  C1340   1.282   .     A
O1290  Zn1819  1.947   .     S
O1291  C1337   1.283   .     A
O1292  C1338   1.281   .     A
O1292  Zn1     1.935   1_565 S
O1293  Zn1815  1.935   .     S
O1293  C1327   1.281   .     A
O1294  C1328   1.278   .     A
O1295  C1325   1.281   .     A
O1296  C1326   1.279   .     A
O1296  Zn2     1.948   1_565 S
O1297  C1331   1.278   .     A
O1298  Zn1820  1.937   .     S
O1298  C1332   1.277   .     A
O1299  Zn5     1.946   1_565 S
O1299  C1329   1.278   .     A
O1300  C1330   1.277   .     A
C1301  C1373   1.410   .     A
C1301  C1306   1.407   .     A
C1301  O2033   1.387   1_455 S
C1302  C1305   1.408   .     A
C1302  C1374   1.411   .     A
C1302  O2041   1.387   .     S
C1303  O1445   1.384   .     S
C1303  C1375   1.407   .     A
C1303  C1308   1.410   .     A
C1304  C1307   1.404   .     A
C1304  O1453   1.385   .     S
C1304  C1376   1.413   .     A
C1305  O1461   1.387   .     S
C1305  C1377   1.415   .     A
C1306  C1378   1.414   .     A
C1306  O1469   1.385   .     S
C1307  O1477   1.386   .     S
C1307  C1379   1.412   .     A
C1308  O1485   1.386   .     S
C1308  C1380   1.410   .     A
C1309  O1493   1.381   .     S
C1309  C1381   1.408   .     A
C1309  C1314   1.398   1_556 S
C1310  O1501   1.385   .     S
C1310  C1382   1.411   .     A
C1310  C1313   1.404   1_554 S
C1311  C1383   1.410   .     A
C1311  O1509   1.385   .     S
C1311  C1316   1.405   1_556 S
C1312  C1384   1.414   .     A
C1312  O1517   1.385   .     S
C1312  C1315   1.408   1_554 S
C1313  C1385   1.414   .     A
C1313  O1525   1.385   .     S
C1313  C1310   1.404   1_556 S
C1314  C1386   1.408   .     A
C1314  O1533   1.384   .     S
C1314  C1309   1.398   1_554 S
C1315  C1387   1.411   .     A
C1315  O1541   1.387   .     S
C1315  C1312   1.408   1_556 S
C1316  O1549   1.384   .     S
C1316  C1388   1.409   .     A
C1316  C1311   1.405   1_554 S
C1317  O49     1.279   1_565 S
C1319  O1859   1.278   .     S
C1320  O1860   1.278   1_455 S
C1321  O1865   1.278   .     A
C1321  O1869   1.280   .     A
C1323  O55     1.280   1_565 A
C1323  O59     1.278   1_565 A
C1325  C1407   1.465   .     S
C1326  C1408   1.462   .     S
C1327  C1409   1.456   .     S
C1328  C1410   1.453   .     S
C1329  C1411   1.472   .     S
C1330  C1412   1.462   .     S
C1331  C1405   1.454   .     S
C1332  C1406   1.452   .     S
C1333  C1415   1.456   .     S
C1334  C1416   1.453   .     S
C1335  C1417   1.467   .     S
C1336  C1418   1.463   .     S
C1337  C1419   1.457   .     S
C1338  C1420   1.454   .     S
C1339  C1413   1.466   .     S
C1340  C1414   1.472   .     S
C1341  O1557   1.387   .     S
C1341  C1356   1.395   .     A
C1341  C1420   1.411   .     A
C1342  C1419   1.412   .     A
C1342  C1355   1.395   .     A
C1342  O1565   1.387   .     S
C1343  C1354   1.397   .     A
C1343  C1418   1.413   .     A
C1343  O1573   1.388   .     S
C1344  O1581   1.386   .     S
C1344  C1417   1.415   .     A
C1344  C1353   1.395   .     A
C1345  C1352   1.396   .     A
C1345  O1589   1.387   .     S
C1345  C1416   1.411   .     A
C1346  C1351   1.396   .     A
C1346  C1415   1.411   .     A
C1346  O1597   1.387   .     S
C1347  C1350   1.396   .     A
C1347  C1414   1.412   .     A
C1347  O1605   1.384   .     S
C1348  C1413   1.417   .     A
C1348  C1349   1.393   .     A
C1348  O1613   1.387   .     S
C1349  O1621   1.385   .     S
C1349  C1412   1.413   .     A
C1350  O1629   1.384   .     S
C1350  C1411   1.412   .     A
C1351  O1637   1.386   .     S
C1351  C1410   1.412   .     A
C1352  O1645   1.386   .     S
C1352  C1409   1.411   .     A
C1353  O1653   1.385   .     S
C1353  C1408   1.412   .     A
C1354  O1661   1.385   .     S
C1354  C1407   1.414   .     A
C1355  C1406   1.412   .     A
C1355  O1669   1.387   .     S
C1356  O1677   1.385   .     S
C1356  C1405   1.412   .     A
C1357  O1685   1.387   .     S
C1357  C1372   1.393   .     A
C1357  C1406   1.410   .     A
C1358  C1371   1.395   .     A
C1358  C1405   1.411   .     A
C1358  O1693   1.388   .     S
C1359  O1701   1.387   .     S
C1359  C1408   1.412   .     A
C1359  C1370   1.397   .     A
C1360  C1369   1.396   .     A
C1360  C1407   1.412   .     A
C1360  O1709   1.386   .     S
C1361  C1410   1.410   .     A
C1361  C1368   1.395   .     A
C1361  O1717   1.388   .     S
C1362  C1409   1.410   .     A
C1362  O1725   1.385   .     S
C1362  C1367   1.396   .     A
C1363  C1366   1.395   .     A
C1363  O1733   1.386   .     S
C1363  C1412   1.413   .     A
C1364  O1741   1.385   .     S
C1364  C1411   1.415   .     A
C1364  C1365   1.398   .     A
C1365  C1414   1.417   .     A
C1365  O1749   1.386   .     S
C1366  C1413   1.418   .     A
C1366  O1757   1.387   .     S
C1367  C1416   1.411   .     A
C1367  O1765   1.387   .     S
C1368  O1773   1.384   .     S
C1368  C1415   1.411   .     A
C1369  C1418   1.416   .     A
C1369  O1781   1.386   .     S
C1370  C1417   1.416   .     A
C1370  O1789   1.386   .     S
C1371  C1420   1.411   .     A
C1371  O1797   1.385   .     S
C1372  O1805   1.384   .     S
C1372  C1419   1.413   .     A
C1373  C2025   1.417   1_455 S
C1374  C1834   1.399   .     S
C1374  C2026   1.418   .     S
C1375  C1423   1.416   .     A
C1376  C216    1.418   1_565 S
C1377  C1421   1.417   .     A
C1378  C1422   1.418   .     A
C1378  C1830   1.399   1_455 S
C1379  C215    1.416   1_565 S
C1380  C1424   1.418   .     A
C1381  C217    1.417   1_565 S
C1382  C1426   1.415   .     A
C1383  C1427   1.417   .     A
C1384  C2032   1.416   .     S
C1385  C1425   1.417   .     A
C1386  C218    1.417   1_565 S
C1387  C2031   1.417   .     S
C1388  C1428   1.417   .     A
C1421  C1977   1.417   .     S
C1421  C2026   1.402   .     S
C1422  C1978   1.418   1_455 S
C1422  C2025   1.402   1_455 S
C1423  C1424   1.403   .     A
C1425  C1426   1.403   1_556 S
C1426  C1425   1.403   1_554 S
C1427  C1991   1.417   1_455 S
C1427  C1428   1.402   1_556 S
C1428  C1988   1.416   1_455 S
C1428  C1427   1.402   1_554 S
O1429  C1905   1.387   .     S
O1429  C2034   1.414   .     S
C1430  C1433   1.522   .     S
C1430  H1432   1.116   .     S
C1430  H1431   1.109   .     S
C1430  O2033   1.414   1_455 S
C1433  H1436   1.111   .     S
C1433  H1435   1.110   .     S
C1433  H1434   1.109   .     S
O1437  C1906   1.387   1_455 S
O1437  C2042   1.414   1_455 S
C1438  H1440   1.109   .     S
C1438  C1441   1.522   .     S
C1438  H1439   1.117   .     S
C1438  O2041   1.414   .     S
C1441  H1442   1.111   .     S
C1441  H1444   1.109   .     S
C1441  H1443   1.111   .     S
C1446  H1448   1.112   .     S
C1446  C1449   1.520   .     S
C1446  H1447   1.116   .     S
C1446  O237    1.413   1_565 S
C1449  H1451   1.109   .     S
C1449  H1452   1.111   .     S
C1449  H1450   1.111   .     S
O1453  C246    1.414   1_565 S
C1454  H1456   1.108   .     S
C1454  H1455   1.116   .     S
C1454  C1457   1.521   .     S
C1457  H1460   1.110   .     S
C1457  H1459   1.108   .     S
H1458  C249    1.111   1_565 S
O1461  C1462   1.419   .     S
C1462  H1464   1.113   .     S
C1462  H1463   1.109   .     S
C1462  C1465   1.521   .     S
C1465  H1466   1.110   .     S
C1465  H1468   1.111   .     S
C1465  H1467   1.110   .     S
O1469  C1470   1.416   .     S
C1470  H1471   1.108   .     S
C1470  C1473   1.519   .     S
C1470  H1472   1.113   .     S
C1473  H1475   1.111   .     S
C1473  H1476   1.111   .     S
C1473  H1474   1.110   .     S
O1477  C270    1.414   1_565 S
C1478  H1480   1.108   .     S
C1478  H1479   1.112   .     S
C1478  C1481   1.521   .     S
C1481  H1484   1.110   .     S
C1481  H1483   1.110   .     S
H1482  C273    1.111   1_565 S
O1485  C1486   1.414   .     S
C1486  H1487   1.115   .     S
C1486  C1489   1.522   .     S
C1486  H1488   1.111   .     S
C1489  H1492   1.110   .     S
C1489  H1491   1.111   .     S
C1489  H1490   1.111   .     S
O1493  C1494   1.416   .     S
C1494  C1497   1.522   .     S
C1494  H1496   1.118   .     S
C1494  H1495   1.110   .     S
C1497  H1500   1.109   .     S
C1497  H1499   1.110   .     S
C1497  H1498   1.110   1_556 S
H1498  C1497   1.110   1_554 S
O1501  C1502   1.413   .     S
C1502  H1503   1.108   .     S
C1502  C1505   1.521   .     S
C1502  H1504   1.115   .     S
C1505  H1507   1.110   .     S
C1505  H1506   1.110   .     S
C1505  H1508   1.112   .     S
O1509  C1510   1.417   .     S
C1510  H1512   1.117   .     S
C1510  C1513   1.524   .     S
C1510  H1511   1.111   .     S
C1513  H1515   1.111   .     S
C1513  H1516   1.110   .     S
C1513  H1514   1.109   1_556 S
H1514  C1513   1.109   1_554 S
O1517  C1518   1.417   .     S
C1518  H1519   1.112   .     S
C1518  C1521   1.520   .     S
C1518  H1520   1.112   .     S
C1521  H1523   1.110   .     S
C1521  H1522   1.111   .     S
C1521  H1524   1.111   .     S
O1525  C1526   1.416   .     S
C1526  H1528   1.115   .     S
C1526  H1527   1.108   .     S
C1526  C1529   1.521   .     S
C1529  H1530   1.109   .     S
C1529  H1532   1.111   .     S
C1529  H1531   1.110   .     S
O1533  C1534   1.416   .     S
C1534  H1535   1.110   .     S
C1534  C1537   1.526   .     S
C1534  H1536   1.116   .     S
C1537  H1539   1.110   .     S
C1537  H1540   1.110   .     S
C1537  H1538   1.110   1_554 S
H1538  C1537   1.110   1_556 S
O1541  C1542   1.412   .     S
C1542  C1545   1.521   .     S
C1542  H1543   1.116   .     S
C1542  H1544   1.109   .     S
C1545  H1548   1.110   .     S
C1545  H1546   1.111   .     S
C1545  H1547   1.110   .     S
O1549  C1550   1.412   .     S
C1550  H1551   1.114   .     S
C1550  C1553   1.521   .     S
C1550  H1552   1.112   .     S
C1553  H1556   1.111   .     S
C1553  H1555   1.110   .     S
C1553  H1554   1.111   .     S
O1557  C1558   1.417   .     S
C1558  H1559   1.115   .     S
C1558  C1561   1.521   .     S
C1558  H1560   1.110   .     S
C1561  H1563   1.111   .     S
C1561  H1562   1.111   .     S
C1561  H1564   1.111   .     S
O1565  C1566   1.417   .     S
C1566  C1569   1.521   .     S
C1566  H1567   1.110   .     S
C1566  H1568   1.115   .     S
C1569  H1572   1.111   .     S
C1569  H1571   1.108   .     S
C1569  H1570   1.110   .     S
O1573  C1574   1.419   .     S
C1574  H1575   1.116   .     S
C1574  C1577   1.521   .     S
C1574  H1576   1.110   .     S
C1577  H1580   1.110   .     S
C1577  H1579   1.109   .     S
C1577  H1578   1.111   .     S
O1581  C1582   1.412   .     S
C1582  H1583   1.112   .     S
C1582  C1585   1.521   .     S
C1582  H1584   1.103   .     S
C1585  H1588   1.110   .     S
C1585  H1587   1.106   .     S
C1585  H1586   1.111   .     S
O1589  C1590   1.417   .     S
C1590  H1591   1.116   .     S
C1590  H1592   1.110   .     S
C1590  C1593   1.519   .     S
C1593  H1595   1.109   .     S
C1593  H1594   1.111   .     S
C1593  H1596   1.110   .     S
O1597  C1598   1.416   .     S
C1598  H1600   1.115   .     S
C1598  H1599   1.110   .     S
C1598  C1601   1.520   .     S
C1601  H1602   1.110   .     S
C1601  H1604   1.111   .     S
C1601  H1603   1.108   .     S
O1605  C1606   1.412   .     S
C1606  H1608   1.114   .     S
C1606  C1609   1.521   .     S
C1606  H1607   1.115   .     S
C1609  H1610   1.111   .     S
C1609  H2215   1.111   .     S
C1609  H2216   1.110   .     S
H1611  C2213   1.111   1_455 S
H1612  C2213   1.110   1_455 S
O1613  C1614   1.414   .     S
C1614  H1615   1.113   .     S
C1614  C1617   1.522   .     S
C1614  H1616   1.104   .     S
C1617  H1618   1.111   .     S
C1617  H1620   1.110   .     S
C1617  H1619   1.108   .     S
O1621  C1622   1.417   .     S
C1622  C1625   1.521   .     S
C1622  H1624   1.110   .     S
C1622  H1623   1.115   .     S
C1625  H1627   1.106   .     S
C1625  H1626   1.111   .     S
C1625  H1628   1.110   .     S
O1629  C1630   1.412   .     S
C1630  H1631   1.114   .     S
C1630  C1633   1.521   .     S
C1630  H1632   1.112   .     S
C1633  H1634   1.111   .     S
C1633  H1635   1.107   .     S
C1633  H1636   1.111   .     S
O1637  C1638   1.414   .     S
C1638  H1640   1.112   .     S
C1638  C1641   1.521   .     S
C1638  H1639   1.110   .     S
C1641  H1644   1.110   .     S
C1641  H1643   1.111   .     S
C1641  H1642   1.110   .     S
O1645  C1646   1.414   .     S
C1646  H1647   1.112   .     S
C1646  C1649   1.521   .     S
C1646  H1648   1.111   .     S
C1649  H1651   1.111   .     S
C1649  H1650   1.111   .     S
C1649  H1652   1.110   .     S
O1653  C1654   1.416   .     S
C1654  H1656   1.110   .     S
C1654  C1657   1.520   .     S
C1654  H1655   1.116   .     S
C1657  H1659   1.106   .     S
C1657  H1660   1.110   .     S
C1657  H1658   1.111   .     S
O1661  C1662   1.412   .     S
C1662  H1663   1.111   .     S
C1662  C1665   1.520   .     S
C1662  H1664   1.106   .     S
C1665  H1666   1.111   .     S
C1665  H1668   1.111   .     S
C1665  H1667   1.107   .     S
O1669  C1670   1.415   .     S
C1670  C1673   1.521   .     S
C1670  H1671   1.110   .     S
C1670  H1672   1.112   .     S
C1673  H1674   1.110   .     S
C1673  H1675   1.111   .     S
C1673  H1676   1.110   .     S
O1677  C1678   1.413   .     S
C1678  H1680   1.110   .     S
C1678  H1679   1.112   .     S
C1678  C1681   1.519   .     S
C1681  H1684   1.110   .     S
C1681  H1682   1.111   .     S
C1681  H1683   1.107   .     S
O1685  C1686   1.418   .     S
C1686  H1687   1.115   .     S
C1686  C1689   1.522   .     S
C1686  H1688   1.110   .     S
C1689  H1691   1.111   .     S
C1689  H1690   1.111   .     S
C1689  H1692   1.111   .     S
O1693  C1694   1.418   .     S
C1694  C1697   1.521   .     S
C1694  H1695   1.110   .     S
C1694  H1696   1.115   .     S
C1697  H1699   1.110   .     S
C1697  H1698   1.110   .     S
C1697  H1700   1.111   .     S
O1701  C1702   1.419   .     S
C1702  H1704   1.110   .     S
C1702  H1703   1.115   .     S
C1702  C1705   1.521   .     S
C1705  H1708   1.111   .     S
C1705  H1707   1.111   .     S
C1705  H1706   1.111   .     S
O1709  C1710   1.417   .     S
C1710  C1713   1.523   .     S
C1710  H1712   1.116   .     S
C1710  H1711   1.111   .     S
C1713  H1715   1.107   .     S
C1713  H1714   1.109   .     S
C1713  H1716   1.111   .     S
O1717  C1718   1.418   .     S
C1718  H1719   1.114   .     S
C1718  H1720   1.110   .     S
C1718  C1721   1.521   .     S
C1721  H1723   1.109   .     S
C1721  H1722   1.111   .     S
C1721  H1724   1.109   .     S
O1725  C1726   1.412   .     S
C1726  H1727   1.112   .     S
C1726  C1729   1.520   .     S
C1726  H1728   1.112   .     S
C1729  H1730   1.110   .     S
C1729  H1732   1.110   .     S
C1729  H1731   1.109   .     S
O1733  C1734   1.417   .     S
C1734  C1737   1.522   .     S
C1734  H1736   1.110   .     S
C1734  H1735   1.113   .     S
C1737  H1740   1.111   .     S
C1737  H1739   1.108   .     S
C1737  H1738   1.111   .     S
O1741  C1742   1.418   .     S
C1742  H1743   1.111   .     S
C1742  C1745   1.520   .     S
C1742  H1744   1.113   .     S
C1745  H1748   1.111   .     S
C1745  H1747   1.109   .     S
C1745  H1746   1.111   .     S
O1749  C1750   1.414   .     S
C1750  H1751   1.107   .     S
C1750  C1753   1.522   .     S
C1750  H1752   1.115   .     S
C1753  H1756   1.111   .     S
C1753  H1755   1.110   .     S
C1753  H1754   1.110   .     S
O1757  C1758   1.413   .     S
C1758  C1761   1.522   .     S
C1758  H1760   1.106   .     S
C1758  H1759   1.114   .     S
C1761  H1762   1.111   .     S
C1761  H1763   1.109   .     S
C1761  H1764   1.109   .     S
O1765  C1766   1.417   .     S
C1766  C1769   1.521   .     S
C1766  H1767   1.116   .     S
C1766  H1768   1.110   .     S
C1769  H1771   1.110   .     S
C1769  H1770   1.111   .     S
C1769  H1772   1.110   .     S
O1773  C1774   1.412   .     S
C1774  H1775   1.112   .     S
C1774  C1777   1.518   .     S
C1774  H1776   1.111   .     S
C1777  H1780   1.110   .     S
C1777  H1779   1.108   .     S
C1777  H1778   1.110   .     S
O1781  C1782   1.415   .     S
C1782  H1784   1.112   .     S
C1782  C1785   1.521   .     S
C1782  H1783   1.106   .     S
C1785  H1786   1.109   .     S
C1785  H1787   1.107   .     S
C1785  H1788   1.110   .     S
O1789  C1790   1.412   .     S
C1790  H1791   1.113   .     S
C1790  H1792   1.108   .     S
C1790  C1793   1.521   .     S
C1793  H1794   1.111   .     S
C1793  H1796   1.110   .     S
C1793  H1795   1.108   .     S
O1797  C1798   1.412   .     S
C1798  C1801   1.520   .     S
C1798  H1800   1.112   .     S
C1798  H1799   1.111   .     S
C1801  H1803   1.108   .     S
C1801  H1802   1.111   .     S
C1801  H1804   1.110   .     S
O1805  C1806   1.410   .     S
C1806  C1809   1.519   .     S
C1806  H1807   1.113   .     S
C1806  H1808   1.108   .     S
C1809  H1810   1.111   .     S
C1809  H1812   1.110   .     S
C1809  H1811   1.104   .     S
Zn1813 O1853   1.949   .     S
Zn1813 O1868   1.937   .     S
Zn1813 O1899   1.948   .     S
Zn1814 O1867   1.937   .     S
Zn1814 O1854   1.949   .     S
Zn1814 O1895   1.935   .     S
Zn1815 O1870   1.936   .     S
Zn1815 O1855   1.951   .     S
Zn1815 O1890   1.947   .     S
Zn1816 O1869   1.936   .     S
Zn1816 O1856   1.951   .     S
Zn1816 O1898   1.935   .     S
Zn1817 O1853   1.946   .     S
Zn1817 O1872   1.938   .     S
Zn1817 O1892   1.937   .     S
Zn1818 O1871   1.938   .     S
Zn1818 O1854   1.946   .     S
Zn1818 O1904   1.946   .     S
Zn1819 O1855   1.944   .     S
Zn1819 O1866   1.939   .     S
Zn1819 O1901   1.937   .     S
Zn1820 O1865   1.939   .     S
Zn1820 O1856   1.944   .     S
Zn1820 O1893   1.947   .     S
Zn1821 O1860   1.937   .     S
Zn1821 O1883   1.948   .     S
Zn1821 O1880   1.935   .     S
Zn1821 O1252   1.949   1_655 S
Zn1822 O1859   1.937   .     S
Zn1822 O1884   1.948   .     S
Zn1822 O1879   1.935   .     S
Zn1822 O1855   1.949   .     S
Zn1823 O1874   1.947   .     S
Zn1823 O1881   1.935   .     S
Zn1823 O1862   1.936   .     S
Zn1823 O646    1.951   1_565 S
Zn1824 O1861   1.936   .     S
Zn1824 O1882   1.935   .     S
Zn1824 O1853   1.951   .     S
Zn1824 O1873   1.947   .     S
Zn1825 O1856   1.946   .     S
Zn1825 O1887   1.946   .     S
Zn1825 O1864   1.938   .     S
Zn1825 O1876   1.937   .     S
Zn1826 O1888   1.946   .     S
Zn1826 O1863   1.938   .     S
Zn1826 O1875   1.937   .     S
Zn1826 O1251   1.946   1_655 S
Zn1827 O1878   1.947   .     S
Zn1827 O1885   1.937   .     S
Zn1827 O1854   1.944   .     S
Zn1827 O1858   1.939   .     S
Zn1828 O1857   1.939   .     S
Zn1828 O1877   1.947   .     S
Zn1828 O1886   1.937   .     S
Zn1828 O645    1.944   1_565 S
C1829  C1981   1.400   .     A
C1829  H1993   1.083   .     S
C1829  C1845   1.390   .     A
C1830  H1994   1.083   .     S
C1830  C1242   1.390   1_655 S
C1830  C1378   1.399   1_655 S
C1831  C1847   1.390   .     A
C1831  C1983   1.400   .     A
C1831  H1995   1.082   .     S
C1832  H1996   1.084   .     S
C1832  C1848   1.392   .     A
C1832  C1984   1.399   .     A
C1833  C1977   1.399   .     A
C1833  H1997   1.081   .     S
C1834  C1846   1.393   .     A
C1834  H1998   1.082   .     S
C1835  C1979   1.398   .     A
C1835  H1999   1.084   .     S
C1836  H2000   1.079   .     S
C1836  C1980   1.398   .     A
C1836  C640    1.391   1_565 S
C1837  C1989   1.399   .     A
C1837  H2001   1.081   .     S
C1838  H2002   1.084   .     S
C1838  C1990   1.396   .     A
C1838  C642    1.391   1_565 S
C1839  C1991   1.399   .     A
C1839  C1851   1.394   .     A
C1839  H2003   1.083   .     S
C1840  C1852   1.392   .     A
C1840  C1992   1.399   .     A
C1840  H2004   1.083   .     S
C1841  H2005   1.083   .     S
C1841  C1849   1.392   .     A
C1841  C1985   1.397   .     A
C1842  C1850   1.394   .     A
C1842  C1986   1.400   .     A
C1842  H2006   1.082   .     S
C1843  H2007   1.084   .     S
C1843  C1987   1.397   .     A
C1844  H2008   1.083   .     S
C1844  C1988   1.399   .     A
C1844  C1248   1.390   1_655 S
C1845  C1923   1.444   .     S
C1845  C1229   1.391   1_655 S
C1846  C1924   1.444   .     S
C1847  C1921   1.443   .     S
C1847  C627    1.391   1_565 S
C1848  C1922   1.445   .     S
C1849  C1927   1.445   .     S
C1849  C629    1.393   1_565 S
C1850  C1928   1.444   .     S
C1851  C1925   1.445   .     S
C1851  C1239   1.392   1_655 S
C1852  C1926   1.444   .     S
O1857  C1921   1.278   .     A
O1858  C1922   1.279   .     A
O1860  C1320   1.278   1_655 S
O1862  C714    1.278   1_565 S
O1863  C1923   1.279   .     A
O1864  C1924   1.279   .     A
O1866  C1926   1.279   .     A
O1868  C1928   1.279   .     A
O1870  C1926   1.278   .     S
O1872  C1928   1.278   .     A
O1873  C1929   1.283   .     A
O1874  C1930   1.283   .     A
O1875  C1931   1.280   .     A
O1876  C1932   1.281   .     A
O1877  C1933   1.283   .     A
O1878  C1934   1.279   .     A
O1879  C1935   1.281   .     A
O1880  C1936   1.280   .     A
O1881  C1937   1.279   .     A
O1882  C1938   1.280   .     A
O1883  C1939   1.283   .     A
O1884  C1940   1.278   .     A
O1885  C1941   1.278   .     A
O1886  C1942   1.278   .     A
O1887  C1943   1.279   .     A
O1888  C1944   1.279   .     A
O1889  Zn1212  1.947   1_655 S
O1889  C1939   1.281   .     A
O1890  C1940   1.284   .     A
O1891  Zn610   1.937   1_565 S
O1891  C1937   1.282   .     A
O1892  C1938   1.280   .     A
O1893  C1943   1.280   .     A
O1894  C1944   1.282   .     A
O1894  Zn1215  1.947   1_655 S
O1895  C1941   1.283   .     A
O1896  C1942   1.281   .     A
O1896  Zn605   1.935   1_565 S
O1897  Zn1211  1.935   1_655 S
O1897  C1931   1.281   .     A
O1898  C1932   1.278   .     A
O1899  C1929   1.281   .     A
O1900  C1930   1.279   .     A
O1900  Zn606   1.948   1_565 S
O1901  C1935   1.278   .     A
O1902  Zn1216  1.937   1_655 S
O1902  C1936   1.277   .     A
O1903  Zn609   1.946   1_565 S
O1903  C1933   1.278   .     A
O1904  C1934   1.277   .     A
C1905  C1977   1.410   .     A
C1905  C1910   1.407   .     A
C1906  C1909   1.408   .     A
C1906  C1978   1.411   .     A
C1906  O1437   1.387   1_655 S
C1907  O2049   1.384   .     S
C1907  C1979   1.407   .     A
C1907  C1912   1.410   .     A
C1908  C1911   1.404   .     A
C1908  O2057   1.385   .     S
C1908  C1980   1.413   .     A
C1909  O2065   1.387   .     S
C1909  C1981   1.415   .     A
C1910  C1982   1.414   .     A
C1910  O2073   1.385   .     S
C1911  O2081   1.386   .     S
C1911  C1983   1.412   .     A
C1912  O2089   1.386   .     S
C1912  C1984   1.410   .     A
C1913  O2097   1.381   .     S
C1913  C1985   1.408   .     A
C1913  C1918   1.398   1_556 S
C1914  O2105   1.385   .     S
C1914  C1986   1.411   .     A
C1914  C1917   1.404   1_554 S
C1915  C1987   1.410   .     A
C1915  O2113   1.385   .     S
C1915  C1920   1.405   1_556 S
C1916  C1988   1.414   .     A
C1916  O2121   1.385   .     S
C1916  C1919   1.408   1_554 S
C1917  C1989   1.414   .     A
C1917  O2129   1.385   .     S
C1917  C1914   1.404   1_556 S
C1918  C1990   1.408   .     A
C1918  O2137   1.384   .     S
C1918  C1913   1.398   1_554 S
C1919  C1991   1.411   .     A
C1919  O2145   1.387   .     S
C1919  C1916   1.408   1_556 S
C1920  O2153   1.384   .     S
C1920  C1992   1.409   .     A
C1920  C1915   1.405   1_554 S
C1921  O653    1.279   1_565 S
C1923  O1255   1.278   1_655 S
C1925  O1261   1.278   1_655 A
C1925  O1265   1.280   1_655 A
C1927  O659    1.280   1_565 A
C1927  O663    1.278   1_565 A
C1929  C2011   1.465   .     S
C1930  C2012   1.462   .     S
C1931  C2013   1.456   .     S
C1932  C2014   1.453   .     S
C1933  C2015   1.472   .     S
C1934  C2016   1.462   .     S
C1935  C2009   1.454   .     S
C1936  C2010   1.452   .     S
C1937  C2019   1.456   .     S
C1938  C2020   1.453   .     S
C1939  C2021   1.467   .     S
C1940  C2022   1.463   .     S
C1941  C2023   1.457   .     S
C1942  C2024   1.454   .     S
C1943  C2017   1.466   .     S
C1944  C2018   1.472   .     S
C1945  O2161   1.387   .     S
C1945  C1960   1.395   .     A
C1945  C2024   1.411   .     A
C1946  C2023   1.412   .     A
C1946  C1959   1.395   .     A
C1946  O2169   1.387   .     S
C1947  C1958   1.397   .     A
C1947  C2022   1.413   .     A
C1947  O2177   1.388   .     S
C1948  O2185   1.386   .     S
C1948  C2021   1.415   .     A
C1948  C1957   1.395   .     A
C1949  C1956   1.396   .     A
C1949  O2193   1.387   .     S
C1949  C2020   1.411   .     A
C1950  C1955   1.396   .     A
C1950  C2019   1.411   .     A
C1950  O2201   1.387   .     S
C1951  C1954   1.396   .     A
C1951  C2018   1.412   .     A
C1951  O2209   1.384   .     S
C1952  C2017   1.417   .     A
C1952  C1953   1.393   .     A
C1952  O2217   1.387   .     S
C1953  O2225   1.385   .     S
C1953  C2016   1.413   .     A
C1954  O2233   1.384   .     S
C1954  C2015   1.412   .     A
C1955  O2241   1.386   .     S
C1955  C2014   1.412   .     A
C1956  O2249   1.386   .     S
C1956  C2013   1.411   .     A
C1957  O2257   1.385   .     S
C1957  C2012   1.412   .     A
C1958  O2265   1.385   .     S
C1958  C2011   1.414   .     A
C1959  C2010   1.412   .     A
C1959  O2273   1.387   .     S
C1960  O2281   1.385   .     S
C1960  C2009   1.412   .     A
C1961  O2289   1.387   .     S
C1961  C1976   1.393   .     A
C1961  C2010   1.410   .     A
C1962  C1975   1.395   .     A
C1962  C2009   1.411   .     A
C1962  O2297   1.388   .     S
C1963  O2305   1.387   .     S
C1963  C2012   1.412   .     A
C1963  C1974   1.397   .     A
C1964  C1973   1.396   .     A
C1964  C2011   1.412   .     A
C1964  O2313   1.386   .     S
C1965  C2014   1.410   .     A
C1965  C1972   1.395   .     A
C1965  O2321   1.388   .     S
C1966  C2013   1.410   .     A
C1966  O2329   1.385   .     S
C1966  C1971   1.396   .     A
C1967  C1970   1.395   .     A
C1967  O2337   1.386   .     S
C1967  C2016   1.413   .     A
C1968  O2345   1.385   .     S
C1968  C2015   1.415   .     A
C1968  C1969   1.398   .     A
C1969  C2018   1.417   .     A
C1969  O2353   1.386   .     S
C1970  C2017   1.418   .     A
C1970  O2361   1.387   .     S
C1971  C2020   1.411   .     A
C1971  O2369   1.387   .     S
C1972  O2377   1.384   .     S
C1972  C2019   1.411   .     A
C1973  C2022   1.416   .     A
C1973  O2385   1.386   .     S
C1974  C2021   1.416   .     A
C1974  O2393   1.386   .     S
C1975  C2024   1.411   .     A
C1975  O2401   1.385   .     S
C1976  O2409   1.384   .     S
C1976  C2023   1.413   .     A
C1978  C1230   1.399   1_655 S
C1978  C1422   1.418   1_655 S
C1979  C2027   1.416   .     A
C1980  C820    1.418   1_565 S
C1981  C2025   1.417   .     A
C1982  C2026   1.418   .     A
C1983  C819    1.416   1_565 S
C1984  C2028   1.418   .     A
C1985  C821    1.417   1_565 S
C1986  C2030   1.415   .     A
C1987  C2031   1.417   .     A
C1988  C1428   1.416   1_655 S
C1989  C2029   1.417   .     A
C1990  C822    1.417   1_565 S
C1991  C1427   1.417   1_655 S
C1992  C2032   1.417   .     A
C2025  C1373   1.417   1_655 S
C2025  C1422   1.402   1_655 S
C2027  C2028   1.403   .     A
C2029  C2030   1.403   1_556 S
C2030  C2029   1.403   1_554 S
C2031  C2032   1.402   1_556 S
C2032  C2031   1.402   1_554 S
O2033  C1301   1.387   1_655 S
O2033  C1430   1.414   1_655 S
C2034  C2037   1.522   .     S
C2034  H2036   1.116   .     S
C2034  H2035   1.109   .     S
C2037  H2040   1.111   .     S
C2037  H2039   1.110   .     S
C2037  H2038   1.109   .     S
C2042  H2044   1.109   .     S
C2042  C2045   1.522   .     S
C2042  H2043   1.117   .     S
C2042  O1437   1.414   1_655 S
C2045  H2046   1.111   .     S
C2045  H2048   1.109   .     S
C2045  H2047   1.111   .     S
C2050  H2052   1.112   .     S
C2050  C2053   1.520   .     S
C2050  H2051   1.116   .     S
C2050  O841    1.413   1_565 S
C2053  H2055   1.109   .     S
C2053  H2056   1.111   .     S
C2053  H2054   1.111   .     S
O2057  C850    1.414   1_565 S
C2058  H2060   1.108   .     S
C2058  H2059   1.116   .     S
C2058  C2061   1.521   .     S
C2061  H2064   1.110   .     S
C2061  H2063   1.108   .     S
H2062  C853    1.111   1_565 S
O2065  C2066   1.419   .     S
C2066  H2068   1.113   .     S
C2066  H2067   1.109   .     S
C2066  C2069   1.521   .     S
C2069  H2070   1.110   .     S
C2069  H2072   1.111   .     S
C2069  H2071   1.110   .     S
O2073  C2074   1.416   .     S
C2074  H2075   1.108   .     S
C2074  C2077   1.519   .     S
C2074  H2076   1.113   .     S
C2077  H2079   1.111   .     S
C2077  H2080   1.111   .     S
C2077  H2078   1.110   .     S
O2081  C874    1.414   1_565 S
C2082  H2084   1.108   .     S
C2082  H2083   1.112   .     S
C2082  C2085   1.521   .     S
C2085  H2088   1.110   .     S
C2085  H2087   1.110   .     S
H2086  C877    1.111   1_565 S
O2089  C2090   1.414   .     S
C2090  H2091   1.115   .     S
C2090  C2093   1.522   .     S
C2090  H2092   1.111   .     S
C2093  H2096   1.110   .     S
C2093  H2095   1.111   .     S
C2093  H2094   1.111   .     S
O2097  C2098   1.416   .     S
C2098  C2101   1.522   .     S
C2098  H2100   1.118   .     S
C2098  H2099   1.110   .     S
C2101  H2104   1.109   .     S
C2101  H2103   1.110   .     S
C2101  H2102   1.110   1_556 S
H2102  C2101   1.110   1_554 S
O2105  C2106   1.413   .     S
C2106  H2107   1.108   .     S
C2106  C2109   1.521   .     S
C2106  H2108   1.115   .     S
C2109  H2111   1.110   .     S
C2109  H2110   1.110   .     S
C2109  H2112   1.112   .     S
O2113  C2114   1.417   .     S
C2114  H2116   1.117   .     S
C2114  C2117   1.524   .     S
C2114  H2115   1.111   .     S
C2117  H2119   1.111   .     S
C2117  H2120   1.110   .     S
C2117  H2118   1.109   1_556 S
H2118  C2117   1.109   1_554 S
O2121  C2122   1.417   .     S
C2122  H2123   1.112   .     S
C2122  C2125   1.520   .     S
C2122  H2124   1.112   .     S
C2125  H2127   1.110   .     S
C2125  H2126   1.111   .     S
C2125  H2128   1.111   .     S
O2129  C2130   1.416   .     S
C2130  H2132   1.115   .     S
C2130  H2131   1.108   .     S
C2130  C2133   1.521   .     S
C2133  H2134   1.109   .     S
C2133  H2136   1.111   .     S
C2133  H2135   1.110   .     S
O2137  C2138   1.416   .     S
C2138  H2139   1.110   .     S
C2138  C2141   1.526   .     S
C2138  H2140   1.116   .     S
C2141  H2143   1.110   .     S
C2141  H2144   1.110   .     S
C2141  H2142   1.110   1_554 S
H2142  C2141   1.110   1_556 S
O2145  C2146   1.412   .     S
C2146  C2149   1.521   .     S
C2146  H2147   1.116   .     S
C2146  H2148   1.109   .     S
C2149  H2152   1.110   .     S
C2149  H2150   1.111   .     S
C2149  H2151   1.110   .     S
O2153  C2154   1.412   .     S
C2154  H2155   1.114   .     S
C2154  C2157   1.521   .     S
C2154  H2156   1.112   .     S
C2157  H2160   1.111   .     S
C2157  H2159   1.110   .     S
C2157  H2158   1.111   .     S
O2161  C2162   1.417   .     S
C2162  H2163   1.115   .     S
C2162  C2165   1.521   .     S
C2162  H2164   1.110   .     S
C2165  H2167   1.111   .     S
C2165  H2166   1.111   .     S
C2165  H2168   1.111   .     S
O2169  C2170   1.417   .     S
C2170  C2173   1.521   .     S
C2170  H2171   1.110   .     S
C2170  H2172   1.115   .     S
C2173  H2176   1.111   .     S
C2173  H2175   1.108   .     S
C2173  H2174   1.110   .     S
O2177  C2178   1.419   .     S
C2178  H2179   1.116   .     S
C2178  C2181   1.521   .     S
C2178  H2180   1.110   .     S
C2181  H2184   1.110   .     S
C2181  H2183   1.109   .     S
C2181  H2182   1.111   .     S
O2185  C2186   1.412   .     S
C2186  H2187   1.112   .     S
C2186  C2189   1.521   .     S
C2186  H2188   1.103   .     S
C2189  H2192   1.110   .     S
C2189  H2191   1.106   .     S
C2189  H2190   1.111   .     S
O2193  C2194   1.417   .     S
C2194  H2195   1.116   .     S
C2194  H2196   1.110   .     S
C2194  C2197   1.519   .     S
C2197  H2199   1.109   .     S
C2197  H2198   1.111   .     S
C2197  H2200   1.110   .     S
O2201  C2202   1.416   .     S
C2202  H2204   1.115   .     S
C2202  H2203   1.110   .     S
C2202  C2205   1.520   .     S
C2205  H2206   1.110   .     S
C2205  H2208   1.111   .     S
C2205  H2207   1.108   .     S
O2209  C2210   1.412   .     S
C2210  H2212   1.114   .     S
C2210  C2213   1.521   .     S
C2210  H2211   1.115   .     S
C2213  H2214   1.111   .     S
C2213  H1611   1.111   1_655 S
C2213  H1612   1.110   1_655 S
O2217  C2218   1.414   .     S
C2218  H2219   1.113   .     S
C2218  C2221   1.522   .     S
C2218  H2220   1.104   .     S
C2221  H2222   1.111   .     S
C2221  H2224   1.110   .     S
C2221  H2223   1.108   .     S
O2225  C2226   1.417   .     S
C2226  C2229   1.521   .     S
C2226  H2228   1.110   .     S
C2226  H2227   1.115   .     S
C2229  H2231   1.106   .     S
C2229  H2230   1.111   .     S
C2229  H2232   1.110   .     S
O2233  C2234   1.412   .     S
C2234  H2235   1.114   .     S
C2234  C2237   1.521   .     S
C2234  H2236   1.112   .     S
C2237  H2238   1.111   .     S
C2237  H2239   1.107   .     S
C2237  H2240   1.111   .     S
O2241  C2242   1.414   .     S
C2242  H2244   1.112   .     S
C2242  C2245   1.521   .     S
C2242  H2243   1.110   .     S
C2245  H2248   1.110   .     S
C2245  H2247   1.111   .     S
C2245  H2246   1.110   .     S
O2249  C2250   1.414   .     S
C2250  H2251   1.112   .     S
C2250  C2253   1.521   .     S
C2250  H2252   1.111   .     S
C2253  H2255   1.111   .     S
C2253  H2254   1.111   .     S
C2253  H2256   1.110   .     S
O2257  C2258   1.416   .     S
C2258  H2260   1.110   .     S
C2258  C2261   1.520   .     S
C2258  H2259   1.116   .     S
C2261  H2263   1.106   .     S
C2261  H2264   1.110   .     S
C2261  H2262   1.111   .     S
O2265  C2266   1.412   .     S
C2266  H2267   1.111   .     S
C2266  C2269   1.520   .     S
C2266  H2268   1.106   .     S
C2269  H2270   1.111   .     S
C2269  H2272   1.111   .     S
C2269  H2271   1.107   .     S
O2273  C2274   1.415   .     S
C2274  C2277   1.521   .     S
C2274  H2275   1.110   .     S
C2274  H2276   1.112   .     S
C2277  H2278   1.110   .     S
C2277  H2279   1.111   .     S
C2277  H2280   1.110   .     S
O2281  C2282   1.413   .     S
C2282  H2284   1.110   .     S
C2282  H2283   1.112   .     S
C2282  C2285   1.519   .     S
C2285  H2288   1.110   .     S
C2285  H2286   1.111   .     S
C2285  H2287   1.107   .     S
O2289  C2290   1.418   .     S
C2290  H2291   1.115   .     S
C2290  C2293   1.522   .     S
C2290  H2292   1.110   .     S
C2293  H2295   1.111   .     S
C2293  H2294   1.111   .     S
C2293  H2296   1.111   .     S
O2297  C2298   1.418   .     S
C2298  C2301   1.521   .     S
C2298  H2299   1.110   .     S
C2298  H2300   1.115   .     S
C2301  H2303   1.110   .     S
C2301  H2302   1.110   .     S
C2301  H2304   1.111   .     S
O2305  C2306   1.419   .     S
C2306  H2308   1.110   .     S
C2306  H2307   1.115   .     S
C2306  C2309   1.521   .     S
C2309  H2312   1.111   .     S
C2309  H2311   1.111   .     S
C2309  H2310   1.111   .     S
O2313  C2314   1.417   .     S
C2314  C2317   1.523   .     S
C2314  H2316   1.116   .     S
C2314  H2315   1.111   .     S
C2317  H2319   1.107   .     S
C2317  H2318   1.109   .     S
C2317  H2320   1.111   .     S
O2321  C2322   1.418   .     S
C2322  H2323   1.114   .     S
C2322  H2324   1.110   .     S
C2322  C2325   1.521   .     S
C2325  H2327   1.109   .     S
C2325  H2326   1.111   .     S
C2325  H2328   1.109   .     S
O2329  C2330   1.412   .     S
C2330  H2331   1.112   .     S
C2330  C2333   1.520   .     S
C2330  H2332   1.112   .     S
C2333  H2334   1.110   .     S
C2333  H2336   1.110   .     S
C2333  H2335   1.109   .     S
O2337  C2338   1.417   .     S
C2338  C2341   1.522   .     S
C2338  H2340   1.110   .     S
C2338  H2339   1.113   .     S
C2341  H2344   1.111   .     S
C2341  H2343   1.108   .     S
C2341  H2342   1.111   .     S
O2345  C2346   1.418   .     S
C2346  H2347   1.111   .     S
C2346  C2349   1.520   .     S
C2346  H2348   1.113   .     S
C2349  H2352   1.111   .     S
C2349  H2351   1.109   .     S
C2349  H2350   1.111   .     S
O2353  C2354   1.414   .     S
C2354  H2355   1.107   .     S
C2354  C2357   1.522   .     S
C2354  H2356   1.115   .     S
C2357  H2360   1.111   .     S
C2357  H2359   1.110   .     S
C2357  H2358   1.110   .     S
O2361  C2362   1.413   .     S
C2362  C2365   1.522   .     S
C2362  H2364   1.106   .     S
C2362  H2363   1.114   .     S
C2365  H2366   1.111   .     S
C2365  H2367   1.109   .     S
C2365  H2368   1.109   .     S
O2369  C2370   1.417   .     S
C2370  C2373   1.521   .     S
C2370  H2371   1.116   .     S
C2370  H2372   1.110   .     S
C2373  H2375   1.110   .     S
C2373  H2374   1.111   .     S
C2373  H2376   1.110   .     S
O2377  C2378   1.412   .     S
C2378  H2379   1.112   .     S
C2378  C2381   1.518   .     S
C2378  H2380   1.111   .     S
C2381  H2384   1.110   .     S
C2381  H2383   1.108   .     S
C2381  H2382   1.110   .     S
O2385  C2386   1.415   .     S
C2386  H2388   1.112   .     S
C2386  C2389   1.521   .     S
C2386  H2387   1.106   .     S
C2389  H2390   1.109   .     S
C2389  H2391   1.107   .     S
C2389  H2392   1.110   .     S
O2393  C2394   1.412   .     S
C2394  H2395   1.113   .     S
C2394  H2396   1.108   .     S
C2394  C2397   1.521   .     S
C2397  H2398   1.111   .     S
C2397  H2400   1.110   .     S
C2397  H2399   1.108   .     S
O2401  C2402   1.412   .     S
C2402  C2405   1.520   .     S
C2402  H2404   1.112   .     S
C2402  H2403   1.111   .     S
C2405  H2407   1.108   .     S
C2405  H2406   1.111   .     S
C2405  H2408   1.110   .     S
O2409  C2410   1.410   .     S
C2410  C2413   1.519   .     S
C2410  H2411   1.113   .     S
C2410  H2412   1.108   .     S
C2413  H2414   1.111   .     S
C2413  H2416   1.110   .     S
C2413  H2415   1.104   .     S
