data_str_m1_o10_o16_pcu_sym.62
_audit_creation_date              2020-01-03
_audit_creation_method            'Materials Studio'
_symmetry_space_group_name_H-M    'P1'
_symmetry_Int_Tables_number       1
_symmetry_cell_setting            triclinic
loop_
_symmetry_equiv_pos_as_xyz
  x,y,z
_cell_length_a                    32.6587
_cell_length_b                    32.6907
_cell_length_c                    30.8336
_cell_angle_alpha                 97.0609
_cell_angle_beta                  75.1998
_cell_angle_gamma                 98.6739
loop_
_atom_site_label
_atom_site_type_symbol
_atom_site_fract_x
_atom_site_fract_y
_atom_site_fract_z
_atom_site_U_iso_or_equiv
_atom_site_adp_type
_atom_site_occupancy
C1     C     0.05307   0.15986   0.25922   0.00000  Uiso   1.00
C2     C     0.18104   0.16648   0.05586   0.00000  Uiso   1.00
C3     C     0.19277   0.09669   0.06337   0.00000  Uiso   1.00
C4     C     0.28061   0.17357   0.24027   0.00000  Uiso   1.00
C5     C     0.14153   0.19415   0.42024   0.00000  Uiso   1.00
C6     C     0.32602   0.17669   0.23830   0.00000  Uiso   1.00
C7     C     0.00772   0.15508   0.26417   0.00000  Uiso   1.00
C8     C     0.18048   0.32265   0.23917   0.00000  Uiso   1.00
C9     C     0.14991   0.01184   0.26359   0.00000  Uiso   1.00
C10    C     0.15616   0.05589   0.25979   0.00000  Uiso   1.00
C11    C     0.17648   0.27785   0.24059   0.00000  Uiso   1.00
C12    C     0.13205   0.24678   0.48315   0.00000  Uiso   1.00
C13    C     0.18507   0.14771   0.12924   0.00000  Uiso   1.00
C14    C     0.14850   0.18473   0.37101   0.00000  Uiso   1.00
C15    C     0.18393   0.08348   0.02185   0.00000  Uiso   1.00
C16    C     0.19042   0.13799   0.08091   0.00000  Uiso   1.00
C17    C     0.13506   0.23486   0.43788   0.00000  Uiso   1.00
C18    C     0.32844   0.11340   0.32881   0.00000  Uiso   1.00
C19    C     0.07158   0.00484   0.28402   0.00000  Uiso   1.00
C20    C     0.08933   0.20994   0.08349   0.00000  Uiso   1.00
C21    C     0.10945   0.06006   0.39358   0.00000  Uiso   1.00
C22    C     0.13887   0.21948   0.01140   0.00000  Uiso   1.00
C23    C     0.15082   0.17944   0.49289   0.00000  Uiso   1.00
C24    C     0.14505   0.16487   0.44906   0.00000  Uiso   1.00
C25    C     0.16699   0.15285   0.01617   0.00000  Uiso   1.00
C26    C     0.16989   0.11081   0.49873   0.00000  Uiso   1.00
C27    C     0.15630   0.09545   0.45992   0.00000  Uiso   1.00
C28    C     0.14147   0.12147   0.43602   0.00000  Uiso   1.00
H29    H     0.19950   0.07423   0.08290   0.00000  Uiso   1.00
H30    H     0.30276   0.09228   0.34902   0.00000  Uiso   1.00
H31    H     0.00164   0.14202   0.35071   0.00000  Uiso   1.00
H32    H     0.02422   0.09748   0.31703   0.00000  Uiso   1.00
H33    H     0.11089   0.32516   0.32326   0.00000  Uiso   1.00
H34    H     0.04381   0.31828   0.30299   0.00000  Uiso   1.00
H35    H     0.07120   0.00028   0.24781   0.00000  Uiso   1.00
H36    H     0.06847   0.03776   0.29681   0.00000  Uiso   1.00
H37    H     0.13172   0.26283   0.06718   0.00000  Uiso   1.00
H38    H     0.08535   0.21929   0.12005   0.00000  Uiso   1.00
H39    H     0.08952   0.17574   0.07811   0.00000  Uiso   1.00
H40    H     0.20905   0.00442   0.21752   0.00000  Uiso   1.00
H41    H     0.06187   0.21830   0.07278   0.00000  Uiso   1.00
H42    H     0.09366   0.12024   0.40207   0.00000  Uiso   1.00
H43    H     0.09056   0.05353   0.36778   0.00000  Uiso   1.00
H44    H     0.09022   0.04608   0.42465   0.00000  Uiso   1.00
H45    H     0.13955   0.04590   0.38026   0.00000  Uiso   1.00
H46    H     0.15619   0.06263   0.44938   0.00000  Uiso   1.00
H47    H     0.18552   0.05118   0.00915   0.00000  Uiso   1.00
H48    H     0.18313   0.19850   0.06933   0.00000  Uiso   1.00
H49    H     0.13180   0.25761   0.41660   0.00000  Uiso   1.00
H50    H     0.12403   0.27758   0.49648   0.00000  Uiso   1.00
H51    H     0.01449   0.19792   0.21587   0.00000  Uiso   1.00
H52    H     0.30355   0.09805   0.27199   0.00000  Uiso   1.00
N53    N     0.31471   0.12362   0.29080   0.00000  Uiso   1.00
N54    N     0.11059   0.32642   0.29013   0.00000  Uiso   1.00
N55    N     0.12890   0.23118   0.05861   0.00000  Uiso   1.00
N56    N     0.11870   0.10453   0.40240   0.00000  Uiso   1.00
O57    O     0.16667   0.16667   0.25000   0.00000  Uiso   1.00
O58    O     0.15451   0.12637   0.15459   0.00000  Uiso   1.00
O59    O     0.12940   0.20391   0.34968   0.00000  Uiso   1.00
O60    O     0.20824   0.17759   0.14606   0.00000  Uiso   1.00
O61    O     0.17451   0.15880   0.34968   0.00000  Uiso   1.00
O62    O     0.17930   0.08019   0.28214   0.00000  Uiso   1.00
O63    O     0.14632   0.26085   0.27014   0.00000  Uiso   1.00
O64    O     0.07412   0.13291   0.23413   0.00000  Uiso   1.00
O65    O     0.26693   0.19272   0.21361   0.00000  Uiso   1.00
O66    O     0.07071   0.18878   0.28213   0.00000  Uiso   1.00
O67    O     0.25491   0.15226   0.27014   0.00000  Uiso   1.00
O68    O     0.13760   0.06944   0.23413   0.00000  Uiso   1.00
O69    O     0.20345   0.25620   0.21361   0.00000  Uiso   1.00
Zn70   Zn    0.19338   0.13994   0.28734   0.00000  Uiso   1.00
Zn71   Zn    0.13379   0.12458   0.21876   0.00000  Uiso   1.00
Zn72   Zn    0.21056   0.19775   0.20657   0.00000  Uiso   1.00
Zn73   Zn    0.12893   0.20439   0.28734   0.00000  Uiso   1.00
C74    C     0.38640   0.15986   0.25922   0.00000  Uiso   1.00
C75    C     0.51438   0.16648   0.05586   0.00000  Uiso   1.00
C76    C     0.52611   0.09669   0.06337   0.00000  Uiso   1.00
C77    C     0.61394   0.17357   0.24027   0.00000  Uiso   1.00
C78    C     0.47486   0.19415   0.42024   0.00000  Uiso   1.00
C79    C     0.65935   0.17669   0.23830   0.00000  Uiso   1.00
C80    C     0.34105   0.15508   0.26417   0.00000  Uiso   1.00
C81    C     0.51381   0.32265   0.23917   0.00000  Uiso   1.00
C82    C     0.48324   0.01184   0.26359   0.00000  Uiso   1.00
C83    C     0.48950   0.05589   0.25979   0.00000  Uiso   1.00
C84    C     0.50981   0.27785   0.24059   0.00000  Uiso   1.00
C85    C     0.46538   0.24678   0.48315   0.00000  Uiso   1.00
C86    C     0.51840   0.14771   0.12924   0.00000  Uiso   1.00
C87    C     0.48183   0.18473   0.37101   0.00000  Uiso   1.00
C88    C     0.51726   0.08348   0.02185   0.00000  Uiso   1.00
C89    C     0.52375   0.13799   0.08091   0.00000  Uiso   1.00
C90    C     0.46840   0.23486   0.43788   0.00000  Uiso   1.00
C91    C     0.66178   0.11340   0.32881   0.00000  Uiso   1.00
C92    C     0.40492   0.00484   0.28402   0.00000  Uiso   1.00
C93    C     0.42266   0.20994   0.08349   0.00000  Uiso   1.00
C94    C     0.44278   0.06006   0.39358   0.00000  Uiso   1.00
C95    C     0.47220   0.21948   0.01140   0.00000  Uiso   1.00
C96    C     0.48415   0.17944   0.49289   0.00000  Uiso   1.00
C97    C     0.47839   0.16487   0.44906   0.00000  Uiso   1.00
C98    C     0.50033   0.15285   0.01617   0.00000  Uiso   1.00
C99    C     0.50322   0.11081   0.49873   0.00000  Uiso   1.00
C100   C     0.48963   0.09545   0.45992   0.00000  Uiso   1.00
C101   C     0.47481   0.12147   0.43602   0.00000  Uiso   1.00
H102   H     0.53283   0.07423   0.08290   0.00000  Uiso   1.00
H103   H     0.63609   0.09228   0.34902   0.00000  Uiso   1.00
H104   H     0.33497   0.14202   0.35071   0.00000  Uiso   1.00
H105   H     0.35755   0.09748   0.31703   0.00000  Uiso   1.00
H106   H     0.44422   0.32516   0.32326   0.00000  Uiso   1.00
H107   H     0.37715   0.31828   0.30299   0.00000  Uiso   1.00
H108   H     0.40454   0.00028   0.24781   0.00000  Uiso   1.00
H109   H     0.40180   0.03776   0.29681   0.00000  Uiso   1.00
H110   H     0.46506   0.26283   0.06718   0.00000  Uiso   1.00
H111   H     0.41869   0.21929   0.12005   0.00000  Uiso   1.00
H112   H     0.42285   0.17574   0.07811   0.00000  Uiso   1.00
H113   H     0.54238   0.00442   0.21752   0.00000  Uiso   1.00
H114   H     0.39521   0.21830   0.07278   0.00000  Uiso   1.00
H115   H     0.42700   0.12024   0.40207   0.00000  Uiso   1.00
H116   H     0.42390   0.05353   0.36778   0.00000  Uiso   1.00
H117   H     0.42355   0.04608   0.42465   0.00000  Uiso   1.00
H118   H     0.47289   0.04590   0.38026   0.00000  Uiso   1.00
H119   H     0.48953   0.06263   0.44938   0.00000  Uiso   1.00
H120   H     0.51886   0.05118   0.00915   0.00000  Uiso   1.00
H121   H     0.51647   0.19850   0.06933   0.00000  Uiso   1.00
H122   H     0.46513   0.25761   0.41660   0.00000  Uiso   1.00
H123   H     0.45737   0.27758   0.49648   0.00000  Uiso   1.00
H124   H     0.34783   0.19792   0.21587   0.00000  Uiso   1.00
H125   H     0.63688   0.09805   0.27199   0.00000  Uiso   1.00
N126   N     0.64804   0.12362   0.29080   0.00000  Uiso   1.00
N127   N     0.44392   0.32642   0.29013   0.00000  Uiso   1.00
N128   N     0.46223   0.23118   0.05861   0.00000  Uiso   1.00
N129   N     0.45204   0.10453   0.40240   0.00000  Uiso   1.00
O130   O     0.50000   0.16667   0.25000   0.00000  Uiso   1.00
O131   O     0.48784   0.12637   0.15459   0.00000  Uiso   1.00
O132   O     0.46274   0.20391   0.34968   0.00000  Uiso   1.00
O133   O     0.54157   0.17759   0.14606   0.00000  Uiso   1.00
O134   O     0.50785   0.15880   0.34968   0.00000  Uiso   1.00
O135   O     0.51264   0.08019   0.28214   0.00000  Uiso   1.00
O136   O     0.47965   0.26085   0.27014   0.00000  Uiso   1.00
O137   O     0.40745   0.13291   0.23413   0.00000  Uiso   1.00
O138   O     0.60026   0.19272   0.21361   0.00000  Uiso   1.00
O139   O     0.40405   0.18878   0.28213   0.00000  Uiso   1.00
O140   O     0.58824   0.15226   0.27014   0.00000  Uiso   1.00
O141   O     0.47093   0.06944   0.23413   0.00000  Uiso   1.00
O142   O     0.53678   0.25620   0.21361   0.00000  Uiso   1.00
Zn143  Zn    0.52672   0.13994   0.28734   0.00000  Uiso   1.00
Zn144  Zn    0.46713   0.12458   0.21876   0.00000  Uiso   1.00
Zn145  Zn    0.54389   0.19775   0.20657   0.00000  Uiso   1.00
Zn146  Zn    0.46226   0.20439   0.28734   0.00000  Uiso   1.00
C147   C     0.71974   0.15986   0.25922   0.00000  Uiso   1.00
C148   C     0.84771   0.16648   0.05586   0.00000  Uiso   1.00
C149   C     0.85944   0.09669   0.06337   0.00000  Uiso   1.00
C150   C     0.94727   0.17357   0.24027   0.00000  Uiso   1.00
C151   C     0.80820   0.19415   0.42024   0.00000  Uiso   1.00
C152   C     0.99269   0.17669   0.23830   0.00000  Uiso   1.00
C153   C     0.67439   0.15508   0.26417   0.00000  Uiso   1.00
C154   C     0.84715   0.32265   0.23917   0.00000  Uiso   1.00
C155   C     0.81657   0.01184   0.26359   0.00000  Uiso   1.00
C156   C     0.82283   0.05589   0.25979   0.00000  Uiso   1.00
C157   C     0.84315   0.27785   0.24059   0.00000  Uiso   1.00
C158   C     0.79872   0.24678   0.48315   0.00000  Uiso   1.00
C159   C     0.85174   0.14771   0.12924   0.00000  Uiso   1.00
C160   C     0.81517   0.18473   0.37101   0.00000  Uiso   1.00
C161   C     0.85059   0.08348   0.02185   0.00000  Uiso   1.00
C162   C     0.85709   0.13799   0.08091   0.00000  Uiso   1.00
C163   C     0.80173   0.23486   0.43788   0.00000  Uiso   1.00
C164   C     0.99511   0.11340   0.32881   0.00000  Uiso   1.00
C165   C     0.73825   0.00484   0.28402   0.00000  Uiso   1.00
C166   C     0.75599   0.20994   0.08349   0.00000  Uiso   1.00
C167   C     0.77612   0.06006   0.39358   0.00000  Uiso   1.00
C168   C     0.80554   0.21948   0.01140   0.00000  Uiso   1.00
C169   C     0.81749   0.17944   0.49289   0.00000  Uiso   1.00
C170   C     0.81172   0.16487   0.44906   0.00000  Uiso   1.00
C171   C     0.83366   0.15285   0.01617   0.00000  Uiso   1.00
C172   C     0.83656   0.11081   0.49873   0.00000  Uiso   1.00
C173   C     0.82296   0.09545   0.45992   0.00000  Uiso   1.00
C174   C     0.80814   0.12147   0.43602   0.00000  Uiso   1.00
H175   H     0.86616   0.07423   0.08290   0.00000  Uiso   1.00
H176   H     0.96942   0.09228   0.34902   0.00000  Uiso   1.00
H177   H     0.66830   0.14202   0.35071   0.00000  Uiso   1.00
H178   H     0.69089   0.09748   0.31703   0.00000  Uiso   1.00
H179   H     0.77755   0.32516   0.32326   0.00000  Uiso   1.00
H180   H     0.71048   0.31828   0.30299   0.00000  Uiso   1.00
H181   H     0.73787   0.00028   0.24781   0.00000  Uiso   1.00
H182   H     0.73513   0.03776   0.29681   0.00000  Uiso   1.00
H183   H     0.79839   0.26283   0.06718   0.00000  Uiso   1.00
H184   H     0.75202   0.21929   0.12005   0.00000  Uiso   1.00
H185   H     0.75619   0.17574   0.07811   0.00000  Uiso   1.00
H186   H     0.87571   0.00442   0.21752   0.00000  Uiso   1.00
H187   H     0.72854   0.21830   0.07278   0.00000  Uiso   1.00
H188   H     0.76033   0.12024   0.40207   0.00000  Uiso   1.00
H189   H     0.75723   0.05353   0.36778   0.00000  Uiso   1.00
H190   H     0.75688   0.04608   0.42465   0.00000  Uiso   1.00
H191   H     0.80622   0.04590   0.38026   0.00000  Uiso   1.00
H192   H     0.82286   0.06263   0.44938   0.00000  Uiso   1.00
H193   H     0.85219   0.05118   0.00915   0.00000  Uiso   1.00
H194   H     0.84980   0.19850   0.06933   0.00000  Uiso   1.00
H195   H     0.79847   0.25761   0.41660   0.00000  Uiso   1.00
H196   H     0.79070   0.27758   0.49648   0.00000  Uiso   1.00
H197   H     0.68116   0.19792   0.21587   0.00000  Uiso   1.00
H198   H     0.97021   0.09805   0.27199   0.00000  Uiso   1.00
N199   N     0.98137   0.12362   0.29080   0.00000  Uiso   1.00
N200   N     0.77725   0.32642   0.29013   0.00000  Uiso   1.00
N201   N     0.79556   0.23118   0.05861   0.00000  Uiso   1.00
N202   N     0.78537   0.10453   0.40240   0.00000  Uiso   1.00
O203   O     0.83333   0.16667   0.25000   0.00000  Uiso   1.00
O204   O     0.82118   0.12637   0.15459   0.00000  Uiso   1.00
O205   O     0.79607   0.20391   0.34968   0.00000  Uiso   1.00
O206   O     0.87491   0.17759   0.14606   0.00000  Uiso   1.00
O207   O     0.84118   0.15880   0.34968   0.00000  Uiso   1.00
O208   O     0.84597   0.08019   0.28214   0.00000  Uiso   1.00
O209   O     0.81298   0.26085   0.27014   0.00000  Uiso   1.00
O210   O     0.74078   0.13291   0.23413   0.00000  Uiso   1.00
O211   O     0.93360   0.19272   0.21361   0.00000  Uiso   1.00
O212   O     0.73738   0.18878   0.28213   0.00000  Uiso   1.00
O213   O     0.92158   0.15226   0.27014   0.00000  Uiso   1.00
O214   O     0.80426   0.06944   0.23413   0.00000  Uiso   1.00
O215   O     0.87012   0.25620   0.21361   0.00000  Uiso   1.00
Zn216  Zn    0.86005   0.13994   0.28734   0.00000  Uiso   1.00
Zn217  Zn    0.80046   0.12458   0.21876   0.00000  Uiso   1.00
Zn218  Zn    0.87723   0.19775   0.20657   0.00000  Uiso   1.00
Zn219  Zn    0.79560   0.20439   0.28734   0.00000  Uiso   1.00
C220   C     0.05307   0.49319   0.25922   0.00000  Uiso   1.00
C221   C     0.18104   0.49982   0.05586   0.00000  Uiso   1.00
C222   C     0.19277   0.43002   0.06337   0.00000  Uiso   1.00
C223   C     0.28061   0.50690   0.24027   0.00000  Uiso   1.00
C224   C     0.14153   0.52748   0.42024   0.00000  Uiso   1.00
C225   C     0.32602   0.51003   0.23830   0.00000  Uiso   1.00
C226   C     0.00772   0.48842   0.26417   0.00000  Uiso   1.00
C227   C     0.18048   0.65598   0.23917   0.00000  Uiso   1.00
C228   C     0.14991   0.34517   0.26359   0.00000  Uiso   1.00
C229   C     0.15616   0.38922   0.25979   0.00000  Uiso   1.00
C230   C     0.17648   0.61119   0.24059   0.00000  Uiso   1.00
C231   C     0.13205   0.58012   0.48315   0.00000  Uiso   1.00
C232   C     0.18507   0.48104   0.12924   0.00000  Uiso   1.00
C233   C     0.14850   0.51806   0.37101   0.00000  Uiso   1.00
C234   C     0.18393   0.41681   0.02185   0.00000  Uiso   1.00
C235   C     0.19042   0.47132   0.08091   0.00000  Uiso   1.00
C236   C     0.13506   0.56819   0.43788   0.00000  Uiso   1.00
C237   C     0.32844   0.44674   0.32881   0.00000  Uiso   1.00
C238   C     0.07158   0.33817   0.28402   0.00000  Uiso   1.00
C239   C     0.08933   0.54327   0.08349   0.00000  Uiso   1.00
C240   C     0.10945   0.39339   0.39358   0.00000  Uiso   1.00
C241   C     0.13887   0.55281   0.01140   0.00000  Uiso   1.00
C242   C     0.15082   0.51277   0.49289   0.00000  Uiso   1.00
C243   C     0.14505   0.49820   0.44906   0.00000  Uiso   1.00
C244   C     0.16699   0.48618   0.01617   0.00000  Uiso   1.00
C245   C     0.16989   0.44414   0.49873   0.00000  Uiso   1.00
C246   C     0.15630   0.42878   0.45992   0.00000  Uiso   1.00
C247   C     0.14147   0.45480   0.43602   0.00000  Uiso   1.00
H248   H     0.19950   0.40757   0.08290   0.00000  Uiso   1.00
H249   H     0.30276   0.42562   0.34902   0.00000  Uiso   1.00
H250   H     0.00164   0.47536   0.35071   0.00000  Uiso   1.00
H251   H     0.02422   0.43081   0.31703   0.00000  Uiso   1.00
H252   H     0.11089   0.65849   0.32326   0.00000  Uiso   1.00
H253   H     0.04381   0.65161   0.30299   0.00000  Uiso   1.00
H254   H     0.07120   0.33361   0.24781   0.00000  Uiso   1.00
H255   H     0.06847   0.37109   0.29681   0.00000  Uiso   1.00
H256   H     0.13172   0.59616   0.06718   0.00000  Uiso   1.00
H257   H     0.08535   0.55263   0.12005   0.00000  Uiso   1.00
H258   H     0.08952   0.50907   0.07811   0.00000  Uiso   1.00
H259   H     0.20905   0.33775   0.21752   0.00000  Uiso   1.00
H260   H     0.06187   0.55163   0.07278   0.00000  Uiso   1.00
H261   H     0.09366   0.45357   0.40207   0.00000  Uiso   1.00
H262   H     0.09056   0.38687   0.36778   0.00000  Uiso   1.00
H263   H     0.09022   0.37941   0.42465   0.00000  Uiso   1.00
H264   H     0.13955   0.37924   0.38026   0.00000  Uiso   1.00
H265   H     0.15619   0.39596   0.44938   0.00000  Uiso   1.00
H266   H     0.18552   0.38451   0.00915   0.00000  Uiso   1.00
H267   H     0.18313   0.53183   0.06933   0.00000  Uiso   1.00
H268   H     0.13180   0.59094   0.41660   0.00000  Uiso   1.00
H269   H     0.12403   0.61091   0.49648   0.00000  Uiso   1.00
H270   H     0.01449   0.53125   0.21587   0.00000  Uiso   1.00
H271   H     0.30355   0.43139   0.27199   0.00000  Uiso   1.00
N272   N     0.31471   0.45695   0.29080   0.00000  Uiso   1.00
N273   N     0.11059   0.65975   0.29013   0.00000  Uiso   1.00
N274   N     0.12890   0.56452   0.05861   0.00000  Uiso   1.00
N275   N     0.11870   0.43787   0.40240   0.00000  Uiso   1.00
O276   O     0.16667   0.50000   0.25000   0.00000  Uiso   1.00
O277   O     0.15451   0.45970   0.15459   0.00000  Uiso   1.00
O278   O     0.12940   0.53724   0.34968   0.00000  Uiso   1.00
O279   O     0.20824   0.51092   0.14606   0.00000  Uiso   1.00
O280   O     0.17451   0.49213   0.34968   0.00000  Uiso   1.00
O281   O     0.17930   0.41352   0.28214   0.00000  Uiso   1.00
O282   O     0.14632   0.59418   0.27014   0.00000  Uiso   1.00
O283   O     0.07412   0.46625   0.23413   0.00000  Uiso   1.00
O284   O     0.26693   0.52605   0.21361   0.00000  Uiso   1.00
O285   O     0.07071   0.52211   0.28213   0.00000  Uiso   1.00
O286   O     0.25491   0.48559   0.27014   0.00000  Uiso   1.00
O287   O     0.13760   0.40277   0.23413   0.00000  Uiso   1.00
O288   O     0.20345   0.58953   0.21361   0.00000  Uiso   1.00
Zn289  Zn    0.19338   0.47327   0.28734   0.00000  Uiso   1.00
Zn290  Zn    0.13379   0.45791   0.21876   0.00000  Uiso   1.00
Zn291  Zn    0.21056   0.53109   0.20657   0.00000  Uiso   1.00
Zn292  Zn    0.12893   0.53773   0.28734   0.00000  Uiso   1.00
C293   C     0.38640   0.49319   0.25922   0.00000  Uiso   1.00
C294   C     0.51438   0.49982   0.05586   0.00000  Uiso   1.00
C295   C     0.52611   0.43002   0.06337   0.00000  Uiso   1.00
C296   C     0.61394   0.50690   0.24027   0.00000  Uiso   1.00
C297   C     0.47486   0.52748   0.42024   0.00000  Uiso   1.00
C298   C     0.65935   0.51003   0.23830   0.00000  Uiso   1.00
C299   C     0.34105   0.48842   0.26417   0.00000  Uiso   1.00
C300   C     0.51381   0.65598   0.23917   0.00000  Uiso   1.00
C301   C     0.48324   0.34517   0.26359   0.00000  Uiso   1.00
C302   C     0.48950   0.38922   0.25979   0.00000  Uiso   1.00
C303   C     0.50981   0.61119   0.24059   0.00000  Uiso   1.00
C304   C     0.46538   0.58012   0.48315   0.00000  Uiso   1.00
C305   C     0.51840   0.48104   0.12924   0.00000  Uiso   1.00
C306   C     0.48183   0.51806   0.37101   0.00000  Uiso   1.00
C307   C     0.51726   0.41681   0.02185   0.00000  Uiso   1.00
C308   C     0.52375   0.47132   0.08091   0.00000  Uiso   1.00
C309   C     0.46840   0.56819   0.43788   0.00000  Uiso   1.00
C310   C     0.66178   0.44674   0.32881   0.00000  Uiso   1.00
C311   C     0.40492   0.33817   0.28402   0.00000  Uiso   1.00
C312   C     0.42266   0.54327   0.08349   0.00000  Uiso   1.00
C313   C     0.44278   0.39339   0.39358   0.00000  Uiso   1.00
C314   C     0.47220   0.55281   0.01140   0.00000  Uiso   1.00
C315   C     0.48415   0.51277   0.49289   0.00000  Uiso   1.00
C316   C     0.47839   0.49820   0.44906   0.00000  Uiso   1.00
C317   C     0.50033   0.48618   0.01617   0.00000  Uiso   1.00
C318   C     0.50322   0.44414   0.49873   0.00000  Uiso   1.00
C319   C     0.48963   0.42878   0.45992   0.00000  Uiso   1.00
C320   C     0.47481   0.45480   0.43602   0.00000  Uiso   1.00
H321   H     0.53283   0.40757   0.08290   0.00000  Uiso   1.00
H322   H     0.63609   0.42562   0.34902   0.00000  Uiso   1.00
H323   H     0.33497   0.47536   0.35071   0.00000  Uiso   1.00
H324   H     0.35755   0.43081   0.31703   0.00000  Uiso   1.00
H325   H     0.44422   0.65849   0.32326   0.00000  Uiso   1.00
H326   H     0.37715   0.65161   0.30299   0.00000  Uiso   1.00
H327   H     0.40454   0.33361   0.24781   0.00000  Uiso   1.00
H328   H     0.40180   0.37109   0.29681   0.00000  Uiso   1.00
H329   H     0.46506   0.59616   0.06718   0.00000  Uiso   1.00
H330   H     0.41869   0.55263   0.12005   0.00000  Uiso   1.00
H331   H     0.42285   0.50907   0.07811   0.00000  Uiso   1.00
H332   H     0.54238   0.33775   0.21752   0.00000  Uiso   1.00
H333   H     0.39521   0.55163   0.07278   0.00000  Uiso   1.00
H334   H     0.42700   0.45357   0.40207   0.00000  Uiso   1.00
H335   H     0.42390   0.38687   0.36778   0.00000  Uiso   1.00
H336   H     0.42355   0.37941   0.42465   0.00000  Uiso   1.00
H337   H     0.47289   0.37924   0.38026   0.00000  Uiso   1.00
H338   H     0.48953   0.39596   0.44938   0.00000  Uiso   1.00
H339   H     0.51886   0.38451   0.00915   0.00000  Uiso   1.00
H340   H     0.51647   0.53183   0.06933   0.00000  Uiso   1.00
H341   H     0.46513   0.59094   0.41660   0.00000  Uiso   1.00
H342   H     0.45737   0.61091   0.49648   0.00000  Uiso   1.00
H343   H     0.34783   0.53125   0.21587   0.00000  Uiso   1.00
H344   H     0.63688   0.43139   0.27199   0.00000  Uiso   1.00
N345   N     0.64804   0.45695   0.29080   0.00000  Uiso   1.00
N346   N     0.44392   0.65975   0.29013   0.00000  Uiso   1.00
N347   N     0.46223   0.56452   0.05861   0.00000  Uiso   1.00
N348   N     0.45204   0.43787   0.40240   0.00000  Uiso   1.00
O349   O     0.50000   0.50000   0.25000   0.00000  Uiso   1.00
O350   O     0.48784   0.45970   0.15459   0.00000  Uiso   1.00
O351   O     0.46274   0.53724   0.34968   0.00000  Uiso   1.00
O352   O     0.54157   0.51092   0.14606   0.00000  Uiso   1.00
O353   O     0.50785   0.49213   0.34968   0.00000  Uiso   1.00
O354   O     0.51264   0.41352   0.28214   0.00000  Uiso   1.00
O355   O     0.47965   0.59418   0.27014   0.00000  Uiso   1.00
O356   O     0.40745   0.46625   0.23413   0.00000  Uiso   1.00
O357   O     0.60026   0.52605   0.21361   0.00000  Uiso   1.00
O358   O     0.40405   0.52211   0.28213   0.00000  Uiso   1.00
O359   O     0.58824   0.48559   0.27014   0.00000  Uiso   1.00
O360   O     0.47093   0.40277   0.23413   0.00000  Uiso   1.00
O361   O     0.53678   0.58953   0.21361   0.00000  Uiso   1.00
Zn362  Zn    0.52672   0.47327   0.28734   0.00000  Uiso   1.00
Zn363  Zn    0.46713   0.45791   0.21876   0.00000  Uiso   1.00
Zn364  Zn    0.54389   0.53109   0.20657   0.00000  Uiso   1.00
Zn365  Zn    0.46226   0.53773   0.28734   0.00000  Uiso   1.00
C366   C     0.71974   0.49319   0.25922   0.00000  Uiso   1.00
C367   C     0.84771   0.49982   0.05586   0.00000  Uiso   1.00
C368   C     0.85944   0.43002   0.06337   0.00000  Uiso   1.00
C369   C     0.94727   0.50690   0.24027   0.00000  Uiso   1.00
C370   C     0.80820   0.52748   0.42024   0.00000  Uiso   1.00
C371   C     0.99269   0.51003   0.23830   0.00000  Uiso   1.00
C372   C     0.67439   0.48842   0.26417   0.00000  Uiso   1.00
C373   C     0.84715   0.65598   0.23917   0.00000  Uiso   1.00
C374   C     0.81657   0.34517   0.26359   0.00000  Uiso   1.00
C375   C     0.82283   0.38922   0.25979   0.00000  Uiso   1.00
C376   C     0.84315   0.61119   0.24059   0.00000  Uiso   1.00
C377   C     0.79872   0.58012   0.48315   0.00000  Uiso   1.00
C378   C     0.85174   0.48104   0.12924   0.00000  Uiso   1.00
C379   C     0.81517   0.51806   0.37101   0.00000  Uiso   1.00
C380   C     0.85059   0.41681   0.02185   0.00000  Uiso   1.00
C381   C     0.85709   0.47132   0.08091   0.00000  Uiso   1.00
C382   C     0.80173   0.56819   0.43788   0.00000  Uiso   1.00
C383   C     0.99511   0.44674   0.32881   0.00000  Uiso   1.00
C384   C     0.73825   0.33817   0.28402   0.00000  Uiso   1.00
C385   C     0.75599   0.54327   0.08349   0.00000  Uiso   1.00
C386   C     0.77612   0.39339   0.39358   0.00000  Uiso   1.00
C387   C     0.80554   0.55281   0.01140   0.00000  Uiso   1.00
C388   C     0.81749   0.51277   0.49289   0.00000  Uiso   1.00
C389   C     0.81172   0.49820   0.44906   0.00000  Uiso   1.00
C390   C     0.83366   0.48618   0.01617   0.00000  Uiso   1.00
C391   C     0.83656   0.44414   0.49873   0.00000  Uiso   1.00
C392   C     0.82296   0.42878   0.45992   0.00000  Uiso   1.00
C393   C     0.80814   0.45480   0.43602   0.00000  Uiso   1.00
H394   H     0.86616   0.40757   0.08290   0.00000  Uiso   1.00
H395   H     0.96942   0.42562   0.34902   0.00000  Uiso   1.00
H396   H     0.66830   0.47536   0.35071   0.00000  Uiso   1.00
H397   H     0.69089   0.43081   0.31703   0.00000  Uiso   1.00
H398   H     0.77755   0.65849   0.32326   0.00000  Uiso   1.00
H399   H     0.71048   0.65161   0.30299   0.00000  Uiso   1.00
H400   H     0.73787   0.33361   0.24781   0.00000  Uiso   1.00
H401   H     0.73513   0.37109   0.29681   0.00000  Uiso   1.00
H402   H     0.79839   0.59616   0.06718   0.00000  Uiso   1.00
H403   H     0.75202   0.55263   0.12005   0.00000  Uiso   1.00
H404   H     0.75619   0.50907   0.07811   0.00000  Uiso   1.00
H405   H     0.87571   0.33775   0.21752   0.00000  Uiso   1.00
H406   H     0.72854   0.55163   0.07278   0.00000  Uiso   1.00
H407   H     0.76033   0.45357   0.40207   0.00000  Uiso   1.00
H408   H     0.75723   0.38687   0.36778   0.00000  Uiso   1.00
H409   H     0.75688   0.37941   0.42465   0.00000  Uiso   1.00
H410   H     0.80622   0.37924   0.38026   0.00000  Uiso   1.00
H411   H     0.82286   0.39596   0.44938   0.00000  Uiso   1.00
H412   H     0.85219   0.38451   0.00915   0.00000  Uiso   1.00
H413   H     0.84980   0.53183   0.06933   0.00000  Uiso   1.00
H414   H     0.79847   0.59094   0.41660   0.00000  Uiso   1.00
H415   H     0.79070   0.61091   0.49648   0.00000  Uiso   1.00
H416   H     0.68116   0.53125   0.21587   0.00000  Uiso   1.00
H417   H     0.97021   0.43139   0.27199   0.00000  Uiso   1.00
N418   N     0.98137   0.45695   0.29080   0.00000  Uiso   1.00
N419   N     0.77725   0.65975   0.29013   0.00000  Uiso   1.00
N420   N     0.79556   0.56452   0.05861   0.00000  Uiso   1.00
N421   N     0.78537   0.43787   0.40240   0.00000  Uiso   1.00
O422   O     0.83333   0.50000   0.25000   0.00000  Uiso   1.00
O423   O     0.82118   0.45970   0.15459   0.00000  Uiso   1.00
O424   O     0.79607   0.53724   0.34968   0.00000  Uiso   1.00
O425   O     0.87491   0.51092   0.14606   0.00000  Uiso   1.00
O426   O     0.84118   0.49213   0.34968   0.00000  Uiso   1.00
O427   O     0.84597   0.41352   0.28214   0.00000  Uiso   1.00
O428   O     0.81298   0.59418   0.27014   0.00000  Uiso   1.00
O429   O     0.74078   0.46625   0.23413   0.00000  Uiso   1.00
O430   O     0.93360   0.52605   0.21361   0.00000  Uiso   1.00
O431   O     0.73738   0.52211   0.28213   0.00000  Uiso   1.00
O432   O     0.92158   0.48559   0.27014   0.00000  Uiso   1.00
O433   O     0.80426   0.40277   0.23413   0.00000  Uiso   1.00
O434   O     0.87012   0.58953   0.21361   0.00000  Uiso   1.00
Zn435  Zn    0.86005   0.47327   0.28734   0.00000  Uiso   1.00
Zn436  Zn    0.80046   0.45791   0.21876   0.00000  Uiso   1.00
Zn437  Zn    0.87723   0.53109   0.20657   0.00000  Uiso   1.00
Zn438  Zn    0.79560   0.53773   0.28734   0.00000  Uiso   1.00
C439   C     0.05307   0.82653   0.25922   0.00000  Uiso   1.00
C440   C     0.18104   0.83315   0.05586   0.00000  Uiso   1.00
C441   C     0.19277   0.76336   0.06337   0.00000  Uiso   1.00
C442   C     0.28061   0.84023   0.24027   0.00000  Uiso   1.00
C443   C     0.14153   0.86082   0.42024   0.00000  Uiso   1.00
C444   C     0.32602   0.84336   0.23830   0.00000  Uiso   1.00
C445   C     0.00772   0.82175   0.26417   0.00000  Uiso   1.00
C446   C     0.18048   0.98932   0.23917   0.00000  Uiso   1.00
C447   C     0.14991   0.67850   0.26359   0.00000  Uiso   1.00
C448   C     0.15616   0.72255   0.25979   0.00000  Uiso   1.00
C449   C     0.17648   0.94452   0.24059   0.00000  Uiso   1.00
C450   C     0.13205   0.91345   0.48315   0.00000  Uiso   1.00
C451   C     0.18507   0.81437   0.12924   0.00000  Uiso   1.00
C452   C     0.14850   0.85140   0.37101   0.00000  Uiso   1.00
C453   C     0.18393   0.75014   0.02185   0.00000  Uiso   1.00
C454   C     0.19042   0.80466   0.08091   0.00000  Uiso   1.00
C455   C     0.13506   0.90153   0.43788   0.00000  Uiso   1.00
C456   C     0.32844   0.78007   0.32881   0.00000  Uiso   1.00
C457   C     0.07158   0.67150   0.28402   0.00000  Uiso   1.00
C458   C     0.08933   0.87660   0.08349   0.00000  Uiso   1.00
C459   C     0.10945   0.72672   0.39358   0.00000  Uiso   1.00
C460   C     0.13887   0.88614   0.01140   0.00000  Uiso   1.00
C461   C     0.15082   0.84611   0.49289   0.00000  Uiso   1.00
C462   C     0.14505   0.83153   0.44906   0.00000  Uiso   1.00
C463   C     0.16699   0.81951   0.01617   0.00000  Uiso   1.00
C464   C     0.16989   0.77748   0.49873   0.00000  Uiso   1.00
C465   C     0.15630   0.76212   0.45992   0.00000  Uiso   1.00
C466   C     0.14147   0.78813   0.43602   0.00000  Uiso   1.00
H467   H     0.19950   0.74090   0.08290   0.00000  Uiso   1.00
H468   H     0.30276   0.75895   0.34902   0.00000  Uiso   1.00
H469   H     0.00164   0.80869   0.35071   0.00000  Uiso   1.00
H470   H     0.02422   0.76414   0.31703   0.00000  Uiso   1.00
H471   H     0.11089   0.99182   0.32326   0.00000  Uiso   1.00
H472   H     0.04381   0.98494   0.30299   0.00000  Uiso   1.00
H473   H     0.07120   0.66694   0.24781   0.00000  Uiso   1.00
H474   H     0.06847   0.70442   0.29681   0.00000  Uiso   1.00
H475   H     0.13172   0.92950   0.06718   0.00000  Uiso   1.00
H476   H     0.08535   0.88596   0.12005   0.00000  Uiso   1.00
H477   H     0.08952   0.84240   0.07811   0.00000  Uiso   1.00
H478   H     0.20905   0.67109   0.21752   0.00000  Uiso   1.00
H479   H     0.06187   0.88497   0.07278   0.00000  Uiso   1.00
H480   H     0.09366   0.78691   0.40207   0.00000  Uiso   1.00
H481   H     0.09056   0.72020   0.36778   0.00000  Uiso   1.00
H482   H     0.09022   0.71275   0.42465   0.00000  Uiso   1.00
H483   H     0.13955   0.71257   0.38026   0.00000  Uiso   1.00
H484   H     0.15619   0.72929   0.44938   0.00000  Uiso   1.00
H485   H     0.18552   0.71785   0.00915   0.00000  Uiso   1.00
H486   H     0.18313   0.86516   0.06933   0.00000  Uiso   1.00
H487   H     0.13180   0.92427   0.41660   0.00000  Uiso   1.00
H488   H     0.12403   0.94424   0.49648   0.00000  Uiso   1.00
H489   H     0.01449   0.86458   0.21587   0.00000  Uiso   1.00
H490   H     0.30355   0.76472   0.27199   0.00000  Uiso   1.00
N491   N     0.31471   0.79029   0.29080   0.00000  Uiso   1.00
N492   N     0.11059   0.99308   0.29013   0.00000  Uiso   1.00
N493   N     0.12890   0.89785   0.05861   0.00000  Uiso   1.00
N494   N     0.11870   0.77120   0.40240   0.00000  Uiso   1.00
O495   O     0.16667   0.83333   0.25000   0.00000  Uiso   1.00
O496   O     0.15451   0.79304   0.15459   0.00000  Uiso   1.00
O497   O     0.12940   0.87058   0.34968   0.00000  Uiso   1.00
O498   O     0.20824   0.84425   0.14606   0.00000  Uiso   1.00
O499   O     0.17451   0.82546   0.34968   0.00000  Uiso   1.00
O500   O     0.17930   0.74686   0.28214   0.00000  Uiso   1.00
O501   O     0.14632   0.92751   0.27014   0.00000  Uiso   1.00
O502   O     0.07412   0.79958   0.23413   0.00000  Uiso   1.00
O503   O     0.26693   0.85939   0.21361   0.00000  Uiso   1.00
O504   O     0.07071   0.85544   0.28213   0.00000  Uiso   1.00
O505   O     0.25491   0.81892   0.27014   0.00000  Uiso   1.00
O506   O     0.13760   0.73610   0.23413   0.00000  Uiso   1.00
O507   O     0.20345   0.92286   0.21361   0.00000  Uiso   1.00
Zn508  Zn    0.19338   0.80661   0.28734   0.00000  Uiso   1.00
Zn509  Zn    0.13379   0.79124   0.21876   0.00000  Uiso   1.00
Zn510  Zn    0.21056   0.86442   0.20657   0.00000  Uiso   1.00
Zn511  Zn    0.12893   0.87106   0.28734   0.00000  Uiso   1.00
C512   C     0.38640   0.82653   0.25922   0.00000  Uiso   1.00
C513   C     0.51438   0.83315   0.05586   0.00000  Uiso   1.00
C514   C     0.52611   0.76336   0.06337   0.00000  Uiso   1.00
C515   C     0.61394   0.84023   0.24027   0.00000  Uiso   1.00
C516   C     0.47486   0.86082   0.42024   0.00000  Uiso   1.00
C517   C     0.65935   0.84336   0.23830   0.00000  Uiso   1.00
C518   C     0.34105   0.82175   0.26417   0.00000  Uiso   1.00
C519   C     0.51381   0.98932   0.23917   0.00000  Uiso   1.00
C520   C     0.48324   0.67850   0.26359   0.00000  Uiso   1.00
C521   C     0.48950   0.72255   0.25979   0.00000  Uiso   1.00
C522   C     0.50981   0.94452   0.24059   0.00000  Uiso   1.00
C523   C     0.46538   0.91345   0.48315   0.00000  Uiso   1.00
C524   C     0.51840   0.81437   0.12924   0.00000  Uiso   1.00
C525   C     0.48183   0.85140   0.37101   0.00000  Uiso   1.00
C526   C     0.51726   0.75014   0.02185   0.00000  Uiso   1.00
C527   C     0.52375   0.80466   0.08091   0.00000  Uiso   1.00
C528   C     0.46840   0.90153   0.43788   0.00000  Uiso   1.00
C529   C     0.66178   0.78007   0.32881   0.00000  Uiso   1.00
C530   C     0.40492   0.67150   0.28402   0.00000  Uiso   1.00
C531   C     0.42266   0.87660   0.08349   0.00000  Uiso   1.00
C532   C     0.44278   0.72672   0.39358   0.00000  Uiso   1.00
C533   C     0.47220   0.88614   0.01140   0.00000  Uiso   1.00
C534   C     0.48415   0.84611   0.49289   0.00000  Uiso   1.00
C535   C     0.47839   0.83153   0.44906   0.00000  Uiso   1.00
C536   C     0.50033   0.81951   0.01617   0.00000  Uiso   1.00
C537   C     0.50322   0.77748   0.49873   0.00000  Uiso   1.00
C538   C     0.48963   0.76212   0.45992   0.00000  Uiso   1.00
C539   C     0.47481   0.78813   0.43602   0.00000  Uiso   1.00
H540   H     0.53283   0.74090   0.08290   0.00000  Uiso   1.00
H541   H     0.63609   0.75895   0.34902   0.00000  Uiso   1.00
H542   H     0.33497   0.80869   0.35071   0.00000  Uiso   1.00
H543   H     0.35755   0.76414   0.31703   0.00000  Uiso   1.00
H544   H     0.44422   0.99182   0.32326   0.00000  Uiso   1.00
H545   H     0.37715   0.98494   0.30299   0.00000  Uiso   1.00
H546   H     0.40454   0.66694   0.24781   0.00000  Uiso   1.00
H547   H     0.40180   0.70442   0.29681   0.00000  Uiso   1.00
H548   H     0.46506   0.92950   0.06718   0.00000  Uiso   1.00
H549   H     0.41869   0.88596   0.12005   0.00000  Uiso   1.00
H550   H     0.42285   0.84240   0.07811   0.00000  Uiso   1.00
H551   H     0.54238   0.67109   0.21752   0.00000  Uiso   1.00
H552   H     0.39521   0.88497   0.07278   0.00000  Uiso   1.00
H553   H     0.42700   0.78691   0.40207   0.00000  Uiso   1.00
H554   H     0.42390   0.72020   0.36778   0.00000  Uiso   1.00
H555   H     0.42355   0.71275   0.42465   0.00000  Uiso   1.00
H556   H     0.47289   0.71257   0.38026   0.00000  Uiso   1.00
H557   H     0.48953   0.72929   0.44938   0.00000  Uiso   1.00
H558   H     0.51886   0.71785   0.00915   0.00000  Uiso   1.00
H559   H     0.51647   0.86516   0.06933   0.00000  Uiso   1.00
H560   H     0.46513   0.92427   0.41660   0.00000  Uiso   1.00
H561   H     0.45737   0.94424   0.49648   0.00000  Uiso   1.00
H562   H     0.34783   0.86458   0.21587   0.00000  Uiso   1.00
H563   H     0.63688   0.76472   0.27199   0.00000  Uiso   1.00
N564   N     0.64804   0.79029   0.29080   0.00000  Uiso   1.00
N565   N     0.44392   0.99308   0.29013   0.00000  Uiso   1.00
N566   N     0.46223   0.89785   0.05861   0.00000  Uiso   1.00
N567   N     0.45204   0.77120   0.40240   0.00000  Uiso   1.00
O568   O     0.50000   0.83333   0.25000   0.00000  Uiso   1.00
O569   O     0.48784   0.79304   0.15459   0.00000  Uiso   1.00
O570   O     0.46274   0.87058   0.34968   0.00000  Uiso   1.00
O571   O     0.54157   0.84425   0.14606   0.00000  Uiso   1.00
O572   O     0.50785   0.82546   0.34968   0.00000  Uiso   1.00
O573   O     0.51264   0.74686   0.28214   0.00000  Uiso   1.00
O574   O     0.47965   0.92751   0.27014   0.00000  Uiso   1.00
O575   O     0.40745   0.79958   0.23413   0.00000  Uiso   1.00
O576   O     0.60026   0.85939   0.21361   0.00000  Uiso   1.00
O577   O     0.40405   0.85544   0.28213   0.00000  Uiso   1.00
O578   O     0.58824   0.81892   0.27014   0.00000  Uiso   1.00
O579   O     0.47093   0.73610   0.23413   0.00000  Uiso   1.00
O580   O     0.53678   0.92286   0.21361   0.00000  Uiso   1.00
Zn581  Zn    0.52672   0.80661   0.28734   0.00000  Uiso   1.00
Zn582  Zn    0.46713   0.79124   0.21876   0.00000  Uiso   1.00
Zn583  Zn    0.54389   0.86442   0.20657   0.00000  Uiso   1.00
Zn584  Zn    0.46226   0.87106   0.28734   0.00000  Uiso   1.00
C585   C     0.71974   0.82653   0.25922   0.00000  Uiso   1.00
C586   C     0.84771   0.83315   0.05586   0.00000  Uiso   1.00
C587   C     0.85944   0.76336   0.06337   0.00000  Uiso   1.00
C588   C     0.94727   0.84023   0.24027   0.00000  Uiso   1.00
C589   C     0.80820   0.86082   0.42024   0.00000  Uiso   1.00
C590   C     0.99269   0.84336   0.23830   0.00000  Uiso   1.00
C591   C     0.67439   0.82175   0.26417   0.00000  Uiso   1.00
C592   C     0.84715   0.98932   0.23917   0.00000  Uiso   1.00
C593   C     0.81657   0.67850   0.26359   0.00000  Uiso   1.00
C594   C     0.82283   0.72255   0.25979   0.00000  Uiso   1.00
C595   C     0.84315   0.94452   0.24059   0.00000  Uiso   1.00
C596   C     0.79872   0.91345   0.48315   0.00000  Uiso   1.00
C597   C     0.85174   0.81437   0.12924   0.00000  Uiso   1.00
C598   C     0.81517   0.85140   0.37101   0.00000  Uiso   1.00
C599   C     0.85059   0.75014   0.02185   0.00000  Uiso   1.00
C600   C     0.85709   0.80466   0.08091   0.00000  Uiso   1.00
C601   C     0.80173   0.90153   0.43788   0.00000  Uiso   1.00
C602   C     0.99511   0.78007   0.32881   0.00000  Uiso   1.00
C603   C     0.73825   0.67150   0.28402   0.00000  Uiso   1.00
C604   C     0.75599   0.87660   0.08349   0.00000  Uiso   1.00
C605   C     0.77612   0.72672   0.39358   0.00000  Uiso   1.00
C606   C     0.80554   0.88614   0.01140   0.00000  Uiso   1.00
C607   C     0.81749   0.84611   0.49289   0.00000  Uiso   1.00
C608   C     0.81172   0.83153   0.44906   0.00000  Uiso   1.00
C609   C     0.83366   0.81951   0.01617   0.00000  Uiso   1.00
C610   C     0.83656   0.77748   0.49873   0.00000  Uiso   1.00
C611   C     0.82296   0.76212   0.45992   0.00000  Uiso   1.00
C612   C     0.80814   0.78813   0.43602   0.00000  Uiso   1.00
H613   H     0.86616   0.74090   0.08290   0.00000  Uiso   1.00
H614   H     0.96942   0.75895   0.34902   0.00000  Uiso   1.00
H615   H     0.66830   0.80869   0.35071   0.00000  Uiso   1.00
H616   H     0.69089   0.76414   0.31703   0.00000  Uiso   1.00
H617   H     0.77755   0.99182   0.32326   0.00000  Uiso   1.00
H618   H     0.71048   0.98494   0.30299   0.00000  Uiso   1.00
H619   H     0.73787   0.66694   0.24781   0.00000  Uiso   1.00
H620   H     0.73513   0.70442   0.29681   0.00000  Uiso   1.00
H621   H     0.79839   0.92950   0.06718   0.00000  Uiso   1.00
H622   H     0.75202   0.88596   0.12005   0.00000  Uiso   1.00
H623   H     0.75619   0.84240   0.07811   0.00000  Uiso   1.00
H624   H     0.87571   0.67109   0.21752   0.00000  Uiso   1.00
H625   H     0.72854   0.88497   0.07278   0.00000  Uiso   1.00
H626   H     0.76033   0.78691   0.40207   0.00000  Uiso   1.00
H627   H     0.75723   0.72020   0.36778   0.00000  Uiso   1.00
H628   H     0.75688   0.71275   0.42465   0.00000  Uiso   1.00
H629   H     0.80622   0.71257   0.38026   0.00000  Uiso   1.00
H630   H     0.82286   0.72929   0.44938   0.00000  Uiso   1.00
H631   H     0.85219   0.71785   0.00915   0.00000  Uiso   1.00
H632   H     0.84980   0.86516   0.06933   0.00000  Uiso   1.00
H633   H     0.79847   0.92427   0.41660   0.00000  Uiso   1.00
H634   H     0.79070   0.94424   0.49648   0.00000  Uiso   1.00
H635   H     0.68116   0.86458   0.21587   0.00000  Uiso   1.00
H636   H     0.97021   0.76472   0.27199   0.00000  Uiso   1.00
N637   N     0.98137   0.79029   0.29080   0.00000  Uiso   1.00
N638   N     0.77725   0.99308   0.29013   0.00000  Uiso   1.00
N639   N     0.79556   0.89785   0.05861   0.00000  Uiso   1.00
N640   N     0.78537   0.77120   0.40240   0.00000  Uiso   1.00
O641   O     0.83333   0.83333   0.25000   0.00000  Uiso   1.00
O642   O     0.82118   0.79304   0.15459   0.00000  Uiso   1.00
O643   O     0.79607   0.87058   0.34968   0.00000  Uiso   1.00
O644   O     0.87491   0.84425   0.14606   0.00000  Uiso   1.00
O645   O     0.84118   0.82546   0.34968   0.00000  Uiso   1.00
O646   O     0.84597   0.74686   0.28214   0.00000  Uiso   1.00
O647   O     0.81298   0.92751   0.27014   0.00000  Uiso   1.00
O648   O     0.74078   0.79958   0.23413   0.00000  Uiso   1.00
O649   O     0.93360   0.85939   0.21361   0.00000  Uiso   1.00
O650   O     0.73738   0.85544   0.28213   0.00000  Uiso   1.00
O651   O     0.92158   0.81892   0.27014   0.00000  Uiso   1.00
O652   O     0.80426   0.73610   0.23413   0.00000  Uiso   1.00
O653   O     0.87012   0.92286   0.21361   0.00000  Uiso   1.00
Zn654  Zn    0.86005   0.80661   0.28734   0.00000  Uiso   1.00
Zn655  Zn    0.80046   0.79124   0.21876   0.00000  Uiso   1.00
Zn656  Zn    0.87723   0.86442   0.20657   0.00000  Uiso   1.00
Zn657  Zn    0.79560   0.87106   0.28734   0.00000  Uiso   1.00
C658   C     0.05307   0.15986   0.75922   0.00000  Uiso   1.00
C659   C     0.18104   0.16648   0.55586   0.00000  Uiso   1.00
C660   C     0.19277   0.09669   0.56337   0.00000  Uiso   1.00
C661   C     0.28061   0.17357   0.74027   0.00000  Uiso   1.00
C662   C     0.14153   0.19415   0.92024   0.00000  Uiso   1.00
C663   C     0.32602   0.17669   0.73830   0.00000  Uiso   1.00
C664   C     0.00772   0.15508   0.76417   0.00000  Uiso   1.00
C665   C     0.18048   0.32265   0.73917   0.00000  Uiso   1.00
C666   C     0.14991   0.01184   0.76359   0.00000  Uiso   1.00
C667   C     0.15616   0.05589   0.75979   0.00000  Uiso   1.00
C668   C     0.17648   0.27785   0.74059   0.00000  Uiso   1.00
C669   C     0.13205   0.24678   0.98315   0.00000  Uiso   1.00
C670   C     0.18507   0.14771   0.62924   0.00000  Uiso   1.00
C671   C     0.14850   0.18473   0.87101   0.00000  Uiso   1.00
C672   C     0.18393   0.08348   0.52185   0.00000  Uiso   1.00
C673   C     0.19042   0.13799   0.58091   0.00000  Uiso   1.00
C674   C     0.13506   0.23486   0.93788   0.00000  Uiso   1.00
C675   C     0.32844   0.11340   0.82881   0.00000  Uiso   1.00
C676   C     0.07158   0.00484   0.78402   0.00000  Uiso   1.00
C677   C     0.08933   0.20994   0.58349   0.00000  Uiso   1.00
C678   C     0.10945   0.06006   0.89358   0.00000  Uiso   1.00
C679   C     0.13887   0.21948   0.51140   0.00000  Uiso   1.00
C680   C     0.15082   0.17944   0.99289   0.00000  Uiso   1.00
C681   C     0.14505   0.16487   0.94906   0.00000  Uiso   1.00
C682   C     0.16699   0.15285   0.51617   0.00000  Uiso   1.00
C683   C     0.16989   0.11081   0.99873   0.00000  Uiso   1.00
C684   C     0.15630   0.09545   0.95992   0.00000  Uiso   1.00
C685   C     0.14147   0.12147   0.93602   0.00000  Uiso   1.00
H686   H     0.19950   0.07423   0.58290   0.00000  Uiso   1.00
H687   H     0.30276   0.09228   0.84902   0.00000  Uiso   1.00
H688   H     0.00164   0.14202   0.85071   0.00000  Uiso   1.00
H689   H     0.02422   0.09748   0.81703   0.00000  Uiso   1.00
H690   H     0.11089   0.32516   0.82326   0.00000  Uiso   1.00
H691   H     0.04381   0.31828   0.80299   0.00000  Uiso   1.00
H692   H     0.07120   0.00028   0.74781   0.00000  Uiso   1.00
H693   H     0.06847   0.03776   0.79681   0.00000  Uiso   1.00
H694   H     0.13172   0.26283   0.56718   0.00000  Uiso   1.00
H695   H     0.08535   0.21929   0.62005   0.00000  Uiso   1.00
H696   H     0.08952   0.17574   0.57811   0.00000  Uiso   1.00
H697   H     0.20905   0.00442   0.71752   0.00000  Uiso   1.00
H698   H     0.06187   0.21830   0.57278   0.00000  Uiso   1.00
H699   H     0.09366   0.12024   0.90207   0.00000  Uiso   1.00
H700   H     0.09056   0.05353   0.86778   0.00000  Uiso   1.00
H701   H     0.09022   0.04608   0.92465   0.00000  Uiso   1.00
H702   H     0.13955   0.04590   0.88026   0.00000  Uiso   1.00
H703   H     0.15619   0.06263   0.94938   0.00000  Uiso   1.00
H704   H     0.18552   0.05118   0.50915   0.00000  Uiso   1.00
H705   H     0.18313   0.19850   0.56933   0.00000  Uiso   1.00
H706   H     0.13180   0.25761   0.91660   0.00000  Uiso   1.00
H707   H     0.12403   0.27758   0.99648   0.00000  Uiso   1.00
H708   H     0.01449   0.19792   0.71587   0.00000  Uiso   1.00
H709   H     0.30355   0.09805   0.77199   0.00000  Uiso   1.00
N710   N     0.31471   0.12362   0.79080   0.00000  Uiso   1.00
N711   N     0.11059   0.32642   0.79013   0.00000  Uiso   1.00
N712   N     0.12890   0.23118   0.55861   0.00000  Uiso   1.00
N713   N     0.11870   0.10453   0.90240   0.00000  Uiso   1.00
O714   O     0.16667   0.16667   0.75000   0.00000  Uiso   1.00
O715   O     0.15451   0.12637   0.65459   0.00000  Uiso   1.00
O716   O     0.12940   0.20391   0.84968   0.00000  Uiso   1.00
O717   O     0.20824   0.17759   0.64606   0.00000  Uiso   1.00
O718   O     0.17451   0.15880   0.84968   0.00000  Uiso   1.00
O719   O     0.17930   0.08019   0.78214   0.00000  Uiso   1.00
O720   O     0.14632   0.26085   0.77014   0.00000  Uiso   1.00
O721   O     0.07412   0.13291   0.73413   0.00000  Uiso   1.00
O722   O     0.26693   0.19272   0.71361   0.00000  Uiso   1.00
O723   O     0.07071   0.18878   0.78213   0.00000  Uiso   1.00
O724   O     0.25491   0.15226   0.77014   0.00000  Uiso   1.00
O725   O     0.13760   0.06944   0.73413   0.00000  Uiso   1.00
O726   O     0.20345   0.25620   0.71361   0.00000  Uiso   1.00
Zn727  Zn    0.19338   0.13994   0.78734   0.00000  Uiso   1.00
Zn728  Zn    0.13379   0.12458   0.71876   0.00000  Uiso   1.00
Zn729  Zn    0.21056   0.19775   0.70657   0.00000  Uiso   1.00
Zn730  Zn    0.12893   0.20439   0.78734   0.00000  Uiso   1.00
C731   C     0.38640   0.15986   0.75922   0.00000  Uiso   1.00
C732   C     0.51438   0.16648   0.55586   0.00000  Uiso   1.00
C733   C     0.52611   0.09669   0.56337   0.00000  Uiso   1.00
C734   C     0.61394   0.17357   0.74027   0.00000  Uiso   1.00
C735   C     0.47486   0.19415   0.92024   0.00000  Uiso   1.00
C736   C     0.65935   0.17669   0.73830   0.00000  Uiso   1.00
C737   C     0.34105   0.15508   0.76417   0.00000  Uiso   1.00
C738   C     0.51381   0.32265   0.73917   0.00000  Uiso   1.00
C739   C     0.48324   0.01184   0.76359   0.00000  Uiso   1.00
C740   C     0.48950   0.05589   0.75979   0.00000  Uiso   1.00
C741   C     0.50981   0.27785   0.74059   0.00000  Uiso   1.00
C742   C     0.46538   0.24678   0.98315   0.00000  Uiso   1.00
C743   C     0.51840   0.14771   0.62924   0.00000  Uiso   1.00
C744   C     0.48183   0.18473   0.87101   0.00000  Uiso   1.00
C745   C     0.51726   0.08348   0.52185   0.00000  Uiso   1.00
C746   C     0.52375   0.13799   0.58091   0.00000  Uiso   1.00
C747   C     0.46840   0.23486   0.93788   0.00000  Uiso   1.00
C748   C     0.66178   0.11340   0.82881   0.00000  Uiso   1.00
C749   C     0.40492   0.00484   0.78402   0.00000  Uiso   1.00
C750   C     0.42266   0.20994   0.58349   0.00000  Uiso   1.00
C751   C     0.44278   0.06006   0.89358   0.00000  Uiso   1.00
C752   C     0.47220   0.21948   0.51140   0.00000  Uiso   1.00
C753   C     0.48415   0.17944   0.99289   0.00000  Uiso   1.00
C754   C     0.47839   0.16487   0.94906   0.00000  Uiso   1.00
C755   C     0.50033   0.15285   0.51617   0.00000  Uiso   1.00
C756   C     0.50322   0.11081   0.99873   0.00000  Uiso   1.00
C757   C     0.48963   0.09545   0.95992   0.00000  Uiso   1.00
C758   C     0.47481   0.12147   0.93602   0.00000  Uiso   1.00
H759   H     0.53283   0.07423   0.58290   0.00000  Uiso   1.00
H760   H     0.63609   0.09228   0.84902   0.00000  Uiso   1.00
H761   H     0.33497   0.14202   0.85071   0.00000  Uiso   1.00
H762   H     0.35755   0.09748   0.81703   0.00000  Uiso   1.00
H763   H     0.44422   0.32516   0.82326   0.00000  Uiso   1.00
H764   H     0.37715   0.31828   0.80299   0.00000  Uiso   1.00
H765   H     0.40454   0.00028   0.74781   0.00000  Uiso   1.00
H766   H     0.40180   0.03776   0.79681   0.00000  Uiso   1.00
H767   H     0.46506   0.26283   0.56718   0.00000  Uiso   1.00
H768   H     0.41869   0.21929   0.62005   0.00000  Uiso   1.00
H769   H     0.42285   0.17574   0.57811   0.00000  Uiso   1.00
H770   H     0.54238   0.00442   0.71752   0.00000  Uiso   1.00
H771   H     0.39521   0.21830   0.57278   0.00000  Uiso   1.00
H772   H     0.42700   0.12024   0.90207   0.00000  Uiso   1.00
H773   H     0.42390   0.05353   0.86778   0.00000  Uiso   1.00
H774   H     0.42355   0.04608   0.92465   0.00000  Uiso   1.00
H775   H     0.47289   0.04590   0.88026   0.00000  Uiso   1.00
H776   H     0.48953   0.06263   0.94938   0.00000  Uiso   1.00
H777   H     0.51886   0.05118   0.50915   0.00000  Uiso   1.00
H778   H     0.51647   0.19850   0.56933   0.00000  Uiso   1.00
H779   H     0.46513   0.25761   0.91660   0.00000  Uiso   1.00
H780   H     0.45737   0.27758   0.99648   0.00000  Uiso   1.00
H781   H     0.34783   0.19792   0.71587   0.00000  Uiso   1.00
H782   H     0.63688   0.09805   0.77199   0.00000  Uiso   1.00
N783   N     0.64804   0.12362   0.79080   0.00000  Uiso   1.00
N784   N     0.44392   0.32642   0.79013   0.00000  Uiso   1.00
N785   N     0.46223   0.23118   0.55861   0.00000  Uiso   1.00
N786   N     0.45204   0.10453   0.90240   0.00000  Uiso   1.00
O787   O     0.50000   0.16667   0.75000   0.00000  Uiso   1.00
O788   O     0.48784   0.12637   0.65459   0.00000  Uiso   1.00
O789   O     0.46274   0.20391   0.84968   0.00000  Uiso   1.00
O790   O     0.54157   0.17759   0.64606   0.00000  Uiso   1.00
O791   O     0.50785   0.15880   0.84968   0.00000  Uiso   1.00
O792   O     0.51264   0.08019   0.78214   0.00000  Uiso   1.00
O793   O     0.47965   0.26085   0.77014   0.00000  Uiso   1.00
O794   O     0.40745   0.13291   0.73413   0.00000  Uiso   1.00
O795   O     0.60026   0.19272   0.71361   0.00000  Uiso   1.00
O796   O     0.40405   0.18878   0.78213   0.00000  Uiso   1.00
O797   O     0.58824   0.15226   0.77014   0.00000  Uiso   1.00
O798   O     0.47093   0.06944   0.73413   0.00000  Uiso   1.00
O799   O     0.53678   0.25620   0.71361   0.00000  Uiso   1.00
Zn800  Zn    0.52672   0.13994   0.78734   0.00000  Uiso   1.00
Zn801  Zn    0.46713   0.12458   0.71876   0.00000  Uiso   1.00
Zn802  Zn    0.54389   0.19775   0.70657   0.00000  Uiso   1.00
Zn803  Zn    0.46226   0.20439   0.78734   0.00000  Uiso   1.00
C804   C     0.71974   0.15986   0.75922   0.00000  Uiso   1.00
C805   C     0.84771   0.16648   0.55586   0.00000  Uiso   1.00
C806   C     0.85944   0.09669   0.56337   0.00000  Uiso   1.00
C807   C     0.94727   0.17357   0.74027   0.00000  Uiso   1.00
C808   C     0.80820   0.19415   0.92024   0.00000  Uiso   1.00
C809   C     0.99269   0.17669   0.73830   0.00000  Uiso   1.00
C810   C     0.67439   0.15508   0.76417   0.00000  Uiso   1.00
C811   C     0.84715   0.32265   0.73917   0.00000  Uiso   1.00
C812   C     0.81657   0.01184   0.76359   0.00000  Uiso   1.00
C813   C     0.82283   0.05589   0.75979   0.00000  Uiso   1.00
C814   C     0.84315   0.27785   0.74059   0.00000  Uiso   1.00
C815   C     0.79872   0.24678   0.98315   0.00000  Uiso   1.00
C816   C     0.85174   0.14771   0.62924   0.00000  Uiso   1.00
C817   C     0.81517   0.18473   0.87101   0.00000  Uiso   1.00
C818   C     0.85059   0.08348   0.52185   0.00000  Uiso   1.00
C819   C     0.85709   0.13799   0.58091   0.00000  Uiso   1.00
C820   C     0.80173   0.23486   0.93788   0.00000  Uiso   1.00
C821   C     0.99511   0.11340   0.82881   0.00000  Uiso   1.00
C822   C     0.73825   0.00484   0.78402   0.00000  Uiso   1.00
C823   C     0.75599   0.20994   0.58349   0.00000  Uiso   1.00
C824   C     0.77612   0.06006   0.89358   0.00000  Uiso   1.00
C825   C     0.80554   0.21948   0.51140   0.00000  Uiso   1.00
C826   C     0.81749   0.17944   0.99289   0.00000  Uiso   1.00
C827   C     0.81172   0.16487   0.94906   0.00000  Uiso   1.00
C828   C     0.83366   0.15285   0.51617   0.00000  Uiso   1.00
C829   C     0.83656   0.11081   0.99873   0.00000  Uiso   1.00
C830   C     0.82296   0.09545   0.95992   0.00000  Uiso   1.00
C831   C     0.80814   0.12147   0.93602   0.00000  Uiso   1.00
H832   H     0.86616   0.07423   0.58290   0.00000  Uiso   1.00
H833   H     0.96942   0.09228   0.84902   0.00000  Uiso   1.00
H834   H     0.66830   0.14202   0.85071   0.00000  Uiso   1.00
H835   H     0.69089   0.09748   0.81703   0.00000  Uiso   1.00
H836   H     0.77755   0.32516   0.82326   0.00000  Uiso   1.00
H837   H     0.71048   0.31828   0.80299   0.00000  Uiso   1.00
H838   H     0.73787   0.00028   0.74781   0.00000  Uiso   1.00
H839   H     0.73513   0.03776   0.79681   0.00000  Uiso   1.00
H840   H     0.79839   0.26283   0.56718   0.00000  Uiso   1.00
H841   H     0.75202   0.21929   0.62005   0.00000  Uiso   1.00
H842   H     0.75619   0.17574   0.57811   0.00000  Uiso   1.00
H843   H     0.87571   0.00442   0.71752   0.00000  Uiso   1.00
H844   H     0.72854   0.21830   0.57278   0.00000  Uiso   1.00
H845   H     0.76033   0.12024   0.90207   0.00000  Uiso   1.00
H846   H     0.75723   0.05353   0.86778   0.00000  Uiso   1.00
H847   H     0.75688   0.04608   0.92465   0.00000  Uiso   1.00
H848   H     0.80622   0.04590   0.88026   0.00000  Uiso   1.00
H849   H     0.82286   0.06263   0.94938   0.00000  Uiso   1.00
H850   H     0.85219   0.05118   0.50915   0.00000  Uiso   1.00
H851   H     0.84980   0.19850   0.56933   0.00000  Uiso   1.00
H852   H     0.79847   0.25761   0.91660   0.00000  Uiso   1.00
H853   H     0.79070   0.27758   0.99648   0.00000  Uiso   1.00
H854   H     0.68116   0.19792   0.71587   0.00000  Uiso   1.00
H855   H     0.97021   0.09805   0.77199   0.00000  Uiso   1.00
N856   N     0.98137   0.12362   0.79080   0.00000  Uiso   1.00
N857   N     0.77725   0.32642   0.79013   0.00000  Uiso   1.00
N858   N     0.79556   0.23118   0.55861   0.00000  Uiso   1.00
N859   N     0.78537   0.10453   0.90240   0.00000  Uiso   1.00
O860   O     0.83333   0.16667   0.75000   0.00000  Uiso   1.00
O861   O     0.82118   0.12637   0.65459   0.00000  Uiso   1.00
O862   O     0.79607   0.20391   0.84968   0.00000  Uiso   1.00
O863   O     0.87491   0.17759   0.64606   0.00000  Uiso   1.00
O864   O     0.84118   0.15880   0.84968   0.00000  Uiso   1.00
O865   O     0.84597   0.08019   0.78214   0.00000  Uiso   1.00
O866   O     0.81298   0.26085   0.77014   0.00000  Uiso   1.00
O867   O     0.74078   0.13291   0.73413   0.00000  Uiso   1.00
O868   O     0.93360   0.19272   0.71361   0.00000  Uiso   1.00
O869   O     0.73738   0.18878   0.78213   0.00000  Uiso   1.00
O870   O     0.92158   0.15226   0.77014   0.00000  Uiso   1.00
O871   O     0.80426   0.06944   0.73413   0.00000  Uiso   1.00
O872   O     0.87012   0.25620   0.71361   0.00000  Uiso   1.00
Zn873  Zn    0.86005   0.13994   0.78734   0.00000  Uiso   1.00
Zn874  Zn    0.80046   0.12458   0.71876   0.00000  Uiso   1.00
Zn875  Zn    0.87723   0.19775   0.70657   0.00000  Uiso   1.00
Zn876  Zn    0.79560   0.20439   0.78734   0.00000  Uiso   1.00
C877   C     0.05307   0.49319   0.75922   0.00000  Uiso   1.00
C878   C     0.18104   0.49982   0.55586   0.00000  Uiso   1.00
C879   C     0.19277   0.43002   0.56337   0.00000  Uiso   1.00
C880   C     0.28061   0.50690   0.74027   0.00000  Uiso   1.00
C881   C     0.14153   0.52748   0.92024   0.00000  Uiso   1.00
C882   C     0.32602   0.51003   0.73830   0.00000  Uiso   1.00
C883   C     0.00772   0.48842   0.76417   0.00000  Uiso   1.00
C884   C     0.18048   0.65598   0.73917   0.00000  Uiso   1.00
C885   C     0.14991   0.34517   0.76359   0.00000  Uiso   1.00
C886   C     0.15616   0.38922   0.75979   0.00000  Uiso   1.00
C887   C     0.17648   0.61119   0.74059   0.00000  Uiso   1.00
C888   C     0.13205   0.58012   0.98315   0.00000  Uiso   1.00
C889   C     0.18507   0.48104   0.62924   0.00000  Uiso   1.00
C890   C     0.14850   0.51806   0.87101   0.00000  Uiso   1.00
C891   C     0.18393   0.41681   0.52185   0.00000  Uiso   1.00
C892   C     0.19042   0.47132   0.58091   0.00000  Uiso   1.00
C893   C     0.13506   0.56819   0.93788   0.00000  Uiso   1.00
C894   C     0.32844   0.44674   0.82881   0.00000  Uiso   1.00
C895   C     0.07158   0.33817   0.78402   0.00000  Uiso   1.00
C896   C     0.08933   0.54327   0.58349   0.00000  Uiso   1.00
C897   C     0.10945   0.39339   0.89358   0.00000  Uiso   1.00
C898   C     0.13887   0.55281   0.51140   0.00000  Uiso   1.00
C899   C     0.15082   0.51277   0.99289   0.00000  Uiso   1.00
C900   C     0.14505   0.49820   0.94906   0.00000  Uiso   1.00
C901   C     0.16699   0.48618   0.51617   0.00000  Uiso   1.00
C902   C     0.16989   0.44414   0.99873   0.00000  Uiso   1.00
C903   C     0.15630   0.42878   0.95992   0.00000  Uiso   1.00
C904   C     0.14147   0.45480   0.93602   0.00000  Uiso   1.00
H905   H     0.19950   0.40757   0.58290   0.00000  Uiso   1.00
H906   H     0.30276   0.42562   0.84902   0.00000  Uiso   1.00
H907   H     0.00164   0.47536   0.85071   0.00000  Uiso   1.00
H908   H     0.02422   0.43081   0.81703   0.00000  Uiso   1.00
H909   H     0.11089   0.65849   0.82326   0.00000  Uiso   1.00
H910   H     0.04381   0.65161   0.80299   0.00000  Uiso   1.00
H911   H     0.07120   0.33361   0.74781   0.00000  Uiso   1.00
H912   H     0.06847   0.37109   0.79681   0.00000  Uiso   1.00
H913   H     0.13172   0.59616   0.56718   0.00000  Uiso   1.00
H914   H     0.08535   0.55263   0.62005   0.00000  Uiso   1.00
H915   H     0.08952   0.50907   0.57811   0.00000  Uiso   1.00
H916   H     0.20905   0.33775   0.71752   0.00000  Uiso   1.00
H917   H     0.06187   0.55163   0.57278   0.00000  Uiso   1.00
H918   H     0.09366   0.45357   0.90207   0.00000  Uiso   1.00
H919   H     0.09056   0.38687   0.86778   0.00000  Uiso   1.00
H920   H     0.09022   0.37941   0.92465   0.00000  Uiso   1.00
H921   H     0.13955   0.37924   0.88026   0.00000  Uiso   1.00
H922   H     0.15619   0.39596   0.94938   0.00000  Uiso   1.00
H923   H     0.18552   0.38451   0.50915   0.00000  Uiso   1.00
H924   H     0.18313   0.53183   0.56933   0.00000  Uiso   1.00
H925   H     0.13180   0.59094   0.91660   0.00000  Uiso   1.00
H926   H     0.12403   0.61091   0.99648   0.00000  Uiso   1.00
H927   H     0.01449   0.53125   0.71587   0.00000  Uiso   1.00
H928   H     0.30355   0.43139   0.77199   0.00000  Uiso   1.00
N929   N     0.31471   0.45695   0.79080   0.00000  Uiso   1.00
N930   N     0.11059   0.65975   0.79013   0.00000  Uiso   1.00
N931   N     0.12890   0.56452   0.55861   0.00000  Uiso   1.00
N932   N     0.11870   0.43787   0.90240   0.00000  Uiso   1.00
O933   O     0.16667   0.50000   0.75000   0.00000  Uiso   1.00
O934   O     0.15451   0.45970   0.65459   0.00000  Uiso   1.00
O935   O     0.12940   0.53724   0.84968   0.00000  Uiso   1.00
O936   O     0.20824   0.51092   0.64606   0.00000  Uiso   1.00
O937   O     0.17451   0.49213   0.84968   0.00000  Uiso   1.00
O938   O     0.17930   0.41352   0.78214   0.00000  Uiso   1.00
O939   O     0.14632   0.59418   0.77014   0.00000  Uiso   1.00
O940   O     0.07412   0.46625   0.73413   0.00000  Uiso   1.00
O941   O     0.26693   0.52605   0.71361   0.00000  Uiso   1.00
O942   O     0.07071   0.52211   0.78213   0.00000  Uiso   1.00
O943   O     0.25491   0.48559   0.77014   0.00000  Uiso   1.00
O944   O     0.13760   0.40277   0.73413   0.00000  Uiso   1.00
O945   O     0.20345   0.58953   0.71361   0.00000  Uiso   1.00
Zn946  Zn    0.19338   0.47327   0.78734   0.00000  Uiso   1.00
Zn947  Zn    0.13379   0.45791   0.71876   0.00000  Uiso   1.00
Zn948  Zn    0.21056   0.53109   0.70657   0.00000  Uiso   1.00
Zn949  Zn    0.12893   0.53773   0.78734   0.00000  Uiso   1.00
C950   C     0.38640   0.49319   0.75922   0.00000  Uiso   1.00
C951   C     0.51438   0.49982   0.55586   0.00000  Uiso   1.00
C952   C     0.52611   0.43002   0.56337   0.00000  Uiso   1.00
C953   C     0.61394   0.50690   0.74027   0.00000  Uiso   1.00
C954   C     0.47486   0.52748   0.92024   0.00000  Uiso   1.00
C955   C     0.65935   0.51003   0.73830   0.00000  Uiso   1.00
C956   C     0.34105   0.48842   0.76417   0.00000  Uiso   1.00
C957   C     0.51381   0.65598   0.73917   0.00000  Uiso   1.00
C958   C     0.48324   0.34517   0.76359   0.00000  Uiso   1.00
C959   C     0.48950   0.38922   0.75979   0.00000  Uiso   1.00
C960   C     0.50981   0.61119   0.74059   0.00000  Uiso   1.00
C961   C     0.46538   0.58012   0.98315   0.00000  Uiso   1.00
C962   C     0.51840   0.48104   0.62924   0.00000  Uiso   1.00
C963   C     0.48183   0.51806   0.87101   0.00000  Uiso   1.00
C964   C     0.51726   0.41681   0.52185   0.00000  Uiso   1.00
C965   C     0.52375   0.47132   0.58091   0.00000  Uiso   1.00
C966   C     0.46840   0.56819   0.93788   0.00000  Uiso   1.00
C967   C     0.66178   0.44674   0.82881   0.00000  Uiso   1.00
C968   C     0.40492   0.33817   0.78402   0.00000  Uiso   1.00
C969   C     0.42266   0.54327   0.58349   0.00000  Uiso   1.00
C970   C     0.44278   0.39339   0.89358   0.00000  Uiso   1.00
C971   C     0.47220   0.55281   0.51140   0.00000  Uiso   1.00
C972   C     0.48415   0.51277   0.99289   0.00000  Uiso   1.00
C973   C     0.47839   0.49820   0.94906   0.00000  Uiso   1.00
C974   C     0.50033   0.48618   0.51617   0.00000  Uiso   1.00
C975   C     0.50322   0.44414   0.99873   0.00000  Uiso   1.00
C976   C     0.48963   0.42878   0.95992   0.00000  Uiso   1.00
C977   C     0.47481   0.45480   0.93602   0.00000  Uiso   1.00
H978   H     0.53283   0.40757   0.58290   0.00000  Uiso   1.00
H979   H     0.63609   0.42562   0.84902   0.00000  Uiso   1.00
H980   H     0.33497   0.47536   0.85071   0.00000  Uiso   1.00
H981   H     0.35755   0.43081   0.81703   0.00000  Uiso   1.00
H982   H     0.44422   0.65849   0.82326   0.00000  Uiso   1.00
H983   H     0.37715   0.65161   0.80299   0.00000  Uiso   1.00
H984   H     0.40454   0.33361   0.74781   0.00000  Uiso   1.00
H985   H     0.40180   0.37109   0.79681   0.00000  Uiso   1.00
H986   H     0.46506   0.59616   0.56718   0.00000  Uiso   1.00
H987   H     0.41869   0.55263   0.62005   0.00000  Uiso   1.00
H988   H     0.42285   0.50907   0.57811   0.00000  Uiso   1.00
H989   H     0.54238   0.33775   0.71752   0.00000  Uiso   1.00
H990   H     0.39521   0.55163   0.57278   0.00000  Uiso   1.00
H991   H     0.42700   0.45357   0.90207   0.00000  Uiso   1.00
H992   H     0.42390   0.38687   0.86778   0.00000  Uiso   1.00
H993   H     0.42355   0.37941   0.92465   0.00000  Uiso   1.00
H994   H     0.47289   0.37924   0.88026   0.00000  Uiso   1.00
H995   H     0.48953   0.39596   0.94938   0.00000  Uiso   1.00
H996   H     0.51886   0.38451   0.50915   0.00000  Uiso   1.00
H997   H     0.51647   0.53183   0.56933   0.00000  Uiso   1.00
H998   H     0.46513   0.59094   0.91660   0.00000  Uiso   1.00
H999   H     0.45737   0.61091   0.99648   0.00000  Uiso   1.00
H1000  H     0.34783   0.53125   0.71587   0.00000  Uiso   1.00
H1001  H     0.63688   0.43139   0.77199   0.00000  Uiso   1.00
N1002  N     0.64804   0.45695   0.79080   0.00000  Uiso   1.00
N1003  N     0.44392   0.65975   0.79013   0.00000  Uiso   1.00
N1004  N     0.46223   0.56452   0.55861   0.00000  Uiso   1.00
N1005  N     0.45204   0.43787   0.90240   0.00000  Uiso   1.00
O1006  O     0.50000   0.50000   0.75000   0.00000  Uiso   1.00
O1007  O     0.48784   0.45970   0.65459   0.00000  Uiso   1.00
O1008  O     0.46274   0.53724   0.84968   0.00000  Uiso   1.00
O1009  O     0.54157   0.51092   0.64606   0.00000  Uiso   1.00
O1010  O     0.50785   0.49213   0.84968   0.00000  Uiso   1.00
O1011  O     0.51264   0.41352   0.78214   0.00000  Uiso   1.00
O1012  O     0.47965   0.59418   0.77014   0.00000  Uiso   1.00
O1013  O     0.40745   0.46625   0.73413   0.00000  Uiso   1.00
O1014  O     0.60026   0.52605   0.71361   0.00000  Uiso   1.00
O1015  O     0.40405   0.52211   0.78213   0.00000  Uiso   1.00
O1016  O     0.58824   0.48559   0.77014   0.00000  Uiso   1.00
O1017  O     0.47093   0.40277   0.73413   0.00000  Uiso   1.00
O1018  O     0.53678   0.58953   0.71361   0.00000  Uiso   1.00
Zn1019 Zn    0.52672   0.47327   0.78734   0.00000  Uiso   1.00
Zn1020 Zn    0.46713   0.45791   0.71876   0.00000  Uiso   1.00
Zn1021 Zn    0.54389   0.53109   0.70657   0.00000  Uiso   1.00
Zn1022 Zn    0.46226   0.53773   0.78734   0.00000  Uiso   1.00
C1023  C     0.71974   0.49319   0.75922   0.00000  Uiso   1.00
C1024  C     0.84771   0.49982   0.55586   0.00000  Uiso   1.00
C1025  C     0.85944   0.43002   0.56337   0.00000  Uiso   1.00
C1026  C     0.94727   0.50690   0.74027   0.00000  Uiso   1.00
C1027  C     0.80820   0.52748   0.92024   0.00000  Uiso   1.00
C1028  C     0.99269   0.51003   0.73830   0.00000  Uiso   1.00
C1029  C     0.67439   0.48842   0.76417   0.00000  Uiso   1.00
C1030  C     0.84715   0.65598   0.73917   0.00000  Uiso   1.00
C1031  C     0.81657   0.34517   0.76359   0.00000  Uiso   1.00
C1032  C     0.82283   0.38922   0.75979   0.00000  Uiso   1.00
C1033  C     0.84315   0.61119   0.74059   0.00000  Uiso   1.00
C1034  C     0.79872   0.58012   0.98315   0.00000  Uiso   1.00
C1035  C     0.85174   0.48104   0.62924   0.00000  Uiso   1.00
C1036  C     0.81517   0.51806   0.87101   0.00000  Uiso   1.00
C1037  C     0.85059   0.41681   0.52185   0.00000  Uiso   1.00
C1038  C     0.85709   0.47132   0.58091   0.00000  Uiso   1.00
C1039  C     0.80173   0.56819   0.93788   0.00000  Uiso   1.00
C1040  C     0.99511   0.44674   0.82881   0.00000  Uiso   1.00
C1041  C     0.73825   0.33817   0.78402   0.00000  Uiso   1.00
C1042  C     0.75599   0.54327   0.58349   0.00000  Uiso   1.00
C1043  C     0.77612   0.39339   0.89358   0.00000  Uiso   1.00
C1044  C     0.80554   0.55281   0.51140   0.00000  Uiso   1.00
C1045  C     0.81749   0.51277   0.99289   0.00000  Uiso   1.00
C1046  C     0.81172   0.49820   0.94906   0.00000  Uiso   1.00
C1047  C     0.83366   0.48618   0.51617   0.00000  Uiso   1.00
C1048  C     0.83656   0.44414   0.99873   0.00000  Uiso   1.00
C1049  C     0.82296   0.42878   0.95992   0.00000  Uiso   1.00
C1050  C     0.80814   0.45480   0.93602   0.00000  Uiso   1.00
H1051  H     0.86616   0.40757   0.58290   0.00000  Uiso   1.00
H1052  H     0.96942   0.42562   0.84902   0.00000  Uiso   1.00
H1053  H     0.66830   0.47536   0.85071   0.00000  Uiso   1.00
H1054  H     0.69089   0.43081   0.81703   0.00000  Uiso   1.00
H1055  H     0.77755   0.65849   0.82326   0.00000  Uiso   1.00
H1056  H     0.71048   0.65161   0.80299   0.00000  Uiso   1.00
H1057  H     0.73787   0.33361   0.74781   0.00000  Uiso   1.00
H1058  H     0.73513   0.37109   0.79681   0.00000  Uiso   1.00
H1059  H     0.79839   0.59616   0.56718   0.00000  Uiso   1.00
H1060  H     0.75202   0.55263   0.62005   0.00000  Uiso   1.00
H1061  H     0.75619   0.50907   0.57811   0.00000  Uiso   1.00
H1062  H     0.87571   0.33775   0.71752   0.00000  Uiso   1.00
H1063  H     0.72854   0.55163   0.57278   0.00000  Uiso   1.00
H1064  H     0.76033   0.45357   0.90207   0.00000  Uiso   1.00
H1065  H     0.75723   0.38687   0.86778   0.00000  Uiso   1.00
H1066  H     0.75688   0.37941   0.92465   0.00000  Uiso   1.00
H1067  H     0.80622   0.37924   0.88026   0.00000  Uiso   1.00
H1068  H     0.82286   0.39596   0.94938   0.00000  Uiso   1.00
H1069  H     0.85219   0.38451   0.50915   0.00000  Uiso   1.00
H1070  H     0.84980   0.53183   0.56933   0.00000  Uiso   1.00
H1071  H     0.79847   0.59094   0.91660   0.00000  Uiso   1.00
H1072  H     0.79070   0.61091   0.99648   0.00000  Uiso   1.00
H1073  H     0.68116   0.53125   0.71587   0.00000  Uiso   1.00
H1074  H     0.97021   0.43139   0.77199   0.00000  Uiso   1.00
N1075  N     0.98137   0.45695   0.79080   0.00000  Uiso   1.00
N1076  N     0.77725   0.65975   0.79013   0.00000  Uiso   1.00
N1077  N     0.79556   0.56452   0.55861   0.00000  Uiso   1.00
N1078  N     0.78537   0.43787   0.90240   0.00000  Uiso   1.00
O1079  O     0.83333   0.50000   0.75000   0.00000  Uiso   1.00
O1080  O     0.82118   0.45970   0.65459   0.00000  Uiso   1.00
O1081  O     0.79607   0.53724   0.84968   0.00000  Uiso   1.00
O1082  O     0.87491   0.51092   0.64606   0.00000  Uiso   1.00
O1083  O     0.84118   0.49213   0.84968   0.00000  Uiso   1.00
O1084  O     0.84597   0.41352   0.78214   0.00000  Uiso   1.00
O1085  O     0.81298   0.59418   0.77014   0.00000  Uiso   1.00
O1086  O     0.74078   0.46625   0.73413   0.00000  Uiso   1.00
O1087  O     0.93360   0.52605   0.71361   0.00000  Uiso   1.00
O1088  O     0.73738   0.52211   0.78213   0.00000  Uiso   1.00
O1089  O     0.92158   0.48559   0.77014   0.00000  Uiso   1.00
O1090  O     0.80426   0.40277   0.73413   0.00000  Uiso   1.00
O1091  O     0.87012   0.58953   0.71361   0.00000  Uiso   1.00
Zn1092 Zn    0.86005   0.47327   0.78734   0.00000  Uiso   1.00
Zn1093 Zn    0.80046   0.45791   0.71876   0.00000  Uiso   1.00
Zn1094 Zn    0.87723   0.53109   0.70657   0.00000  Uiso   1.00
Zn1095 Zn    0.79560   0.53773   0.78734   0.00000  Uiso   1.00
C1096  C     0.05307   0.82653   0.75922   0.00000  Uiso   1.00
C1097  C     0.18104   0.83315   0.55586   0.00000  Uiso   1.00
C1098  C     0.19277   0.76336   0.56337   0.00000  Uiso   1.00
C1099  C     0.28061   0.84023   0.74027   0.00000  Uiso   1.00
C1100  C     0.14153   0.86082   0.92024   0.00000  Uiso   1.00
C1101  C     0.32602   0.84336   0.73830   0.00000  Uiso   1.00
C1102  C     0.00772   0.82175   0.76417   0.00000  Uiso   1.00
C1103  C     0.18048   0.98932   0.73917   0.00000  Uiso   1.00
C1104  C     0.14991   0.67850   0.76359   0.00000  Uiso   1.00
C1105  C     0.15616   0.72255   0.75979   0.00000  Uiso   1.00
C1106  C     0.17648   0.94452   0.74059   0.00000  Uiso   1.00
C1107  C     0.13205   0.91345   0.98315   0.00000  Uiso   1.00
C1108  C     0.18507   0.81437   0.62924   0.00000  Uiso   1.00
C1109  C     0.14850   0.85140   0.87101   0.00000  Uiso   1.00
C1110  C     0.18393   0.75014   0.52185   0.00000  Uiso   1.00
C1111  C     0.19042   0.80466   0.58091   0.00000  Uiso   1.00
C1112  C     0.13506   0.90153   0.93788   0.00000  Uiso   1.00
C1113  C     0.32844   0.78007   0.82881   0.00000  Uiso   1.00
C1114  C     0.07158   0.67150   0.78402   0.00000  Uiso   1.00
C1115  C     0.08933   0.87660   0.58349   0.00000  Uiso   1.00
C1116  C     0.10945   0.72672   0.89358   0.00000  Uiso   1.00
C1117  C     0.13887   0.88614   0.51140   0.00000  Uiso   1.00
C1118  C     0.15082   0.84611   0.99289   0.00000  Uiso   1.00
C1119  C     0.14505   0.83153   0.94906   0.00000  Uiso   1.00
C1120  C     0.16699   0.81951   0.51617   0.00000  Uiso   1.00
C1121  C     0.16989   0.77748   0.99873   0.00000  Uiso   1.00
C1122  C     0.15630   0.76212   0.95992   0.00000  Uiso   1.00
C1123  C     0.14147   0.78813   0.93602   0.00000  Uiso   1.00
H1124  H     0.19950   0.74090   0.58290   0.00000  Uiso   1.00
H1125  H     0.30276   0.75895   0.84902   0.00000  Uiso   1.00
H1126  H     0.00164   0.80869   0.85071   0.00000  Uiso   1.00
H1127  H     0.02422   0.76414   0.81703   0.00000  Uiso   1.00
H1128  H     0.11089   0.99182   0.82326   0.00000  Uiso   1.00
H1129  H     0.04381   0.98494   0.80299   0.00000  Uiso   1.00
H1130  H     0.07120   0.66694   0.74781   0.00000  Uiso   1.00
H1131  H     0.06847   0.70442   0.79681   0.00000  Uiso   1.00
H1132  H     0.13172   0.92950   0.56718   0.00000  Uiso   1.00
H1133  H     0.08535   0.88596   0.62005   0.00000  Uiso   1.00
H1134  H     0.08952   0.84240   0.57811   0.00000  Uiso   1.00
H1135  H     0.20905   0.67109   0.71752   0.00000  Uiso   1.00
H1136  H     0.06187   0.88497   0.57278   0.00000  Uiso   1.00
H1137  H     0.09366   0.78691   0.90207   0.00000  Uiso   1.00
H1138  H     0.09056   0.72020   0.86778   0.00000  Uiso   1.00
H1139  H     0.09022   0.71275   0.92465   0.00000  Uiso   1.00
H1140  H     0.13955   0.71257   0.88026   0.00000  Uiso   1.00
H1141  H     0.15619   0.72929   0.94938   0.00000  Uiso   1.00
H1142  H     0.18552   0.71785   0.50915   0.00000  Uiso   1.00
H1143  H     0.18313   0.86516   0.56933   0.00000  Uiso   1.00
H1144  H     0.13180   0.92427   0.91660   0.00000  Uiso   1.00
H1145  H     0.12403   0.94424   0.99648   0.00000  Uiso   1.00
H1146  H     0.01449   0.86458   0.71587   0.00000  Uiso   1.00
H1147  H     0.30355   0.76472   0.77199   0.00000  Uiso   1.00
N1148  N     0.31471   0.79029   0.79080   0.00000  Uiso   1.00
N1149  N     0.11059   0.99308   0.79013   0.00000  Uiso   1.00
N1150  N     0.12890   0.89785   0.55861   0.00000  Uiso   1.00
N1151  N     0.11870   0.77120   0.90240   0.00000  Uiso   1.00
O1152  O     0.16667   0.83333   0.75000   0.00000  Uiso   1.00
O1153  O     0.15451   0.79304   0.65459   0.00000  Uiso   1.00
O1154  O     0.12940   0.87058   0.84968   0.00000  Uiso   1.00
O1155  O     0.20824   0.84425   0.64606   0.00000  Uiso   1.00
O1156  O     0.17451   0.82546   0.84968   0.00000  Uiso   1.00
O1157  O     0.17930   0.74686   0.78214   0.00000  Uiso   1.00
O1158  O     0.14632   0.92751   0.77014   0.00000  Uiso   1.00
O1159  O     0.07412   0.79958   0.73413   0.00000  Uiso   1.00
O1160  O     0.26693   0.85939   0.71361   0.00000  Uiso   1.00
O1161  O     0.07071   0.85544   0.78213   0.00000  Uiso   1.00
O1162  O     0.25491   0.81892   0.77014   0.00000  Uiso   1.00
O1163  O     0.13760   0.73610   0.73413   0.00000  Uiso   1.00
O1164  O     0.20345   0.92286   0.71361   0.00000  Uiso   1.00
Zn1165 Zn    0.19338   0.80661   0.78734   0.00000  Uiso   1.00
Zn1166 Zn    0.13379   0.79124   0.71876   0.00000  Uiso   1.00
Zn1167 Zn    0.21056   0.86442   0.70657   0.00000  Uiso   1.00
Zn1168 Zn    0.12893   0.87106   0.78734   0.00000  Uiso   1.00
C1169  C     0.38640   0.82653   0.75922   0.00000  Uiso   1.00
C1170  C     0.51438   0.83315   0.55586   0.00000  Uiso   1.00
C1171  C     0.52611   0.76336   0.56337   0.00000  Uiso   1.00
C1172  C     0.61394   0.84023   0.74027   0.00000  Uiso   1.00
C1173  C     0.47486   0.86082   0.92024   0.00000  Uiso   1.00
C1174  C     0.65935   0.84336   0.73830   0.00000  Uiso   1.00
C1175  C     0.34105   0.82175   0.76417   0.00000  Uiso   1.00
C1176  C     0.51381   0.98932   0.73917   0.00000  Uiso   1.00
C1177  C     0.48324   0.67850   0.76359   0.00000  Uiso   1.00
C1178  C     0.48950   0.72255   0.75979   0.00000  Uiso   1.00
C1179  C     0.50981   0.94452   0.74059   0.00000  Uiso   1.00
C1180  C     0.46538   0.91345   0.98315   0.00000  Uiso   1.00
C1181  C     0.51840   0.81437   0.62924   0.00000  Uiso   1.00
C1182  C     0.48183   0.85140   0.87101   0.00000  Uiso   1.00
C1183  C     0.51726   0.75014   0.52185   0.00000  Uiso   1.00
C1184  C     0.52375   0.80466   0.58091   0.00000  Uiso   1.00
C1185  C     0.46840   0.90153   0.93788   0.00000  Uiso   1.00
C1186  C     0.66178   0.78007   0.82881   0.00000  Uiso   1.00
C1187  C     0.40492   0.67150   0.78402   0.00000  Uiso   1.00
C1188  C     0.42266   0.87660   0.58349   0.00000  Uiso   1.00
C1189  C     0.44278   0.72672   0.89358   0.00000  Uiso   1.00
C1190  C     0.47220   0.88614   0.51140   0.00000  Uiso   1.00
C1191  C     0.48415   0.84611   0.99289   0.00000  Uiso   1.00
C1192  C     0.47839   0.83153   0.94906   0.00000  Uiso   1.00
C1193  C     0.50033   0.81951   0.51617   0.00000  Uiso   1.00
C1194  C     0.50322   0.77748   0.99873   0.00000  Uiso   1.00
C1195  C     0.48963   0.76212   0.95992   0.00000  Uiso   1.00
C1196  C     0.47481   0.78813   0.93602   0.00000  Uiso   1.00
H1197  H     0.53283   0.74090   0.58290   0.00000  Uiso   1.00
H1198  H     0.63609   0.75895   0.84902   0.00000  Uiso   1.00
H1199  H     0.33497   0.80869   0.85071   0.00000  Uiso   1.00
H1200  H     0.35755   0.76414   0.81703   0.00000  Uiso   1.00
H1201  H     0.44422   0.99182   0.82326   0.00000  Uiso   1.00
H1202  H     0.37715   0.98494   0.80299   0.00000  Uiso   1.00
H1203  H     0.40454   0.66694   0.74781   0.00000  Uiso   1.00
H1204  H     0.40180   0.70442   0.79681   0.00000  Uiso   1.00
H1205  H     0.46506   0.92950   0.56718   0.00000  Uiso   1.00
H1206  H     0.41869   0.88596   0.62005   0.00000  Uiso   1.00
H1207  H     0.42285   0.84240   0.57811   0.00000  Uiso   1.00
H1208  H     0.54238   0.67109   0.71752   0.00000  Uiso   1.00
H1209  H     0.39521   0.88497   0.57278   0.00000  Uiso   1.00
H1210  H     0.42700   0.78691   0.90207   0.00000  Uiso   1.00
H1211  H     0.42390   0.72020   0.86778   0.00000  Uiso   1.00
H1212  H     0.42355   0.71275   0.92465   0.00000  Uiso   1.00
H1213  H     0.47289   0.71257   0.88026   0.00000  Uiso   1.00
H1214  H     0.48953   0.72929   0.94938   0.00000  Uiso   1.00
H1215  H     0.51886   0.71785   0.50915   0.00000  Uiso   1.00
H1216  H     0.51647   0.86516   0.56933   0.00000  Uiso   1.00
H1217  H     0.46513   0.92427   0.91660   0.00000  Uiso   1.00
H1218  H     0.45737   0.94424   0.99648   0.00000  Uiso   1.00
H1219  H     0.34783   0.86458   0.71587   0.00000  Uiso   1.00
H1220  H     0.63688   0.76472   0.77199   0.00000  Uiso   1.00
N1221  N     0.64804   0.79029   0.79080   0.00000  Uiso   1.00
N1222  N     0.44392   0.99308   0.79013   0.00000  Uiso   1.00
N1223  N     0.46223   0.89785   0.55861   0.00000  Uiso   1.00
N1224  N     0.45204   0.77120   0.90240   0.00000  Uiso   1.00
O1225  O     0.50000   0.83333   0.75000   0.00000  Uiso   1.00
O1226  O     0.48784   0.79304   0.65459   0.00000  Uiso   1.00
O1227  O     0.46274   0.87058   0.84968   0.00000  Uiso   1.00
O1228  O     0.54157   0.84425   0.64606   0.00000  Uiso   1.00
O1229  O     0.50785   0.82546   0.84968   0.00000  Uiso   1.00
O1230  O     0.51264   0.74686   0.78214   0.00000  Uiso   1.00
O1231  O     0.47965   0.92751   0.77014   0.00000  Uiso   1.00
O1232  O     0.40745   0.79958   0.73413   0.00000  Uiso   1.00
O1233  O     0.60026   0.85939   0.71361   0.00000  Uiso   1.00
O1234  O     0.40405   0.85544   0.78213   0.00000  Uiso   1.00
O1235  O     0.58824   0.81892   0.77014   0.00000  Uiso   1.00
O1236  O     0.47093   0.73610   0.73413   0.00000  Uiso   1.00
O1237  O     0.53678   0.92286   0.71361   0.00000  Uiso   1.00
Zn1238 Zn    0.52672   0.80661   0.78734   0.00000  Uiso   1.00
Zn1239 Zn    0.46713   0.79124   0.71876   0.00000  Uiso   1.00
Zn1240 Zn    0.54389   0.86442   0.70657   0.00000  Uiso   1.00
Zn1241 Zn    0.46226   0.87106   0.78734   0.00000  Uiso   1.00
C1242  C     0.71974   0.82653   0.75922   0.00000  Uiso   1.00
C1243  C     0.84771   0.83315   0.55586   0.00000  Uiso   1.00
C1244  C     0.85944   0.76336   0.56337   0.00000  Uiso   1.00
C1245  C     0.94727   0.84023   0.74027   0.00000  Uiso   1.00
C1246  C     0.80820   0.86082   0.92024   0.00000  Uiso   1.00
C1247  C     0.99269   0.84336   0.73830   0.00000  Uiso   1.00
C1248  C     0.67439   0.82175   0.76417   0.00000  Uiso   1.00
C1249  C     0.84715   0.98932   0.73917   0.00000  Uiso   1.00
C1250  C     0.81657   0.67850   0.76359   0.00000  Uiso   1.00
C1251  C     0.82283   0.72255   0.75979   0.00000  Uiso   1.00
C1252  C     0.84315   0.94452   0.74059   0.00000  Uiso   1.00
C1253  C     0.79872   0.91345   0.98315   0.00000  Uiso   1.00
C1254  C     0.85174   0.81437   0.62924   0.00000  Uiso   1.00
C1255  C     0.81517   0.85140   0.87101   0.00000  Uiso   1.00
C1256  C     0.85059   0.75014   0.52185   0.00000  Uiso   1.00
C1257  C     0.85709   0.80466   0.58091   0.00000  Uiso   1.00
C1258  C     0.80173   0.90153   0.93788   0.00000  Uiso   1.00
C1259  C     0.99511   0.78007   0.82881   0.00000  Uiso   1.00
C1260  C     0.73825   0.67150   0.78402   0.00000  Uiso   1.00
C1261  C     0.75599   0.87660   0.58349   0.00000  Uiso   1.00
C1262  C     0.77612   0.72672   0.89358   0.00000  Uiso   1.00
C1263  C     0.80554   0.88614   0.51140   0.00000  Uiso   1.00
C1264  C     0.81749   0.84611   0.99289   0.00000  Uiso   1.00
C1265  C     0.81172   0.83153   0.94906   0.00000  Uiso   1.00
C1266  C     0.83366   0.81951   0.51617   0.00000  Uiso   1.00
C1267  C     0.83656   0.77748   0.99873   0.00000  Uiso   1.00
C1268  C     0.82296   0.76212   0.95992   0.00000  Uiso   1.00
C1269  C     0.80814   0.78813   0.93602   0.00000  Uiso   1.00
H1270  H     0.86616   0.74090   0.58290   0.00000  Uiso   1.00
H1271  H     0.96942   0.75895   0.84902   0.00000  Uiso   1.00
H1272  H     0.66830   0.80869   0.85071   0.00000  Uiso   1.00
H1273  H     0.69089   0.76414   0.81703   0.00000  Uiso   1.00
H1274  H     0.77755   0.99182   0.82326   0.00000  Uiso   1.00
H1275  H     0.71048   0.98494   0.80299   0.00000  Uiso   1.00
H1276  H     0.73787   0.66694   0.74781   0.00000  Uiso   1.00
H1277  H     0.73513   0.70442   0.79681   0.00000  Uiso   1.00
H1278  H     0.79839   0.92950   0.56718   0.00000  Uiso   1.00
H1279  H     0.75202   0.88596   0.62005   0.00000  Uiso   1.00
H1280  H     0.75619   0.84240   0.57811   0.00000  Uiso   1.00
H1281  H     0.87571   0.67109   0.71752   0.00000  Uiso   1.00
H1282  H     0.72854   0.88497   0.57278   0.00000  Uiso   1.00
H1283  H     0.76033   0.78691   0.90207   0.00000  Uiso   1.00
H1284  H     0.75723   0.72020   0.86778   0.00000  Uiso   1.00
H1285  H     0.75688   0.71275   0.92465   0.00000  Uiso   1.00
H1286  H     0.80622   0.71257   0.88026   0.00000  Uiso   1.00
H1287  H     0.82286   0.72929   0.94938   0.00000  Uiso   1.00
H1288  H     0.85219   0.71785   0.50915   0.00000  Uiso   1.00
H1289  H     0.84980   0.86516   0.56933   0.00000  Uiso   1.00
H1290  H     0.79847   0.92427   0.91660   0.00000  Uiso   1.00
H1291  H     0.79070   0.94424   0.99648   0.00000  Uiso   1.00
H1292  H     0.68116   0.86458   0.71587   0.00000  Uiso   1.00
H1293  H     0.97021   0.76472   0.77199   0.00000  Uiso   1.00
N1294  N     0.98137   0.79029   0.79080   0.00000  Uiso   1.00
N1295  N     0.77725   0.99308   0.79013   0.00000  Uiso   1.00
N1296  N     0.79556   0.89785   0.55861   0.00000  Uiso   1.00
N1297  N     0.78537   0.77120   0.90240   0.00000  Uiso   1.00
O1298  O     0.83333   0.83333   0.75000   0.00000  Uiso   1.00
O1299  O     0.82118   0.79304   0.65459   0.00000  Uiso   1.00
O1300  O     0.79607   0.87058   0.84968   0.00000  Uiso   1.00
O1301  O     0.87491   0.84425   0.64606   0.00000  Uiso   1.00
O1302  O     0.84118   0.82546   0.84968   0.00000  Uiso   1.00
O1303  O     0.84597   0.74686   0.78214   0.00000  Uiso   1.00
O1304  O     0.81298   0.92751   0.77014   0.00000  Uiso   1.00
O1305  O     0.74078   0.79958   0.73413   0.00000  Uiso   1.00
O1306  O     0.93360   0.85939   0.71361   0.00000  Uiso   1.00
O1307  O     0.73738   0.85544   0.78213   0.00000  Uiso   1.00
O1308  O     0.92158   0.81892   0.77014   0.00000  Uiso   1.00
O1309  O     0.80426   0.73610   0.73413   0.00000  Uiso   1.00
O1310  O     0.87012   0.92286   0.71361   0.00000  Uiso   1.00
Zn1311 Zn    0.86005   0.80661   0.78734   0.00000  Uiso   1.00
Zn1312 Zn    0.80046   0.79124   0.71876   0.00000  Uiso   1.00
Zn1313 Zn    0.87723   0.86442   0.70657   0.00000  Uiso   1.00
Zn1314 Zn    0.79560   0.87106   0.78734   0.00000  Uiso   1.00
loop_
_geom_bond_atom_site_label_1
_geom_bond_atom_site_label_2
_geom_bond_distance
_geom_bond_site_symmetry_2
_ccdc_geom_bond_type
C1     O66     1.267   .     A
C1     O64     1.261   .     A
C1     C7      1.436   .     S
C2     H48     1.076   .     S
C2     C25     1.413   .     A
C2     C16     1.393   .     A
C3     C15     1.387   .     A
C3     H29     1.084   .     S
C3     C16     1.397   .     A
C4     O65     1.291   .     A
C4     C6      1.457   .     S
C4     O67     1.274   .     A
C5     C17     1.400   .     A
C5     C14     1.476   .     S
C5     C24     1.419   .     A
C6     C80     1.349   .     S
C6     H124    1.088   .     S
C7     C152    1.349   1_455 S
C7     N199    1.432   1_455 S
C8     C11     1.456   .     S
C8     C228    1.344   .     S
C8     H259    1.088   .     S
C9     C10     1.439   .     S
C9     C446    1.344   1_545 S
C9     N492    1.429   1_545 S
C10    O68     1.266   .     A
C10    O62     1.276   .     A
C11    O69     1.280   .     A
C11    O63     1.269   .     A
C12    C17     1.385   .     A
C12    H50     1.083   .     S
C12    C679    1.398   .     S
C13    O58     1.272   .     A
C13    C16     1.456   .     S
C13    O60     1.284   .     A
C14    O59     1.282   .     A
C14    O61     1.291   .     A
C15    H47     1.084   .     S
C15    C683    1.401   1_554 S
C17    H49     1.084   .     S
C18    H30     1.110   .     S
C18    N53     1.448   .     S
C18    H104    1.111   .     S
C18    H105    1.111   .     S
C19    H35     1.111   .     S
C19    H36     1.110   .     S
C19    H472    1.110   1_545 S
C19    N492    1.447   1_545 S
C20    H38     1.110   .     S
C20    N55     1.447   .     S
C20    H41     1.111   .     S
C20    H39     1.111   .     S
C21    N56     1.446   .     S
C21    H45     1.111   .     S
C21    H44     1.111   .     S
C21    H43     1.108   .     S
C22    N55     1.425   .     S
C22    C669    1.398   1_554 S
C22    C680    1.431   1_554 S
C23    C24     1.426   .     A
C23    C679    1.431   .     S
C23    C682    1.427   .     S
C24    C28     1.422   .     A
C25    C680    1.427   1_554 S
C25    C683    1.421   1_554 S
C26    C27     1.392   .     A
C26    C682    1.421   .     S
C26    C672    1.401   .     S
C27    C28     1.401   .     A
C27    H46     1.082   .     S
C28    N56     1.436   .     S
H31    C164    1.111   1_455 S
H32    C164    1.111   1_455 S
H33    N54     1.030   .     S
H34    C238    1.110   .     S
H37    N55     1.032   .     S
H40    C446    1.088   1_545 S
H42    N56     1.032   .     S
H51    C152    1.088   1_455 S
H52    N53     1.032   .     S
N53    C80     1.432   .     S
N54    C228    1.429   .     S
N54    C238    1.447   .     S
O57    Zn71    1.932   .     S
O57    Zn72    1.948   .     S
O57    Zn70    1.960   .     S
O57    Zn73    1.936   .     S
O58    Zn71    1.926   .     S
O59    Zn73    1.928   .     S
O60    Zn72    1.917   .     S
O61    Zn70    1.916   .     S
O62    Zn70    1.934   .     S
O63    Zn73    1.944   .     S
O64    Zn71    1.937   .     S
O65    Zn72    1.941   .     S
O66    Zn73    1.935   .     S
O67    Zn70    1.935   .     S
O68    Zn71    1.949   .     S
O69    Zn72    1.938   .     S
C74    O139    1.267   .     A
C74    O137    1.261   .     A
C74    C80     1.436   .     S
C75    H121    1.076   .     S
C75    C98     1.413   .     A
C75    C89     1.393   .     A
C76    C88     1.387   .     A
C76    H102    1.084   .     S
C76    C89     1.397   .     A
C77    O138    1.291   .     A
C77    C79     1.457   .     S
C77    O140    1.274   .     A
C78    C90     1.400   .     A
C78    C87     1.476   .     S
C78    C97     1.419   .     A
C79    C153    1.349   .     S
C79    H197    1.088   .     S
C81    C84     1.456   .     S
C81    C301    1.344   .     S
C81    H332    1.088   .     S
C82    C83     1.439   .     S
C82    C519    1.344   1_545 S
C82    N565    1.429   1_545 S
C83    O141    1.266   .     A
C83    O135    1.276   .     A
C84    O142    1.280   .     A
C84    O136    1.269   .     A
C85    C90     1.385   .     A
C85    H123    1.083   .     S
C85    C752    1.398   .     S
C86    O131    1.272   .     A
C86    C89     1.456   .     S
C86    O133    1.284   .     A
C87    O132    1.282   .     A
C87    O134    1.291   .     A
C88    H120    1.084   .     S
C88    C756    1.401   1_554 S
C90    H122    1.084   .     S
C91    H103    1.110   .     S
C91    N126    1.448   .     S
C91    H177    1.111   .     S
C91    H178    1.111   .     S
C92    H108    1.111   .     S
C92    H109    1.110   .     S
C92    H545    1.110   1_545 S
C92    N565    1.447   1_545 S
C93    H111    1.110   .     S
C93    N128    1.447   .     S
C93    H114    1.111   .     S
C93    H112    1.111   .     S
C94    N129    1.446   .     S
C94    H118    1.111   .     S
C94    H117    1.111   .     S
C94    H116    1.108   .     S
C95    N128    1.425   .     S
C95    C742    1.398   1_554 S
C95    C753    1.431   1_554 S
C96    C97     1.426   .     A
C96    C752    1.431   .     S
C96    C755    1.427   .     S
C97    C101    1.422   .     A
C98    C753    1.427   1_554 S
C98    C756    1.421   1_554 S
C99    C100    1.392   .     A
C99    C755    1.421   .     S
C99    C745    1.401   .     S
C100   C101    1.401   .     A
C100   H119    1.082   .     S
C101   N129    1.436   .     S
H106   N127    1.030   .     S
H107   C311    1.110   .     S
H110   N128    1.032   .     S
H113   C519    1.088   1_545 S
H115   N129    1.032   .     S
H125   N126    1.032   .     S
N126   C153    1.432   .     S
N127   C301    1.429   .     S
N127   C311    1.447   .     S
O130   Zn144   1.932   .     S
O130   Zn145   1.948   .     S
O130   Zn143   1.960   .     S
O130   Zn146   1.936   .     S
O131   Zn144   1.926   .     S
O132   Zn146   1.928   .     S
O133   Zn145   1.917   .     S
O134   Zn143   1.916   .     S
O135   Zn143   1.934   .     S
O136   Zn146   1.944   .     S
O137   Zn144   1.937   .     S
O138   Zn145   1.941   .     S
O139   Zn146   1.935   .     S
O140   Zn143   1.935   .     S
O141   Zn144   1.949   .     S
O142   Zn145   1.938   .     S
C147   O212    1.267   .     A
C147   O210    1.261   .     A
C147   C153    1.436   .     S
C148   H194    1.076   .     S
C148   C171    1.413   .     A
C148   C162    1.393   .     A
C149   C161    1.387   .     A
C149   H175    1.084   .     S
C149   C162    1.397   .     A
C150   O211    1.291   .     A
C150   C152    1.457   .     S
C150   O213    1.274   .     A
C151   C163    1.400   .     A
C151   C160    1.476   .     S
C151   C170    1.419   .     A
C152   C7      1.349   1_655 S
C152   H51     1.088   1_655 S
C154   C157    1.456   .     S
C154   C374    1.344   .     S
C154   H405    1.088   .     S
C155   C156    1.439   .     S
C155   C592    1.344   1_545 S
C155   N638    1.429   1_545 S
C156   O214    1.266   .     A
C156   O208    1.276   .     A
C157   O215    1.280   .     A
C157   O209    1.269   .     A
C158   C163    1.385   .     A
C158   H196    1.083   .     S
C158   C825    1.398   .     S
C159   O204    1.272   .     A
C159   C162    1.456   .     S
C159   O206    1.284   .     A
C160   O205    1.282   .     A
C160   O207    1.291   .     A
C161   H193    1.084   .     S
C161   C829    1.401   1_554 S
C163   H195    1.084   .     S
C164   H176    1.110   .     S
C164   N199    1.448   .     S
C164   H31     1.111   1_655 S
C164   H32     1.111   1_655 S
C165   H181    1.111   .     S
C165   H182    1.110   .     S
C165   H618    1.110   1_545 S
C165   N638    1.447   1_545 S
C166   H184    1.110   .     S
C166   N201    1.447   .     S
C166   H187    1.111   .     S
C166   H185    1.111   .     S
C167   N202    1.446   .     S
C167   H191    1.111   .     S
C167   H190    1.111   .     S
C167   H189    1.108   .     S
C168   N201    1.425   .     S
C168   C815    1.398   1_554 S
C168   C826    1.431   1_554 S
C169   C170    1.426   .     A
C169   C825    1.431   .     S
C169   C828    1.427   .     S
C170   C174    1.422   .     A
C171   C826    1.427   1_554 S
C171   C829    1.421   1_554 S
C172   C173    1.392   .     A
C172   C828    1.421   .     S
C172   C818    1.401   .     S
C173   C174    1.401   .     A
C173   H192    1.082   .     S
C174   N202    1.436   .     S
H179   N200    1.030   .     S
H180   C384    1.110   .     S
H183   N201    1.032   .     S
H186   C592    1.088   1_545 S
H188   N202    1.032   .     S
H198   N199    1.032   .     S
N199   C7      1.432   1_655 S
N200   C374    1.429   .     S
N200   C384    1.447   .     S
O203   Zn217   1.932   .     S
O203   Zn218   1.948   .     S
O203   Zn216   1.960   .     S
O203   Zn219   1.936   .     S
O204   Zn217   1.926   .     S
O205   Zn219   1.928   .     S
O206   Zn218   1.917   .     S
O207   Zn216   1.916   .     S
O208   Zn216   1.934   .     S
O209   Zn219   1.944   .     S
O210   Zn217   1.937   .     S
O211   Zn218   1.941   .     S
O212   Zn219   1.935   .     S
O213   Zn216   1.935   .     S
O214   Zn217   1.949   .     S
O215   Zn218   1.938   .     S
C220   O285    1.267   .     A
C220   O283    1.261   .     A
C220   C226    1.436   .     S
C221   H267    1.076   .     S
C221   C244    1.413   .     A
C221   C235    1.393   .     A
C222   C234    1.387   .     A
C222   H248    1.084   .     S
C222   C235    1.397   .     A
C223   O284    1.291   .     A
C223   C225    1.457   .     S
C223   O286    1.274   .     A
C224   C236    1.400   .     A
C224   C233    1.476   .     S
C224   C243    1.419   .     A
C225   C299    1.349   .     S
C225   H343    1.088   .     S
C226   C371    1.349   1_455 S
C226   N418    1.432   1_455 S
C227   C230    1.456   .     S
C227   C447    1.344   .     S
C227   H478    1.088   .     S
C228   C229    1.439   .     S
C229   O287    1.266   .     A
C229   O281    1.276   .     A
C230   O288    1.280   .     A
C230   O282    1.269   .     A
C231   C236    1.385   .     A
C231   H269    1.083   .     S
C231   C898    1.398   .     S
C232   O277    1.272   .     A
C232   C235    1.456   .     S
C232   O279    1.284   .     A
C233   O278    1.282   .     A
C233   O280    1.291   .     A
C234   H266    1.084   .     S
C234   C902    1.401   1_554 S
C236   H268    1.084   .     S
C237   H249    1.110   .     S
C237   N272    1.448   .     S
C237   H323    1.111   .     S
C237   H324    1.111   .     S
C238   H254    1.111   .     S
C238   H255    1.110   .     S
C239   H257    1.110   .     S
C239   N274    1.447   .     S
C239   H260    1.111   .     S
C239   H258    1.111   .     S
C240   N275    1.446   .     S
C240   H264    1.111   .     S
C240   H263    1.111   .     S
C240   H262    1.108   .     S
C241   N274    1.425   .     S
C241   C888    1.398   1_554 S
C241   C899    1.431   1_554 S
C242   C243    1.426   .     A
C242   C898    1.431   .     S
C242   C901    1.427   .     S
C243   C247    1.422   .     A
C244   C899    1.427   1_554 S
C244   C902    1.421   1_554 S
C245   C246    1.392   .     A
C245   C901    1.421   .     S
C245   C891    1.401   .     S
C246   C247    1.401   .     A
C246   H265    1.082   .     S
C247   N275    1.436   .     S
H250   C383    1.111   1_455 S
H251   C383    1.111   1_455 S
H252   N273    1.030   .     S
H253   C457    1.110   .     S
H256   N274    1.032   .     S
H261   N275    1.032   .     S
H270   C371    1.088   1_455 S
H271   N272    1.032   .     S
N272   C299    1.432   .     S
N273   C447    1.429   .     S
N273   C457    1.447   .     S
O276   Zn290   1.932   .     S
O276   Zn291   1.948   .     S
O276   Zn289   1.960   .     S
O276   Zn292   1.936   .     S
O277   Zn290   1.926   .     S
O278   Zn292   1.928   .     S
O279   Zn291   1.917   .     S
O280   Zn289   1.916   .     S
O281   Zn289   1.934   .     S
O282   Zn292   1.944   .     S
O283   Zn290   1.937   .     S
O284   Zn291   1.941   .     S
O285   Zn292   1.935   .     S
O286   Zn289   1.935   .     S
O287   Zn290   1.949   .     S
O288   Zn291   1.938   .     S
C293   O358    1.267   .     A
C293   O356    1.261   .     A
C293   C299    1.436   .     S
C294   H340    1.076   .     S
C294   C317    1.413   .     A
C294   C308    1.393   .     A
C295   C307    1.387   .     A
C295   H321    1.084   .     S
C295   C308    1.397   .     A
C296   O357    1.291   .     A
C296   C298    1.457   .     S
C296   O359    1.274   .     A
C297   C309    1.400   .     A
C297   C306    1.476   .     S
C297   C316    1.419   .     A
C298   C372    1.349   .     S
C298   H416    1.088   .     S
C300   C303    1.456   .     S
C300   C520    1.344   .     S
C300   H551    1.088   .     S
C301   C302    1.439   .     S
C302   O360    1.266   .     A
C302   O354    1.276   .     A
C303   O361    1.280   .     A
C303   O355    1.269   .     A
C304   C309    1.385   .     A
C304   H342    1.083   .     S
C304   C971    1.398   .     S
C305   O350    1.272   .     A
C305   C308    1.456   .     S
C305   O352    1.284   .     A
C306   O351    1.282   .     A
C306   O353    1.291   .     A
C307   H339    1.084   .     S
C307   C975    1.401   1_554 S
C309   H341    1.084   .     S
C310   H322    1.110   .     S
C310   N345    1.448   .     S
C310   H396    1.111   .     S
C310   H397    1.111   .     S
C311   H327    1.111   .     S
C311   H328    1.110   .     S
C312   H330    1.110   .     S
C312   N347    1.447   .     S
C312   H333    1.111   .     S
C312   H331    1.111   .     S
C313   N348    1.446   .     S
C313   H337    1.111   .     S
C313   H336    1.111   .     S
C313   H335    1.108   .     S
C314   N347    1.425   .     S
C314   C961    1.398   1_554 S
C314   C972    1.431   1_554 S
C315   C316    1.426   .     A
C315   C971    1.431   .     S
C315   C974    1.427   .     S
C316   C320    1.422   .     A
C317   C972    1.427   1_554 S
C317   C975    1.421   1_554 S
C318   C319    1.392   .     A
C318   C974    1.421   .     S
C318   C964    1.401   .     S
C319   C320    1.401   .     A
C319   H338    1.082   .     S
C320   N348    1.436   .     S
H325   N346    1.030   .     S
H326   C530    1.110   .     S
H329   N347    1.032   .     S
H334   N348    1.032   .     S
H344   N345    1.032   .     S
N345   C372    1.432   .     S
N346   C520    1.429   .     S
N346   C530    1.447   .     S
O349   Zn363   1.932   .     S
O349   Zn364   1.948   .     S
O349   Zn362   1.960   .     S
O349   Zn365   1.936   .     S
O350   Zn363   1.926   .     S
O351   Zn365   1.928   .     S
O352   Zn364   1.917   .     S
O353   Zn362   1.916   .     S
O354   Zn362   1.934   .     S
O355   Zn365   1.944   .     S
O356   Zn363   1.937   .     S
O357   Zn364   1.941   .     S
O358   Zn365   1.935   .     S
O359   Zn362   1.935   .     S
O360   Zn363   1.949   .     S
O361   Zn364   1.938   .     S
C366   O431    1.267   .     A
C366   O429    1.261   .     A
C366   C372    1.436   .     S
C367   H413    1.076   .     S
C367   C390    1.413   .     A
C367   C381    1.393   .     A
C368   C380    1.387   .     A
C368   H394    1.084   .     S
C368   C381    1.397   .     A
C369   O430    1.291   .     A
C369   C371    1.457   .     S
C369   O432    1.274   .     A
C370   C382    1.400   .     A
C370   C379    1.476   .     S
C370   C389    1.419   .     A
C371   C226    1.349   1_655 S
C371   H270    1.088   1_655 S
C373   C376    1.456   .     S
C373   C593    1.344   .     S
C373   H624    1.088   .     S
C374   C375    1.439   .     S
C375   O433    1.266   .     A
C375   O427    1.276   .     A
C376   O434    1.280   .     A
C376   O428    1.269   .     A
C377   C382    1.385   .     A
C377   H415    1.083   .     S
C377   C1044   1.398   .     S
C378   O423    1.272   .     A
C378   C381    1.456   .     S
C378   O425    1.284   .     A
C379   O424    1.282   .     A
C379   O426    1.291   .     A
C380   H412    1.084   .     S
C380   C1048   1.401   1_554 S
C382   H414    1.084   .     S
C383   H395    1.110   .     S
C383   N418    1.448   .     S
C383   H250    1.111   1_655 S
C383   H251    1.111   1_655 S
C384   H400    1.111   .     S
C384   H401    1.110   .     S
C385   H403    1.110   .     S
C385   N420    1.447   .     S
C385   H406    1.111   .     S
C385   H404    1.111   .     S
C386   N421    1.446   .     S
C386   H410    1.111   .     S
C386   H409    1.111   .     S
C386   H408    1.108   .     S
C387   N420    1.425   .     S
C387   C1034   1.398   1_554 S
C387   C1045   1.431   1_554 S
C388   C389    1.426   .     A
C388   C1044   1.431   .     S
C388   C1047   1.427   .     S
C389   C393    1.422   .     A
C390   C1045   1.427   1_554 S
C390   C1048   1.421   1_554 S
C391   C392    1.392   .     A
C391   C1047   1.421   .     S
C391   C1037   1.401   .     S
C392   C393    1.401   .     A
C392   H411    1.082   .     S
C393   N421    1.436   .     S
H398   N419    1.030   .     S
H399   C603    1.110   .     S
H402   N420    1.032   .     S
H407   N421    1.032   .     S
H417   N418    1.032   .     S
N418   C226    1.432   1_655 S
N419   C593    1.429   .     S
N419   C603    1.447   .     S
O422   Zn436   1.932   .     S
O422   Zn437   1.948   .     S
O422   Zn435   1.960   .     S
O422   Zn438   1.936   .     S
O423   Zn436   1.926   .     S
O424   Zn438   1.928   .     S
O425   Zn437   1.917   .     S
O426   Zn435   1.916   .     S
O427   Zn435   1.934   .     S
O428   Zn438   1.944   .     S
O429   Zn436   1.937   .     S
O430   Zn437   1.941   .     S
O431   Zn438   1.935   .     S
O432   Zn435   1.935   .     S
O433   Zn436   1.949   .     S
O434   Zn437   1.938   .     S
C439   O504    1.267   .     A
C439   O502    1.261   .     A
C439   C445    1.436   .     S
C440   H486    1.076   .     S
C440   C463    1.413   .     A
C440   C454    1.393   .     A
C441   C453    1.387   .     A
C441   H467    1.084   .     S
C441   C454    1.397   .     A
C442   O503    1.291   .     A
C442   C444    1.457   .     S
C442   O505    1.274   .     A
C443   C455    1.400   .     A
C443   C452    1.476   .     S
C443   C462    1.419   .     A
C444   C518    1.349   .     S
C444   H562    1.088   .     S
C445   C590    1.349   1_455 S
C445   N637    1.432   1_455 S
C446   C449    1.456   .     S
C446   C9      1.344   1_565 S
C446   H40     1.088   1_565 S
C447   C448    1.439   .     S
C448   O506    1.266   .     A
C448   O500    1.276   .     A
C449   O507    1.280   .     A
C449   O501    1.269   .     A
C450   C455    1.385   .     A
C450   H488    1.083   .     S
C450   C1117   1.398   .     S
C451   O496    1.272   .     A
C451   C454    1.456   .     S
C451   O498    1.284   .     A
C452   O497    1.282   .     A
C452   O499    1.291   .     A
C453   H485    1.084   .     S
C453   C1121   1.401   1_554 S
C455   H487    1.084   .     S
C456   H468    1.110   .     S
C456   N491    1.448   .     S
C456   H542    1.111   .     S
C456   H543    1.111   .     S
C457   H473    1.111   .     S
C457   H474    1.110   .     S
C458   H476    1.110   .     S
C458   N493    1.447   .     S
C458   H479    1.111   .     S
C458   H477    1.111   .     S
C459   N494    1.446   .     S
C459   H483    1.111   .     S
C459   H482    1.111   .     S
C459   H481    1.108   .     S
C460   N493    1.425   .     S
C460   C1107   1.398   1_554 S
C460   C1118   1.431   1_554 S
C461   C462    1.426   .     A
C461   C1117   1.431   .     S
C461   C1120   1.427   .     S
C462   C466    1.422   .     A
C463   C1118   1.427   1_554 S
C463   C1121   1.421   1_554 S
C464   C465    1.392   .     A
C464   C1120   1.421   .     S
C464   C1110   1.401   .     S
C465   C466    1.401   .     A
C465   H484    1.082   .     S
C466   N494    1.436   .     S
H469   C602    1.111   1_455 S
H470   C602    1.111   1_455 S
H471   N492    1.030   .     S
H472   C19     1.110   1_565 S
H475   N493    1.032   .     S
H480   N494    1.032   .     S
H489   C590    1.088   1_455 S
H490   N491    1.032   .     S
N491   C518    1.432   .     S
N492   C9      1.429   1_565 S
N492   C19     1.447   1_565 S
O495   Zn509   1.932   .     S
O495   Zn510   1.948   .     S
O495   Zn508   1.960   .     S
O495   Zn511   1.936   .     S
O496   Zn509   1.926   .     S
O497   Zn511   1.928   .     S
O498   Zn510   1.917   .     S
O499   Zn508   1.916   .     S
O500   Zn508   1.934   .     S
O501   Zn511   1.944   .     S
O502   Zn509   1.937   .     S
O503   Zn510   1.941   .     S
O504   Zn511   1.935   .     S
O505   Zn508   1.935   .     S
O506   Zn509   1.949   .     S
O507   Zn510   1.938   .     S
C512   O577    1.267   .     A
C512   O575    1.261   .     A
C512   C518    1.436   .     S
C513   H559    1.076   .     S
C513   C536    1.413   .     A
C513   C527    1.393   .     A
C514   C526    1.387   .     A
C514   H540    1.084   .     S
C514   C527    1.397   .     A
C515   O576    1.291   .     A
C515   C517    1.457   .     S
C515   O578    1.274   .     A
C516   C528    1.400   .     A
C516   C525    1.476   .     S
C516   C535    1.419   .     A
C517   C591    1.349   .     S
C517   H635    1.088   .     S
C519   C522    1.456   .     S
C519   C82     1.344   1_565 S
C519   H113    1.088   1_565 S
C520   C521    1.439   .     S
C521   O579    1.266   .     A
C521   O573    1.276   .     A
C522   O580    1.280   .     A
C522   O574    1.269   .     A
C523   C528    1.385   .     A
C523   H561    1.083   .     S
C523   C1190   1.398   .     S
C524   O569    1.272   .     A
C524   C527    1.456   .     S
C524   O571    1.284   .     A
C525   O570    1.282   .     A
C525   O572    1.291   .     A
C526   H558    1.084   .     S
C526   C1194   1.401   1_554 S
C528   H560    1.084   .     S
C529   H541    1.110   .     S
C529   N564    1.448   .     S
C529   H615    1.111   .     S
C529   H616    1.111   .     S
C530   H546    1.111   .     S
C530   H547    1.110   .     S
C531   H549    1.110   .     S
C531   N566    1.447   .     S
C531   H552    1.111   .     S
C531   H550    1.111   .     S
C532   N567    1.446   .     S
C532   H556    1.111   .     S
C532   H555    1.111   .     S
C532   H554    1.108   .     S
C533   N566    1.425   .     S
C533   C1180   1.398   1_554 S
C533   C1191   1.431   1_554 S
C534   C535    1.426   .     A
C534   C1190   1.431   .     S
C534   C1193   1.427   .     S
C535   C539    1.422   .     A
C536   C1191   1.427   1_554 S
C536   C1194   1.421   1_554 S
C537   C538    1.392   .     A
C537   C1193   1.421   .     S
C537   C1183   1.401   .     S
C538   C539    1.401   .     A
C538   H557    1.082   .     S
C539   N567    1.436   .     S
H544   N565    1.030   .     S
H545   C92     1.110   1_565 S
H548   N566    1.032   .     S
H553   N567    1.032   .     S
H563   N564    1.032   .     S
N564   C591    1.432   .     S
N565   C82     1.429   1_565 S
N565   C92     1.447   1_565 S
O568   Zn582   1.932   .     S
O568   Zn583   1.948   .     S
O568   Zn581   1.960   .     S
O568   Zn584   1.936   .     S
O569   Zn582   1.926   .     S
O570   Zn584   1.928   .     S
O571   Zn583   1.917   .     S
O572   Zn581   1.916   .     S
O573   Zn581   1.934   .     S
O574   Zn584   1.944   .     S
O575   Zn582   1.937   .     S
O576   Zn583   1.941   .     S
O577   Zn584   1.935   .     S
O578   Zn581   1.935   .     S
O579   Zn582   1.949   .     S
O580   Zn583   1.938   .     S
C585   O650    1.267   .     A
C585   O648    1.261   .     A
C585   C591    1.436   .     S
C586   H632    1.076   .     S
C586   C609    1.413   .     A
C586   C600    1.393   .     A
C587   C599    1.387   .     A
C587   H613    1.084   .     S
C587   C600    1.397   .     A
C588   O649    1.291   .     A
C588   C590    1.457   .     S
C588   O651    1.274   .     A
C589   C601    1.400   .     A
C589   C598    1.476   .     S
C589   C608    1.419   .     A
C590   C445    1.349   1_655 S
C590   H489    1.088   1_655 S
C592   C595    1.456   .     S
C592   C155    1.344   1_565 S
C592   H186    1.088   1_565 S
C593   C594    1.439   .     S
C594   O652    1.266   .     A
C594   O646    1.276   .     A
C595   O653    1.280   .     A
C595   O647    1.269   .     A
C596   C601    1.385   .     A
C596   H634    1.083   .     S
C596   C1263   1.398   .     S
C597   O642    1.272   .     A
C597   C600    1.456   .     S
C597   O644    1.284   .     A
C598   O643    1.282   .     A
C598   O645    1.291   .     A
C599   H631    1.084   .     S
C599   C1267   1.401   1_554 S
C601   H633    1.084   .     S
C602   H614    1.110   .     S
C602   N637    1.448   .     S
C602   H469    1.111   1_655 S
C602   H470    1.111   1_655 S
C603   H619    1.111   .     S
C603   H620    1.110   .     S
C604   H622    1.110   .     S
C604   N639    1.447   .     S
C604   H625    1.111   .     S
C604   H623    1.111   .     S
C605   N640    1.446   .     S
C605   H629    1.111   .     S
C605   H628    1.111   .     S
C605   H627    1.108   .     S
C606   N639    1.425   .     S
C606   C1253   1.398   1_554 S
C606   C1264   1.431   1_554 S
C607   C608    1.426   .     A
C607   C1263   1.431   .     S
C607   C1266   1.427   .     S
C608   C612    1.422   .     A
C609   C1264   1.427   1_554 S
C609   C1267   1.421   1_554 S
C610   C611    1.392   .     A
C610   C1266   1.421   .     S
C610   C1256   1.401   .     S
C611   C612    1.401   .     A
C611   H630    1.082   .     S
C612   N640    1.436   .     S
H617   N638    1.030   .     S
H618   C165    1.110   1_565 S
H621   N639    1.032   .     S
H626   N640    1.032   .     S
H636   N637    1.032   .     S
N637   C445    1.432   1_655 S
N638   C155    1.429   1_565 S
N638   C165    1.447   1_565 S
O641   Zn655   1.932   .     S
O641   Zn656   1.948   .     S
O641   Zn654   1.960   .     S
O641   Zn657   1.936   .     S
O642   Zn655   1.926   .     S
O643   Zn657   1.928   .     S
O644   Zn656   1.917   .     S
O645   Zn654   1.916   .     S
O646   Zn654   1.934   .     S
O647   Zn657   1.944   .     S
O648   Zn655   1.937   .     S
O649   Zn656   1.941   .     S
O650   Zn657   1.935   .     S
O651   Zn654   1.935   .     S
O652   Zn655   1.949   .     S
O653   Zn656   1.938   .     S
C658   O723    1.267   .     A
C658   O721    1.261   .     A
C658   C664    1.436   .     S
C659   H705    1.076   .     S
C659   C682    1.413   .     A
C659   C673    1.393   .     A
C660   C672    1.387   .     A
C660   H686    1.084   .     S
C660   C673    1.397   .     A
C661   O722    1.291   .     A
C661   C663    1.457   .     S
C661   O724    1.274   .     A
C662   C674    1.400   .     A
C662   C671    1.476   .     S
C662   C681    1.419   .     A
C663   C737    1.349   .     S
C663   H781    1.088   .     S
C664   C809    1.349   1_455 S
C664   N856    1.432   1_455 S
C665   C668    1.456   .     S
C665   C885    1.344   .     S
C665   H916    1.088   .     S
C666   C667    1.439   .     S
C666   C1103   1.344   1_545 S
C666   N1149   1.429   1_545 S
C667   O725    1.266   .     A
C667   O719    1.276   .     A
C668   O726    1.280   .     A
C668   O720    1.269   .     A
C669   C674    1.385   .     A
C669   H707    1.083   .     S
C669   C22     1.398   1_556 S
C670   O715    1.272   .     A
C670   C673    1.456   .     S
C670   O717    1.284   .     A
C671   O716    1.282   .     A
C671   O718    1.291   .     A
C672   H704    1.084   .     S
C674   H706    1.084   .     S
C675   H687    1.110   .     S
C675   N710    1.448   .     S
C675   H761    1.111   .     S
C675   H762    1.111   .     S
C676   H692    1.111   .     S
C676   H693    1.110   .     S
C676   H1129   1.110   1_545 S
C676   N1149   1.447   1_545 S
C677   H695    1.110   .     S
C677   N712    1.447   .     S
C677   H698    1.111   .     S
C677   H696    1.111   .     S
C678   N713    1.446   .     S
C678   H702    1.111   .     S
C678   H701    1.111   .     S
C678   H700    1.108   .     S
C679   N712    1.425   .     S
C680   C681    1.426   .     A
C680   C22     1.431   1_556 S
C680   C25     1.427   1_556 S
C681   C685    1.422   .     A
C683   C684    1.392   .     A
C683   C25     1.421   1_556 S
C683   C15     1.401   1_556 S
C684   C685    1.401   .     A
C684   H703    1.082   .     S
C685   N713    1.436   .     S
H688   C821    1.111   1_455 S
H689   C821    1.111   1_455 S
H690   N711    1.030   .     S
H691   C895    1.110   .     S
H694   N712    1.032   .     S
H697   C1103   1.088   1_545 S
H699   N713    1.032   .     S
H708   C809    1.088   1_455 S
H709   N710    1.032   .     S
N710   C737    1.432   .     S
N711   C885    1.429   .     S
N711   C895    1.447   .     S
O714   Zn728   1.932   .     S
O714   Zn729   1.948   .     S
O714   Zn727   1.960   .     S
O714   Zn730   1.936   .     S
O715   Zn728   1.926   .     S
O716   Zn730   1.928   .     S
O717   Zn729   1.917   .     S
O718   Zn727   1.916   .     S
O719   Zn727   1.934   .     S
O720   Zn730   1.944   .     S
O721   Zn728   1.937   .     S
O722   Zn729   1.941   .     S
O723   Zn730   1.935   .     S
O724   Zn727   1.935   .     S
O725   Zn728   1.949   .     S
O726   Zn729   1.938   .     S
C731   O796    1.267   .     A
C731   O794    1.261   .     A
C731   C737    1.436   .     S
C732   H778    1.076   .     S
C732   C755    1.413   .     A
C732   C746    1.393   .     A
C733   C745    1.387   .     A
C733   H759    1.084   .     S
C733   C746    1.397   .     A
C734   O795    1.291   .     A
C734   C736    1.457   .     S
C734   O797    1.274   .     A
C735   C747    1.400   .     A
C735   C744    1.476   .     S
C735   C754    1.419   .     A
C736   C810    1.349   .     S
C736   H854    1.088   .     S
C738   C741    1.456   .     S
C738   C958    1.344   .     S
C738   H989    1.088   .     S
C739   C740    1.439   .     S
C739   C1176   1.344   1_545 S
C739   N1222   1.429   1_545 S
C740   O798    1.266   .     A
C740   O792    1.276   .     A
C741   O799    1.280   .     A
C741   O793    1.269   .     A
C742   C747    1.385   .     A
C742   H780    1.083   .     S
C742   C95     1.398   1_556 S
C743   O788    1.272   .     A
C743   C746    1.456   .     S
C743   O790    1.284   .     A
C744   O789    1.282   .     A
C744   O791    1.291   .     A
C745   H777    1.084   .     S
C747   H779    1.084   .     S
C748   H760    1.110   .     S
C748   N783    1.448   .     S
C748   H834    1.111   .     S
C748   H835    1.111   .     S
C749   H765    1.111   .     S
C749   H766    1.110   .     S
C749   H1202   1.110   1_545 S
C749   N1222   1.447   1_545 S
C750   H768    1.110   .     S
C750   N785    1.447   .     S
C750   H771    1.111   .     S
C750   H769    1.111   .     S
C751   N786    1.446   .     S
C751   H775    1.111   .     S
C751   H774    1.111   .     S
C751   H773    1.108   .     S
C752   N785    1.425   .     S
C753   C754    1.426   .     A
C753   C95     1.431   1_556 S
C753   C98     1.427   1_556 S
C754   C758    1.422   .     A
C756   C757    1.392   .     A
C756   C98     1.421   1_556 S
C756   C88     1.401   1_556 S
C757   C758    1.401   .     A
C757   H776    1.082   .     S
C758   N786    1.436   .     S
H763   N784    1.030   .     S
H764   C968    1.110   .     S
H767   N785    1.032   .     S
H770   C1176   1.088   1_545 S
H772   N786    1.032   .     S
H782   N783    1.032   .     S
N783   C810    1.432   .     S
N784   C958    1.429   .     S
N784   C968    1.447   .     S
O787   Zn801   1.932   .     S
O787   Zn802   1.948   .     S
O787   Zn800   1.960   .     S
O787   Zn803   1.936   .     S
O788   Zn801   1.926   .     S
O789   Zn803   1.928   .     S
O790   Zn802   1.917   .     S
O791   Zn800   1.916   .     S
O792   Zn800   1.934   .     S
O793   Zn803   1.944   .     S
O794   Zn801   1.937   .     S
O795   Zn802   1.941   .     S
O796   Zn803   1.935   .     S
O797   Zn800   1.935   .     S
O798   Zn801   1.949   .     S
O799   Zn802   1.938   .     S
C804   O869    1.267   .     A
C804   O867    1.261   .     A
C804   C810    1.436   .     S
C805   H851    1.076   .     S
C805   C828    1.413   .     A
C805   C819    1.393   .     A
C806   C818    1.387   .     A
C806   H832    1.084   .     S
C806   C819    1.397   .     A
C807   O868    1.291   .     A
C807   C809    1.457   .     S
C807   O870    1.274   .     A
C808   C820    1.400   .     A
C808   C817    1.476   .     S
C808   C827    1.419   .     A
C809   C664    1.349   1_655 S
C809   H708    1.088   1_655 S
C811   C814    1.456   .     S
C811   C1031   1.344   .     S
C811   H1062   1.088   .     S
C812   C813    1.439   .     S
C812   C1249   1.344   1_545 S
C812   N1295   1.429   1_545 S
C813   O871    1.266   .     A
C813   O865    1.276   .     A
C814   O872    1.280   .     A
C814   O866    1.269   .     A
C815   C820    1.385   .     A
C815   H853    1.083   .     S
C815   C168    1.398   1_556 S
C816   O861    1.272   .     A
C816   C819    1.456   .     S
C816   O863    1.284   .     A
C817   O862    1.282   .     A
C817   O864    1.291   .     A
C818   H850    1.084   .     S
C820   H852    1.084   .     S
C821   H833    1.110   .     S
C821   N856    1.448   .     S
C821   H688    1.111   1_655 S
C821   H689    1.111   1_655 S
C822   H838    1.111   .     S
C822   H839    1.110   .     S
C822   H1275   1.110   1_545 S
C822   N1295   1.447   1_545 S
C823   H841    1.110   .     S
C823   N858    1.447   .     S
C823   H844    1.111   .     S
C823   H842    1.111   .     S
C824   N859    1.446   .     S
C824   H848    1.111   .     S
C824   H847    1.111   .     S
C824   H846    1.108   .     S
C825   N858    1.425   .     S
C826   C827    1.426   .     A
C826   C168    1.431   1_556 S
C826   C171    1.427   1_556 S
C827   C831    1.422   .     A
C829   C830    1.392   .     A
C829   C171    1.421   1_556 S
C829   C161    1.401   1_556 S
C830   C831    1.401   .     A
C830   H849    1.082   .     S
C831   N859    1.436   .     S
H836   N857    1.030   .     S
H837   C1041   1.110   .     S
H840   N858    1.032   .     S
H843   C1249   1.088   1_545 S
H845   N859    1.032   .     S
H855   N856    1.032   .     S
N856   C664    1.432   1_655 S
N857   C1031   1.429   .     S
N857   C1041   1.447   .     S
O860   Zn874   1.932   .     S
O860   Zn875   1.948   .     S
O860   Zn873   1.960   .     S
O860   Zn876   1.936   .     S
O861   Zn874   1.926   .     S
O862   Zn876   1.928   .     S
O863   Zn875   1.917   .     S
O864   Zn873   1.916   .     S
O865   Zn873   1.934   .     S
O866   Zn876   1.944   .     S
O867   Zn874   1.937   .     S
O868   Zn875   1.941   .     S
O869   Zn876   1.935   .     S
O870   Zn873   1.935   .     S
O871   Zn874   1.949   .     S
O872   Zn875   1.938   .     S
C877   O942    1.267   .     A
C877   O940    1.261   .     A
C877   C883    1.436   .     S
C878   H924    1.076   .     S
C878   C901    1.413   .     A
C878   C892    1.393   .     A
C879   C891    1.387   .     A
C879   H905    1.084   .     S
C879   C892    1.397   .     A
C880   O941    1.291   .     A
C880   C882    1.457   .     S
C880   O943    1.274   .     A
C881   C893    1.400   .     A
C881   C890    1.476   .     S
C881   C900    1.419   .     A
C882   C956    1.349   .     S
C882   H1000   1.088   .     S
C883   C1028   1.349   1_455 S
C883   N1075   1.432   1_455 S
C884   C887    1.456   .     S
C884   C1104   1.344   .     S
C884   H1135   1.088   .     S
C885   C886    1.439   .     S
C886   O944    1.266   .     A
C886   O938    1.276   .     A
C887   O945    1.280   .     A
C887   O939    1.269   .     A
C888   C893    1.385   .     A
C888   H926    1.083   .     S
C888   C241    1.398   1_556 S
C889   O934    1.272   .     A
C889   C892    1.456   .     S
C889   O936    1.284   .     A
C890   O935    1.282   .     A
C890   O937    1.291   .     A
C891   H923    1.084   .     S
C893   H925    1.084   .     S
C894   H906    1.110   .     S
C894   N929    1.448   .     S
C894   H980    1.111   .     S
C894   H981    1.111   .     S
C895   H911    1.111   .     S
C895   H912    1.110   .     S
C896   H914    1.110   .     S
C896   N931    1.447   .     S
C896   H917    1.111   .     S
C896   H915    1.111   .     S
C897   N932    1.446   .     S
C897   H921    1.111   .     S
C897   H920    1.111   .     S
C897   H919    1.108   .     S
C898   N931    1.425   .     S
C899   C900    1.426   .     A
C899   C241    1.431   1_556 S
C899   C244    1.427   1_556 S
C900   C904    1.422   .     A
C902   C903    1.392   .     A
C902   C244    1.421   1_556 S
C902   C234    1.401   1_556 S
C903   C904    1.401   .     A
C903   H922    1.082   .     S
C904   N932    1.436   .     S
H907   C1040   1.111   1_455 S
H908   C1040   1.111   1_455 S
H909   N930    1.030   .     S
H910   C1114   1.110   .     S
H913   N931    1.032   .     S
H918   N932    1.032   .     S
H927   C1028   1.088   1_455 S
H928   N929    1.032   .     S
N929   C956    1.432   .     S
N930   C1104   1.429   .     S
N930   C1114   1.447   .     S
O933   Zn947   1.932   .     S
O933   Zn948   1.948   .     S
O933   Zn946   1.960   .     S
O933   Zn949   1.936   .     S
O934   Zn947   1.926   .     S
O935   Zn949   1.928   .     S
O936   Zn948   1.917   .     S
O937   Zn946   1.916   .     S
O938   Zn946   1.934   .     S
O939   Zn949   1.944   .     S
O940   Zn947   1.937   .     S
O941   Zn948   1.941   .     S
O942   Zn949   1.935   .     S
O943   Zn946   1.935   .     S
O944   Zn947   1.949   .     S
O945   Zn948   1.938   .     S
C950   O1015   1.267   .     A
C950   O1013   1.261   .     A
C950   C956    1.436   .     S
C951   H997    1.076   .     S
C951   C974    1.413   .     A
C951   C965    1.393   .     A
C952   C964    1.387   .     A
C952   H978    1.084   .     S
C952   C965    1.397   .     A
C953   O1014   1.291   .     A
C953   C955    1.457   .     S
C953   O1016   1.274   .     A
C954   C966    1.400   .     A
C954   C963    1.476   .     S
C954   C973    1.419   .     A
C955   C1029   1.349   .     S
C955   H1073   1.088   .     S
C957   C960    1.456   .     S
C957   C1177   1.344   .     S
C957   H1208   1.088   .     S
C958   C959    1.439   .     S
C959   O1017   1.266   .     A
C959   O1011   1.276   .     A
C960   O1018   1.280   .     A
C960   O1012   1.269   .     A
C961   C966    1.385   .     A
C961   H999    1.083   .     S
C961   C314    1.398   1_556 S
C962   O1007   1.272   .     A
C962   C965    1.456   .     S
C962   O1009   1.284   .     A
C963   O1008   1.282   .     A
C963   O1010   1.291   .     A
C964   H996    1.084   .     S
C966   H998    1.084   .     S
C967   H979    1.110   .     S
C967   N1002   1.448   .     S
C967   H1053   1.111   .     S
C967   H1054   1.111   .     S
C968   H984    1.111   .     S
C968   H985    1.110   .     S
C969   H987    1.110   .     S
C969   N1004   1.447   .     S
C969   H990    1.111   .     S
C969   H988    1.111   .     S
C970   N1005   1.446   .     S
C970   H994    1.111   .     S
C970   H993    1.111   .     S
C970   H992    1.108   .     S
C971   N1004   1.425   .     S
C972   C973    1.426   .     A
C972   C314    1.431   1_556 S
C972   C317    1.427   1_556 S
C973   C977    1.422   .     A
C975   C976    1.392   .     A
C975   C317    1.421   1_556 S
C975   C307    1.401   1_556 S
C976   C977    1.401   .     A
C976   H995    1.082   .     S
C977   N1005   1.436   .     S
H982   N1003   1.030   .     S
H983   C1187   1.110   .     S
H986   N1004   1.032   .     S
H991   N1005   1.032   .     S
H1001  N1002   1.032   .     S
N1002  C1029   1.432   .     S
N1003  C1177   1.429   .     S
N1003  C1187   1.447   .     S
O1006  Zn1020  1.932   .     S
O1006  Zn1021  1.948   .     S
O1006  Zn1019  1.960   .     S
O1006  Zn1022  1.936   .     S
O1007  Zn1020  1.926   .     S
O1008  Zn1022  1.928   .     S
O1009  Zn1021  1.917   .     S
O1010  Zn1019  1.916   .     S
O1011  Zn1019  1.934   .     S
O1012  Zn1022  1.944   .     S
O1013  Zn1020  1.937   .     S
O1014  Zn1021  1.941   .     S
O1015  Zn1022  1.935   .     S
O1016  Zn1019  1.935   .     S
O1017  Zn1020  1.949   .     S
O1018  Zn1021  1.938   .     S
C1023  O1088   1.267   .     A
C1023  O1086   1.261   .     A
C1023  C1029   1.436   .     S
C1024  H1070   1.076   .     S
C1024  C1047   1.413   .     A
C1024  C1038   1.393   .     A
C1025  C1037   1.387   .     A
C1025  H1051   1.084   .     S
C1025  C1038   1.397   .     A
C1026  O1087   1.291   .     A
C1026  C1028   1.457   .     S
C1026  O1089   1.274   .     A
C1027  C1039   1.400   .     A
C1027  C1036   1.476   .     S
C1027  C1046   1.419   .     A
C1028  C883    1.349   1_655 S
C1028  H927    1.088   1_655 S
C1030  C1033   1.456   .     S
C1030  C1250   1.344   .     S
C1030  H1281   1.088   .     S
C1031  C1032   1.439   .     S
C1032  O1090   1.266   .     A
C1032  O1084   1.276   .     A
C1033  O1091   1.280   .     A
C1033  O1085   1.269   .     A
C1034  C1039   1.385   .     A
C1034  H1072   1.083   .     S
C1034  C387    1.398   1_556 S
C1035  O1080   1.272   .     A
C1035  C1038   1.456   .     S
C1035  O1082   1.284   .     A
C1036  O1081   1.282   .     A
C1036  O1083   1.291   .     A
C1037  H1069   1.084   .     S
C1039  H1071   1.084   .     S
C1040  H1052   1.110   .     S
C1040  N1075   1.448   .     S
C1040  H907    1.111   1_655 S
C1040  H908    1.111   1_655 S
C1041  H1057   1.111   .     S
C1041  H1058   1.110   .     S
C1042  H1060   1.110   .     S
C1042  N1077   1.447   .     S
C1042  H1063   1.111   .     S
C1042  H1061   1.111   .     S
C1043  N1078   1.446   .     S
C1043  H1067   1.111   .     S
C1043  H1066   1.111   .     S
C1043  H1065   1.108   .     S
C1044  N1077   1.425   .     S
C1045  C1046   1.426   .     A
C1045  C387    1.431   1_556 S
C1045  C390    1.427   1_556 S
C1046  C1050   1.422   .     A
C1048  C1049   1.392   .     A
C1048  C390    1.421   1_556 S
C1048  C380    1.401   1_556 S
C1049  C1050   1.401   .     A
C1049  H1068   1.082   .     S
C1050  N1078   1.436   .     S
H1055  N1076   1.030   .     S
H1056  C1260   1.110   .     S
H1059  N1077   1.032   .     S
H1064  N1078   1.032   .     S
H1074  N1075   1.032   .     S
N1075  C883    1.432   1_655 S
N1076  C1250   1.429   .     S
N1076  C1260   1.447   .     S
O1079  Zn1093  1.932   .     S
O1079  Zn1094  1.948   .     S
O1079  Zn1092  1.960   .     S
O1079  Zn1095  1.936   .     S
O1080  Zn1093  1.926   .     S
O1081  Zn1095  1.928   .     S
O1082  Zn1094  1.917   .     S
O1083  Zn1092  1.916   .     S
O1084  Zn1092  1.934   .     S
O1085  Zn1095  1.944   .     S
O1086  Zn1093  1.937   .     S
O1087  Zn1094  1.941   .     S
O1088  Zn1095  1.935   .     S
O1089  Zn1092  1.935   .     S
O1090  Zn1093  1.949   .     S
O1091  Zn1094  1.938   .     S
C1096  O1161   1.267   .     A
C1096  O1159   1.261   .     A
C1096  C1102   1.436   .     S
C1097  H1143   1.076   .     S
C1097  C1120   1.413   .     A
C1097  C1111   1.393   .     A
C1098  C1110   1.387   .     A
C1098  H1124   1.084   .     S
C1098  C1111   1.397   .     A
C1099  O1160   1.291   .     A
C1099  C1101   1.457   .     S
C1099  O1162   1.274   .     A
C1100  C1112   1.400   .     A
C1100  C1109   1.476   .     S
C1100  C1119   1.419   .     A
C1101  C1175   1.349   .     S
C1101  H1219   1.088   .     S
C1102  C1247   1.349   1_455 S
C1102  N1294   1.432   1_455 S
C1103  C1106   1.456   .     S
C1103  C666    1.344   1_565 S
C1103  H697    1.088   1_565 S
C1104  C1105   1.439   .     S
C1105  O1163   1.266   .     A
C1105  O1157   1.276   .     A
C1106  O1164   1.280   .     A
C1106  O1158   1.269   .     A
C1107  C1112   1.385   .     A
C1107  H1145   1.083   .     S
C1107  C460    1.398   1_556 S
C1108  O1153   1.272   .     A
C1108  C1111   1.456   .     S
C1108  O1155   1.284   .     A
C1109  O1154   1.282   .     A
C1109  O1156   1.291   .     A
C1110  H1142   1.084   .     S
C1112  H1144   1.084   .     S
C1113  H1125   1.110   .     S
C1113  N1148   1.448   .     S
C1113  H1199   1.111   .     S
C1113  H1200   1.111   .     S
C1114  H1130   1.111   .     S
C1114  H1131   1.110   .     S
C1115  H1133   1.110   .     S
C1115  N1150   1.447   .     S
C1115  H1136   1.111   .     S
C1115  H1134   1.111   .     S
C1116  N1151   1.446   .     S
C1116  H1140   1.111   .     S
C1116  H1139   1.111   .     S
C1116  H1138   1.108   .     S
C1117  N1150   1.425   .     S
C1118  C1119   1.426   .     A
C1118  C460    1.431   1_556 S
C1118  C463    1.427   1_556 S
C1119  C1123   1.422   .     A
C1121  C1122   1.392   .     A
C1121  C463    1.421   1_556 S
C1121  C453    1.401   1_556 S
C1122  C1123   1.401   .     A
C1122  H1141   1.082   .     S
C1123  N1151   1.436   .     S
H1126  C1259   1.111   1_455 S
H1127  C1259   1.111   1_455 S
H1128  N1149   1.030   .     S
H1129  C676    1.110   1_565 S
H1132  N1150   1.032   .     S
H1137  N1151   1.032   .     S
H1146  C1247   1.088   1_455 S
H1147  N1148   1.032   .     S
N1148  C1175   1.432   .     S
N1149  C666    1.429   1_565 S
N1149  C676    1.447   1_565 S
O1152  Zn1166  1.932   .     S
O1152  Zn1167  1.948   .     S
O1152  Zn1165  1.960   .     S
O1152  Zn1168  1.936   .     S
O1153  Zn1166  1.926   .     S
O1154  Zn1168  1.928   .     S
O1155  Zn1167  1.917   .     S
O1156  Zn1165  1.916   .     S
O1157  Zn1165  1.934   .     S
O1158  Zn1168  1.944   .     S
O1159  Zn1166  1.937   .     S
O1160  Zn1167  1.941   .     S
O1161  Zn1168  1.935   .     S
O1162  Zn1165  1.935   .     S
O1163  Zn1166  1.949   .     S
O1164  Zn1167  1.938   .     S
C1169  O1234   1.267   .     A
C1169  O1232   1.261   .     A
C1169  C1175   1.436   .     S
C1170  H1216   1.076   .     S
C1170  C1193   1.413   .     A
C1170  C1184   1.393   .     A
C1171  C1183   1.387   .     A
C1171  H1197   1.084   .     S
C1171  C1184   1.397   .     A
C1172  O1233   1.291   .     A
C1172  C1174   1.457   .     S
C1172  O1235   1.274   .     A
C1173  C1185   1.400   .     A
C1173  C1182   1.476   .     S
C1173  C1192   1.419   .     A
C1174  C1248   1.349   .     S
C1174  H1292   1.088   .     S
C1176  C1179   1.456   .     S
C1176  C739    1.344   1_565 S
C1176  H770    1.088   1_565 S
C1177  C1178   1.439   .     S
C1178  O1236   1.266   .     A
C1178  O1230   1.276   .     A
C1179  O1237   1.280   .     A
C1179  O1231   1.269   .     A
C1180  C1185   1.385   .     A
C1180  H1218   1.083   .     S
C1180  C533    1.398   1_556 S
C1181  O1226   1.272   .     A
C1181  C1184   1.456   .     S
C1181  O1228   1.284   .     A
C1182  O1227   1.282   .     A
C1182  O1229   1.291   .     A
C1183  H1215   1.084   .     S
C1185  H1217   1.084   .     S
C1186  H1198   1.110   .     S
C1186  N1221   1.448   .     S
C1186  H1272   1.111   .     S
C1186  H1273   1.111   .     S
C1187  H1203   1.111   .     S
C1187  H1204   1.110   .     S
C1188  H1206   1.110   .     S
C1188  N1223   1.447   .     S
C1188  H1209   1.111   .     S
C1188  H1207   1.111   .     S
C1189  N1224   1.446   .     S
C1189  H1213   1.111   .     S
C1189  H1212   1.111   .     S
C1189  H1211   1.108   .     S
C1190  N1223   1.425   .     S
C1191  C1192   1.426   .     A
C1191  C533    1.431   1_556 S
C1191  C536    1.427   1_556 S
C1192  C1196   1.422   .     A
C1194  C1195   1.392   .     A
C1194  C536    1.421   1_556 S
C1194  C526    1.401   1_556 S
C1195  C1196   1.401   .     A
C1195  H1214   1.082   .     S
C1196  N1224   1.436   .     S
H1201  N1222   1.030   .     S
H1202  C749    1.110   1_565 S
H1205  N1223   1.032   .     S
H1210  N1224   1.032   .     S
H1220  N1221   1.032   .     S
N1221  C1248   1.432   .     S
N1222  C739    1.429   1_565 S
N1222  C749    1.447   1_565 S
O1225  Zn1239  1.932   .     S
O1225  Zn1240  1.948   .     S
O1225  Zn1238  1.960   .     S
O1225  Zn1241  1.936   .     S
O1226  Zn1239  1.926   .     S
O1227  Zn1241  1.928   .     S
O1228  Zn1240  1.917   .     S
O1229  Zn1238  1.916   .     S
O1230  Zn1238  1.934   .     S
O1231  Zn1241  1.944   .     S
O1232  Zn1239  1.937   .     S
O1233  Zn1240  1.941   .     S
O1234  Zn1241  1.935   .     S
O1235  Zn1238  1.935   .     S
O1236  Zn1239  1.949   .     S
O1237  Zn1240  1.938   .     S
C1242  O1307   1.267   .     A
C1242  O1305   1.261   .     A
C1242  C1248   1.436   .     S
C1243  H1289   1.076   .     S
C1243  C1266   1.413   .     A
C1243  C1257   1.393   .     A
C1244  C1256   1.387   .     A
C1244  H1270   1.084   .     S
C1244  C1257   1.397   .     A
C1245  O1306   1.291   .     A
C1245  C1247   1.457   .     S
C1245  O1308   1.274   .     A
C1246  C1258   1.400   .     A
C1246  C1255   1.476   .     S
C1246  C1265   1.419   .     A
C1247  C1102   1.349   1_655 S
C1247  H1146   1.088   1_655 S
C1249  C1252   1.456   .     S
C1249  C812    1.344   1_565 S
C1249  H843    1.088   1_565 S
C1250  C1251   1.439   .     S
C1251  O1309   1.266   .     A
C1251  O1303   1.276   .     A
C1252  O1310   1.280   .     A
C1252  O1304   1.269   .     A
C1253  C1258   1.385   .     A
C1253  H1291   1.083   .     S
C1253  C606    1.398   1_556 S
C1254  O1299   1.272   .     A
C1254  C1257   1.456   .     S
C1254  O1301   1.284   .     A
C1255  O1300   1.282   .     A
C1255  O1302   1.291   .     A
C1256  H1288   1.084   .     S
C1258  H1290   1.084   .     S
C1259  H1271   1.110   .     S
C1259  N1294   1.448   .     S
C1259  H1126   1.111   1_655 S
C1259  H1127   1.111   1_655 S
C1260  H1276   1.111   .     S
C1260  H1277   1.110   .     S
C1261  H1279   1.110   .     S
C1261  N1296   1.447   .     S
C1261  H1282   1.111   .     S
C1261  H1280   1.111   .     S
C1262  N1297   1.446   .     S
C1262  H1286   1.111   .     S
C1262  H1285   1.111   .     S
C1262  H1284   1.108   .     S
C1263  N1296   1.425   .     S
C1264  C1265   1.426   .     A
C1264  C606    1.431   1_556 S
C1264  C609    1.427   1_556 S
C1265  C1269   1.422   .     A
C1267  C1268   1.392   .     A
C1267  C609    1.421   1_556 S
C1267  C599    1.401   1_556 S
C1268  C1269   1.401   .     A
C1268  H1287   1.082   .     S
C1269  N1297   1.436   .     S
H1274  N1295   1.030   .     S
H1275  C822    1.110   1_565 S
H1278  N1296   1.032   .     S
H1283  N1297   1.032   .     S
H1293  N1294   1.032   .     S
N1294  C1102   1.432   1_655 S
N1295  C812    1.429   1_565 S
N1295  C822    1.447   1_565 S
O1298  Zn1312  1.932   .     S
O1298  Zn1313  1.948   .     S
O1298  Zn1311  1.960   .     S
O1298  Zn1314  1.936   .     S
O1299  Zn1312  1.926   .     S
O1300  Zn1314  1.928   .     S
O1301  Zn1313  1.917   .     S
O1302  Zn1311  1.916   .     S
O1303  Zn1311  1.934   .     S
O1304  Zn1314  1.944   .     S
O1305  Zn1312  1.937   .     S
O1306  Zn1313  1.941   .     S
O1307  Zn1314  1.935   .     S
O1308  Zn1311  1.935   .     S
O1309  Zn1312  1.949   .     S
O1310  Zn1313  1.938   .     S
