data_str_m1_o10_o18_pcu_sym.240
_audit_creation_date              2020-01-03
_audit_creation_method            'Materials Studio'
_symmetry_space_group_name_H-M    'P1'
_symmetry_Int_Tables_number       1
_symmetry_cell_setting            triclinic
loop_
_symmetry_equiv_pos_as_xyz
  x,y,z
_cell_length_a                    32.7297
_cell_length_b                    32.5248
_cell_length_c                    35.5078
_cell_angle_alpha                 97.9805
_cell_angle_beta                  72.8790
_cell_angle_gamma                 98.4732
loop_
_atom_site_label
_atom_site_type_symbol
_atom_site_fract_x
_atom_site_fract_y
_atom_site_fract_z
_atom_site_U_iso_or_equiv
_atom_site_adp_type
_atom_site_occupancy
C1     C     0.05276   0.16012   0.25886   0.00000  Uiso   1.00
C2     C     0.19802   0.12532   0.45760   0.00000  Uiso   1.00
C3     C     0.22146   0.10683   0.47647   0.00000  Uiso   1.00
C4     C     0.28107   0.17319   0.24107   0.00000  Uiso   1.00
C5     C     0.21271   0.11290   0.01847   0.00000  Uiso   1.00
C6     C     0.17927   0.13780   0.03991   0.00000  Uiso   1.00
C7     C     0.23563   0.09583   0.04016   0.00000  Uiso   1.00
C8     C     0.22680   0.10567   0.08150   0.00000  Uiso   1.00
C9     C     0.17682   0.15327   0.07973   0.00000  Uiso   1.00
C10    C     0.32696   0.17300   0.23601   0.00000  Uiso   1.00
C11    C     0.00739   0.15846   0.26358   0.00000  Uiso   1.00
C12    C     0.09527   0.21161   0.42380   0.00000  Uiso   1.00
C13    C     0.18291   0.32263   0.23871   0.00000  Uiso   1.00
C14    C     0.15199   0.01205   0.26144   0.00000  Uiso   1.00
C15    C     0.15528   0.05626   0.25948   0.00000  Uiso   1.00
C16    C     0.17732   0.27780   0.24156   0.00000  Uiso   1.00
C17    C     0.18833   0.14528   0.14392   0.00000  Uiso   1.00
C18    C     0.14497   0.18746   0.35654   0.00000  Uiso   1.00
C19    C     0.13138   0.19169   0.40068   0.00000  Uiso   1.00
C20    C     0.19835   0.13536   0.10086   0.00000  Uiso   1.00
C21    C     0.08087   0.20929   0.46513   0.00000  Uiso   1.00
C22    C     0.00662   0.15364   0.04107   0.00000  Uiso   1.00
C23    C     0.15422   0.17269   0.41970   0.00000  Uiso   1.00
C24    C     0.26785   0.06752   0.02174   0.00000  Uiso   1.00
C25    C     0.02370   0.18829   0.20045   0.00000  Uiso   1.00
C26    C     0.30672   0.10463   0.30667   0.00000  Uiso   1.00
C27    C     0.25951   0.01083   0.22345   0.00000  Uiso   1.00
C28    C     0.15672   0.19093   0.09775   0.00000  Uiso   1.00
C29    C     0.22862   0.04643   0.11497   0.00000  Uiso   1.00
C30    C     0.25575   0.08426   0.45053   0.00000  Uiso   1.00
C31    C     0.04662   0.23398   0.48815   0.00000  Uiso   1.00
C32    C     0.07231   0.23436   0.40565   0.00000  Uiso   1.00
C33    C     0.07990   0.09318   0.07606   0.00000  Uiso   1.00
C34    C     0.13948   0.16781   0.46047   0.00000  Uiso   1.00
C35    C     0.10102   0.18480   0.48345   0.00000  Uiso   1.00
C36    C     0.16292   0.14740   0.47903   0.00000  Uiso   1.00
C37    C     0.15020   0.14811   0.02054   0.00000  Uiso   1.00
C38    C     0.10731   0.15537   0.04132   0.00000  Uiso   1.00
C39    C     0.08347   0.17562   0.02353   0.00000  Uiso   1.00
H40    H     0.12291   0.33115   0.28121   0.00000  Uiso   1.00
H41    H     0.00399   0.09482   0.30807   0.00000  Uiso   1.00
H42    H     0.29622   0.08552   0.28206   0.00000  Uiso   1.00
H43    H     0.21716   0.03444   0.20086   0.00000  Uiso   1.00
H44    H     0.28700   0.02476   0.20042   0.00000  Uiso   1.00
H45    H     0.26661   0.31287   0.22718   0.00000  Uiso   1.00
H46    H     0.25613   0.03111   0.25179   0.00000  Uiso   1.00
H47    H     0.25731   0.10654   0.12561   0.00000  Uiso   1.00
H48    H     0.24987   0.03265   0.12789   0.00000  Uiso   1.00
H49    H     0.22369   0.02497   0.08909   0.00000  Uiso   1.00
H50    H     0.19711   0.04934   0.13751   0.00000  Uiso   1.00
H51    H     0.18404   0.16200   0.40160   0.00000  Uiso   1.00
H52    H     0.06140   0.15230   0.09715   0.00000  Uiso   1.00
H53    H     0.06493   0.08326   0.10625   0.00000  Uiso   1.00
H54    H     0.11070   0.07932   0.06357   0.00000  Uiso   1.00
H55    H     0.05809   0.08097   0.05732   0.00000  Uiso   1.00
H56    H     0.20667   0.11981   0.42574   0.00000  Uiso   1.00
H57    H     0.03806   0.19920   0.07387   0.00000  Uiso   1.00
H58    H     0.30875   0.16651   0.05481   0.00000  Uiso   1.00
H59    H     0.00695   0.12604   0.05609   0.00000  Uiso   1.00
H60    H     0.00931   0.14393   0.00924   0.00000  Uiso   1.00
H61    H     0.31971   0.16714   0.32453   0.00000  Uiso   1.00
H62    H     0.28162   0.09905   0.33488   0.00000  Uiso   1.00
N63    N     0.04135   0.18533   0.04538   0.00000  Uiso   1.00
N64    N     0.05389   0.25253   0.39132   0.00000  Uiso   1.00
N65    N     0.08710   0.13836   0.07833   0.00000  Uiso   1.00
N66    N     0.29365   0.04485   0.00756   0.00000  Uiso   1.00
N67    N     0.04763   0.20054   0.17213   0.00000  Uiso   1.00
N68    N     0.31229   0.14847   0.30094   0.00000  Uiso   1.00
N69    N     0.22053   0.00753   0.21140   0.00000  Uiso   1.00
N70    N     0.14094   0.22102   0.11206   0.00000  Uiso   1.00
N71    N     0.24863   0.08707   0.10305   0.00000  Uiso   1.00
N72    N     0.28307   0.06638   0.42931   0.00000  Uiso   1.00
N73    N     0.01938   0.25379   0.00628   0.00000  Uiso   1.00
O74    O     0.16667   0.16667   0.25000   0.00000  Uiso   1.00
O75    O     0.15693   0.12393   0.16625   0.00000  Uiso   1.00
O76    O     0.12687   0.20646   0.33749   0.00000  Uiso   1.00
O77    O     0.21088   0.17493   0.15877   0.00000  Uiso   1.00
O78    O     0.17198   0.16135   0.33749   0.00000  Uiso   1.00
O79    O     0.17849   0.08101   0.27820   0.00000  Uiso   1.00
O80    O     0.14581   0.26136   0.26767   0.00000  Uiso   1.00
O81    O     0.07452   0.13251   0.23607   0.00000  Uiso   1.00
O82    O     0.26785   0.19179   0.21806   0.00000  Uiso   1.00
O83    O     0.06990   0.18960   0.27820   0.00000  Uiso   1.00
O84    O     0.25440   0.15277   0.26768   0.00000  Uiso   1.00
O85    O     0.13800   0.06903   0.23607   0.00000  Uiso   1.00
O86    O     0.20437   0.25527   0.21806   0.00000  Uiso   1.00
Zn87   Zn    0.19244   0.14090   0.28277   0.00000  Uiso   1.00
Zn88   Zn    0.13459   0.12378   0.22257   0.00000  Uiso   1.00
Zn89   Zn    0.21166   0.19664   0.21188   0.00000  Uiso   1.00
Zn90   Zn    0.12798   0.20535   0.28277   0.00000  Uiso   1.00
C91    C     0.38610   0.16012   0.25886   0.00000  Uiso   1.00
C92    C     0.53135   0.12532   0.45760   0.00000  Uiso   1.00
C93    C     0.55480   0.10683   0.47647   0.00000  Uiso   1.00
C94    C     0.61440   0.17319   0.24107   0.00000  Uiso   1.00
C95    C     0.54604   0.11290   0.01847   0.00000  Uiso   1.00
C96    C     0.51260   0.13780   0.03991   0.00000  Uiso   1.00
C97    C     0.56897   0.09583   0.04016   0.00000  Uiso   1.00
C98    C     0.56013   0.10567   0.08150   0.00000  Uiso   1.00
C99    C     0.51016   0.15327   0.07973   0.00000  Uiso   1.00
C100   C     0.66030   0.17300   0.23601   0.00000  Uiso   1.00
C101   C     0.34073   0.15846   0.26358   0.00000  Uiso   1.00
C102   C     0.42860   0.21161   0.42380   0.00000  Uiso   1.00
C103   C     0.51624   0.32263   0.23871   0.00000  Uiso   1.00
C104   C     0.48533   0.01205   0.26144   0.00000  Uiso   1.00
C105   C     0.48862   0.05626   0.25948   0.00000  Uiso   1.00
C106   C     0.51065   0.27780   0.24156   0.00000  Uiso   1.00
C107   C     0.52166   0.14528   0.14392   0.00000  Uiso   1.00
C108   C     0.47830   0.18746   0.35654   0.00000  Uiso   1.00
C109   C     0.46471   0.19169   0.40068   0.00000  Uiso   1.00
C110   C     0.53168   0.13536   0.10086   0.00000  Uiso   1.00
C111   C     0.41421   0.20929   0.46513   0.00000  Uiso   1.00
C112   C     0.33996   0.15364   0.04107   0.00000  Uiso   1.00
C113   C     0.48755   0.17269   0.41970   0.00000  Uiso   1.00
C114   C     0.60118   0.06752   0.02174   0.00000  Uiso   1.00
C115   C     0.35703   0.18829   0.20045   0.00000  Uiso   1.00
C116   C     0.64005   0.10463   0.30667   0.00000  Uiso   1.00
C117   C     0.59284   0.01083   0.22345   0.00000  Uiso   1.00
C118   C     0.49006   0.19093   0.09775   0.00000  Uiso   1.00
C119   C     0.56195   0.04643   0.11497   0.00000  Uiso   1.00
C120   C     0.58908   0.08426   0.45053   0.00000  Uiso   1.00
C121   C     0.37995   0.23398   0.48815   0.00000  Uiso   1.00
C122   C     0.40564   0.23436   0.40565   0.00000  Uiso   1.00
C123   C     0.41324   0.09318   0.07606   0.00000  Uiso   1.00
C124   C     0.47282   0.16781   0.46047   0.00000  Uiso   1.00
C125   C     0.43435   0.18480   0.48345   0.00000  Uiso   1.00
C126   C     0.49626   0.14740   0.47903   0.00000  Uiso   1.00
C127   C     0.48354   0.14811   0.02054   0.00000  Uiso   1.00
C128   C     0.44064   0.15537   0.04132   0.00000  Uiso   1.00
C129   C     0.41680   0.17562   0.02353   0.00000  Uiso   1.00
H130   H     0.45624   0.33115   0.28121   0.00000  Uiso   1.00
H131   H     0.33732   0.09482   0.30807   0.00000  Uiso   1.00
H132   H     0.62955   0.08552   0.28206   0.00000  Uiso   1.00
H133   H     0.55049   0.03444   0.20086   0.00000  Uiso   1.00
H134   H     0.62034   0.02476   0.20042   0.00000  Uiso   1.00
H135   H     0.59994   0.31287   0.22718   0.00000  Uiso   1.00
H136   H     0.58946   0.03111   0.25179   0.00000  Uiso   1.00
H137   H     0.59065   0.10654   0.12561   0.00000  Uiso   1.00
H138   H     0.58320   0.03265   0.12789   0.00000  Uiso   1.00
H139   H     0.55703   0.02497   0.08909   0.00000  Uiso   1.00
H140   H     0.53045   0.04934   0.13751   0.00000  Uiso   1.00
H141   H     0.51738   0.16200   0.40160   0.00000  Uiso   1.00
H142   H     0.39473   0.15230   0.09715   0.00000  Uiso   1.00
H143   H     0.39827   0.08326   0.10625   0.00000  Uiso   1.00
H144   H     0.44404   0.07932   0.06357   0.00000  Uiso   1.00
H145   H     0.39142   0.08097   0.05732   0.00000  Uiso   1.00
H146   H     0.54000   0.11981   0.42574   0.00000  Uiso   1.00
H147   H     0.37139   0.19920   0.07387   0.00000  Uiso   1.00
H148   H     0.64208   0.16651   0.05481   0.00000  Uiso   1.00
H149   H     0.34028   0.12604   0.05609   0.00000  Uiso   1.00
H150   H     0.34264   0.14393   0.00924   0.00000  Uiso   1.00
H151   H     0.65305   0.16714   0.32453   0.00000  Uiso   1.00
H152   H     0.61495   0.09905   0.33488   0.00000  Uiso   1.00
N153   N     0.37469   0.18533   0.04538   0.00000  Uiso   1.00
N154   N     0.38723   0.25253   0.39132   0.00000  Uiso   1.00
N155   N     0.42043   0.13836   0.07833   0.00000  Uiso   1.00
N156   N     0.62698   0.04485   0.00756   0.00000  Uiso   1.00
N157   N     0.38096   0.20054   0.17213   0.00000  Uiso   1.00
N158   N     0.64562   0.14847   0.30094   0.00000  Uiso   1.00
N159   N     0.55386   0.00753   0.21140   0.00000  Uiso   1.00
N160   N     0.47427   0.22102   0.11206   0.00000  Uiso   1.00
N161   N     0.58196   0.08707   0.10305   0.00000  Uiso   1.00
N162   N     0.61640   0.06638   0.42931   0.00000  Uiso   1.00
N163   N     0.35272   0.25379   0.00628   0.00000  Uiso   1.00
O164   O     0.50000   0.16667   0.25000   0.00000  Uiso   1.00
O165   O     0.49027   0.12393   0.16625   0.00000  Uiso   1.00
O166   O     0.46020   0.20646   0.33749   0.00000  Uiso   1.00
O167   O     0.54421   0.17493   0.15877   0.00000  Uiso   1.00
O168   O     0.50532   0.16135   0.33749   0.00000  Uiso   1.00
O169   O     0.51182   0.08101   0.27820   0.00000  Uiso   1.00
O170   O     0.47914   0.26136   0.26767   0.00000  Uiso   1.00
O171   O     0.40785   0.13251   0.23607   0.00000  Uiso   1.00
O172   O     0.60119   0.19179   0.21806   0.00000  Uiso   1.00
O173   O     0.40323   0.18960   0.27820   0.00000  Uiso   1.00
O174   O     0.58773   0.15277   0.26768   0.00000  Uiso   1.00
O175   O     0.47133   0.06903   0.23607   0.00000  Uiso   1.00
O176   O     0.53771   0.25527   0.21806   0.00000  Uiso   1.00
Zn177  Zn    0.52577   0.14090   0.28277   0.00000  Uiso   1.00
Zn178  Zn    0.46792   0.12378   0.22257   0.00000  Uiso   1.00
Zn179  Zn    0.54500   0.19664   0.21188   0.00000  Uiso   1.00
Zn180  Zn    0.46131   0.20535   0.28277   0.00000  Uiso   1.00
C181   C     0.71943   0.16012   0.25886   0.00000  Uiso   1.00
C182   C     0.86468   0.12532   0.45760   0.00000  Uiso   1.00
C183   C     0.88813   0.10683   0.47647   0.00000  Uiso   1.00
C184   C     0.94773   0.17319   0.24107   0.00000  Uiso   1.00
C185   C     0.87937   0.11290   0.01847   0.00000  Uiso   1.00
C186   C     0.84593   0.13780   0.03991   0.00000  Uiso   1.00
C187   C     0.90230   0.09583   0.04016   0.00000  Uiso   1.00
C188   C     0.89346   0.10567   0.08150   0.00000  Uiso   1.00
C189   C     0.84349   0.15327   0.07973   0.00000  Uiso   1.00
C190   C     0.99363   0.17300   0.23601   0.00000  Uiso   1.00
C191   C     0.67406   0.15846   0.26358   0.00000  Uiso   1.00
C192   C     0.76193   0.21161   0.42380   0.00000  Uiso   1.00
C193   C     0.84957   0.32263   0.23871   0.00000  Uiso   1.00
C194   C     0.81866   0.01205   0.26144   0.00000  Uiso   1.00
C195   C     0.82195   0.05626   0.25948   0.00000  Uiso   1.00
C196   C     0.84399   0.27780   0.24156   0.00000  Uiso   1.00
C197   C     0.85499   0.14528   0.14392   0.00000  Uiso   1.00
C198   C     0.81164   0.18746   0.35654   0.00000  Uiso   1.00
C199   C     0.79804   0.19169   0.40068   0.00000  Uiso   1.00
C200   C     0.86502   0.13536   0.10086   0.00000  Uiso   1.00
C201   C     0.74754   0.20929   0.46513   0.00000  Uiso   1.00
C202   C     0.67329   0.15364   0.04107   0.00000  Uiso   1.00
C203   C     0.82088   0.17269   0.41970   0.00000  Uiso   1.00
C204   C     0.93451   0.06752   0.02174   0.00000  Uiso   1.00
C205   C     0.69036   0.18829   0.20045   0.00000  Uiso   1.00
C206   C     0.97338   0.10463   0.30667   0.00000  Uiso   1.00
C207   C     0.92618   0.01083   0.22345   0.00000  Uiso   1.00
C208   C     0.82339   0.19093   0.09775   0.00000  Uiso   1.00
C209   C     0.89529   0.04643   0.11497   0.00000  Uiso   1.00
C210   C     0.92241   0.08426   0.45053   0.00000  Uiso   1.00
C211   C     0.71329   0.23398   0.48815   0.00000  Uiso   1.00
C212   C     0.73897   0.23436   0.40565   0.00000  Uiso   1.00
C213   C     0.74657   0.09318   0.07606   0.00000  Uiso   1.00
C214   C     0.80615   0.16781   0.46047   0.00000  Uiso   1.00
C215   C     0.76769   0.18480   0.48345   0.00000  Uiso   1.00
C216   C     0.82959   0.14740   0.47903   0.00000  Uiso   1.00
C217   C     0.81687   0.14811   0.02054   0.00000  Uiso   1.00
C218   C     0.77397   0.15537   0.04132   0.00000  Uiso   1.00
C219   C     0.75013   0.17562   0.02353   0.00000  Uiso   1.00
H220   H     0.78958   0.33115   0.28121   0.00000  Uiso   1.00
H221   H     0.67066   0.09482   0.30807   0.00000  Uiso   1.00
H222   H     0.96289   0.08552   0.28206   0.00000  Uiso   1.00
H223   H     0.88383   0.03444   0.20086   0.00000  Uiso   1.00
H224   H     0.95367   0.02476   0.20042   0.00000  Uiso   1.00
H225   H     0.93328   0.31287   0.22718   0.00000  Uiso   1.00
H226   H     0.92279   0.03111   0.25179   0.00000  Uiso   1.00
H227   H     0.92398   0.10654   0.12561   0.00000  Uiso   1.00
H228   H     0.91654   0.03265   0.12789   0.00000  Uiso   1.00
H229   H     0.89036   0.02497   0.08909   0.00000  Uiso   1.00
H230   H     0.86378   0.04934   0.13751   0.00000  Uiso   1.00
H231   H     0.85071   0.16200   0.40160   0.00000  Uiso   1.00
H232   H     0.72807   0.15230   0.09715   0.00000  Uiso   1.00
H233   H     0.73160   0.08326   0.10625   0.00000  Uiso   1.00
H234   H     0.77737   0.07932   0.06357   0.00000  Uiso   1.00
H235   H     0.72476   0.08097   0.05732   0.00000  Uiso   1.00
H236   H     0.87334   0.11981   0.42574   0.00000  Uiso   1.00
H237   H     0.70473   0.19920   0.07387   0.00000  Uiso   1.00
H238   H     0.97541   0.16651   0.05481   0.00000  Uiso   1.00
H239   H     0.67361   0.12604   0.05609   0.00000  Uiso   1.00
H240   H     0.67598   0.14393   0.00924   0.00000  Uiso   1.00
H241   H     0.98638   0.16714   0.32453   0.00000  Uiso   1.00
H242   H     0.94828   0.09905   0.33488   0.00000  Uiso   1.00
N243   N     0.70802   0.18533   0.04538   0.00000  Uiso   1.00
N244   N     0.72056   0.25253   0.39132   0.00000  Uiso   1.00
N245   N     0.75376   0.13836   0.07833   0.00000  Uiso   1.00
N246   N     0.96031   0.04485   0.00756   0.00000  Uiso   1.00
N247   N     0.71429   0.20054   0.17213   0.00000  Uiso   1.00
N248   N     0.97895   0.14847   0.30094   0.00000  Uiso   1.00
N249   N     0.88720   0.00753   0.21140   0.00000  Uiso   1.00
N250   N     0.80761   0.22102   0.11206   0.00000  Uiso   1.00
N251   N     0.91529   0.08707   0.10305   0.00000  Uiso   1.00
N252   N     0.94974   0.06638   0.42931   0.00000  Uiso   1.00
N253   N     0.68605   0.25379   0.00628   0.00000  Uiso   1.00
O254   O     0.83333   0.16667   0.25000   0.00000  Uiso   1.00
O255   O     0.82360   0.12393   0.16625   0.00000  Uiso   1.00
O256   O     0.79354   0.20646   0.33749   0.00000  Uiso   1.00
O257   O     0.87755   0.17493   0.15877   0.00000  Uiso   1.00
O258   O     0.83865   0.16135   0.33749   0.00000  Uiso   1.00
O259   O     0.84515   0.08101   0.27820   0.00000  Uiso   1.00
O260   O     0.81247   0.26136   0.26767   0.00000  Uiso   1.00
O261   O     0.74119   0.13251   0.23607   0.00000  Uiso   1.00
O262   O     0.93452   0.19179   0.21806   0.00000  Uiso   1.00
O263   O     0.73656   0.18960   0.27820   0.00000  Uiso   1.00
O264   O     0.92106   0.15277   0.26768   0.00000  Uiso   1.00
O265   O     0.80467   0.06903   0.23607   0.00000  Uiso   1.00
O266   O     0.87104   0.25527   0.21806   0.00000  Uiso   1.00
Zn267  Zn    0.85910   0.14090   0.28277   0.00000  Uiso   1.00
Zn268  Zn    0.80125   0.12378   0.22257   0.00000  Uiso   1.00
Zn269  Zn    0.87833   0.19664   0.21188   0.00000  Uiso   1.00
Zn270  Zn    0.79465   0.20535   0.28277   0.00000  Uiso   1.00
C271   C     0.05276   0.49345   0.25886   0.00000  Uiso   1.00
C272   C     0.19802   0.45866   0.45760   0.00000  Uiso   1.00
C273   C     0.22146   0.44016   0.47647   0.00000  Uiso   1.00
C274   C     0.28107   0.50652   0.24107   0.00000  Uiso   1.00
C275   C     0.21271   0.44623   0.01847   0.00000  Uiso   1.00
C276   C     0.17927   0.47113   0.03991   0.00000  Uiso   1.00
C277   C     0.23563   0.42916   0.04016   0.00000  Uiso   1.00
C278   C     0.22680   0.43900   0.08150   0.00000  Uiso   1.00
C279   C     0.17682   0.48660   0.07973   0.00000  Uiso   1.00
C280   C     0.32696   0.50633   0.23601   0.00000  Uiso   1.00
C281   C     0.00739   0.49180   0.26358   0.00000  Uiso   1.00
C282   C     0.09527   0.54494   0.42380   0.00000  Uiso   1.00
C283   C     0.18291   0.65597   0.23871   0.00000  Uiso   1.00
C284   C     0.15199   0.34538   0.26144   0.00000  Uiso   1.00
C285   C     0.15528   0.38959   0.25948   0.00000  Uiso   1.00
C286   C     0.17732   0.61113   0.24156   0.00000  Uiso   1.00
C287   C     0.18833   0.47862   0.14392   0.00000  Uiso   1.00
C288   C     0.14497   0.52080   0.35654   0.00000  Uiso   1.00
C289   C     0.13138   0.52502   0.40068   0.00000  Uiso   1.00
C290   C     0.19835   0.46870   0.10086   0.00000  Uiso   1.00
C291   C     0.08087   0.54262   0.46513   0.00000  Uiso   1.00
C292   C     0.00662   0.48697   0.04107   0.00000  Uiso   1.00
C293   C     0.15422   0.50602   0.41970   0.00000  Uiso   1.00
C294   C     0.26785   0.40085   0.02174   0.00000  Uiso   1.00
C295   C     0.02370   0.52162   0.20045   0.00000  Uiso   1.00
C296   C     0.30672   0.43796   0.30667   0.00000  Uiso   1.00
C297   C     0.25951   0.34416   0.22345   0.00000  Uiso   1.00
C298   C     0.15672   0.52426   0.09775   0.00000  Uiso   1.00
C299   C     0.22862   0.37977   0.11497   0.00000  Uiso   1.00
C300   C     0.25575   0.41759   0.45053   0.00000  Uiso   1.00
C301   C     0.04662   0.56731   0.48815   0.00000  Uiso   1.00
C302   C     0.07231   0.56769   0.40565   0.00000  Uiso   1.00
C303   C     0.07990   0.42651   0.07606   0.00000  Uiso   1.00
C304   C     0.13948   0.50115   0.46047   0.00000  Uiso   1.00
C305   C     0.10102   0.51813   0.48345   0.00000  Uiso   1.00
C306   C     0.16292   0.48073   0.47903   0.00000  Uiso   1.00
C307   C     0.15020   0.48145   0.02054   0.00000  Uiso   1.00
C308   C     0.10731   0.48870   0.04132   0.00000  Uiso   1.00
C309   C     0.08347   0.50895   0.02353   0.00000  Uiso   1.00
H310   H     0.12291   0.66449   0.28121   0.00000  Uiso   1.00
H311   H     0.00399   0.42815   0.30807   0.00000  Uiso   1.00
H312   H     0.29622   0.41885   0.28206   0.00000  Uiso   1.00
H313   H     0.21716   0.36777   0.20086   0.00000  Uiso   1.00
H314   H     0.28700   0.35809   0.20042   0.00000  Uiso   1.00
H315   H     0.26661   0.64620   0.22718   0.00000  Uiso   1.00
H316   H     0.25613   0.36444   0.25179   0.00000  Uiso   1.00
H317   H     0.25731   0.43987   0.12561   0.00000  Uiso   1.00
H318   H     0.24987   0.36599   0.12789   0.00000  Uiso   1.00
H319   H     0.22369   0.35831   0.08909   0.00000  Uiso   1.00
H320   H     0.19711   0.38268   0.13751   0.00000  Uiso   1.00
H321   H     0.18404   0.49533   0.40160   0.00000  Uiso   1.00
H322   H     0.06140   0.48563   0.09715   0.00000  Uiso   1.00
H323   H     0.06493   0.41660   0.10625   0.00000  Uiso   1.00
H324   H     0.11070   0.41265   0.06357   0.00000  Uiso   1.00
H325   H     0.05809   0.41431   0.05732   0.00000  Uiso   1.00
H326   H     0.20667   0.45314   0.42574   0.00000  Uiso   1.00
H327   H     0.03806   0.53253   0.07387   0.00000  Uiso   1.00
H328   H     0.30875   0.49984   0.05481   0.00000  Uiso   1.00
H329   H     0.00695   0.45937   0.05609   0.00000  Uiso   1.00
H330   H     0.00931   0.47726   0.00924   0.00000  Uiso   1.00
H331   H     0.31971   0.50048   0.32453   0.00000  Uiso   1.00
H332   H     0.28162   0.43238   0.33488   0.00000  Uiso   1.00
N333   N     0.04135   0.51866   0.04538   0.00000  Uiso   1.00
N334   N     0.05389   0.58586   0.39132   0.00000  Uiso   1.00
N335   N     0.08710   0.47169   0.07833   0.00000  Uiso   1.00
N336   N     0.29365   0.37818   0.00756   0.00000  Uiso   1.00
N337   N     0.04763   0.53387   0.17213   0.00000  Uiso   1.00
N338   N     0.31229   0.48180   0.30094   0.00000  Uiso   1.00
N339   N     0.22053   0.34086   0.21140   0.00000  Uiso   1.00
N340   N     0.14094   0.55435   0.11206   0.00000  Uiso   1.00
N341   N     0.24863   0.42040   0.10305   0.00000  Uiso   1.00
N342   N     0.28307   0.39971   0.42931   0.00000  Uiso   1.00
N343   N     0.01938   0.58712   0.00628   0.00000  Uiso   1.00
O344   O     0.16667   0.50000   0.25000   0.00000  Uiso   1.00
O345   O     0.15693   0.45726   0.16625   0.00000  Uiso   1.00
O346   O     0.12687   0.53979   0.33749   0.00000  Uiso   1.00
O347   O     0.21088   0.50826   0.15877   0.00000  Uiso   1.00
O348   O     0.17198   0.49468   0.33749   0.00000  Uiso   1.00
O349   O     0.17849   0.41434   0.27820   0.00000  Uiso   1.00
O350   O     0.14581   0.59469   0.26767   0.00000  Uiso   1.00
O351   O     0.07452   0.46584   0.23607   0.00000  Uiso   1.00
O352   O     0.26785   0.52512   0.21806   0.00000  Uiso   1.00
O353   O     0.06990   0.52293   0.27820   0.00000  Uiso   1.00
O354   O     0.25440   0.48610   0.26768   0.00000  Uiso   1.00
O355   O     0.13800   0.40236   0.23607   0.00000  Uiso   1.00
O356   O     0.20437   0.58860   0.21806   0.00000  Uiso   1.00
Zn357  Zn    0.19244   0.47423   0.28277   0.00000  Uiso   1.00
Zn358  Zn    0.13459   0.45711   0.22257   0.00000  Uiso   1.00
Zn359  Zn    0.21166   0.52997   0.21188   0.00000  Uiso   1.00
Zn360  Zn    0.12798   0.53868   0.28277   0.00000  Uiso   1.00
C361   C     0.38610   0.49345   0.25886   0.00000  Uiso   1.00
C362   C     0.53135   0.45866   0.45760   0.00000  Uiso   1.00
C363   C     0.55480   0.44016   0.47647   0.00000  Uiso   1.00
C364   C     0.61440   0.50652   0.24107   0.00000  Uiso   1.00
C365   C     0.54604   0.44623   0.01847   0.00000  Uiso   1.00
C366   C     0.51260   0.47113   0.03991   0.00000  Uiso   1.00
C367   C     0.56897   0.42916   0.04016   0.00000  Uiso   1.00
C368   C     0.56013   0.43900   0.08150   0.00000  Uiso   1.00
C369   C     0.51016   0.48660   0.07973   0.00000  Uiso   1.00
C370   C     0.66030   0.50633   0.23601   0.00000  Uiso   1.00
C371   C     0.34073   0.49180   0.26358   0.00000  Uiso   1.00
C372   C     0.42860   0.54494   0.42380   0.00000  Uiso   1.00
C373   C     0.51624   0.65597   0.23871   0.00000  Uiso   1.00
C374   C     0.48533   0.34538   0.26144   0.00000  Uiso   1.00
C375   C     0.48862   0.38959   0.25948   0.00000  Uiso   1.00
C376   C     0.51065   0.61113   0.24156   0.00000  Uiso   1.00
C377   C     0.52166   0.47862   0.14392   0.00000  Uiso   1.00
C378   C     0.47830   0.52080   0.35654   0.00000  Uiso   1.00
C379   C     0.46471   0.52502   0.40068   0.00000  Uiso   1.00
C380   C     0.53168   0.46870   0.10086   0.00000  Uiso   1.00
C381   C     0.41421   0.54262   0.46513   0.00000  Uiso   1.00
C382   C     0.33996   0.48697   0.04107   0.00000  Uiso   1.00
C383   C     0.48755   0.50602   0.41970   0.00000  Uiso   1.00
C384   C     0.60118   0.40085   0.02174   0.00000  Uiso   1.00
C385   C     0.35703   0.52162   0.20045   0.00000  Uiso   1.00
C386   C     0.64005   0.43796   0.30667   0.00000  Uiso   1.00
C387   C     0.59284   0.34416   0.22345   0.00000  Uiso   1.00
C388   C     0.49006   0.52426   0.09775   0.00000  Uiso   1.00
C389   C     0.56195   0.37977   0.11497   0.00000  Uiso   1.00
C390   C     0.58908   0.41759   0.45053   0.00000  Uiso   1.00
C391   C     0.37995   0.56731   0.48815   0.00000  Uiso   1.00
C392   C     0.40564   0.56769   0.40565   0.00000  Uiso   1.00
C393   C     0.41324   0.42651   0.07606   0.00000  Uiso   1.00
C394   C     0.47282   0.50115   0.46047   0.00000  Uiso   1.00
C395   C     0.43435   0.51813   0.48345   0.00000  Uiso   1.00
C396   C     0.49626   0.48073   0.47903   0.00000  Uiso   1.00
C397   C     0.48354   0.48145   0.02054   0.00000  Uiso   1.00
C398   C     0.44064   0.48870   0.04132   0.00000  Uiso   1.00
C399   C     0.41680   0.50895   0.02353   0.00000  Uiso   1.00
H400   H     0.45624   0.66449   0.28121   0.00000  Uiso   1.00
H401   H     0.33732   0.42815   0.30807   0.00000  Uiso   1.00
H402   H     0.62955   0.41885   0.28206   0.00000  Uiso   1.00
H403   H     0.55049   0.36777   0.20086   0.00000  Uiso   1.00
H404   H     0.62034   0.35809   0.20042   0.00000  Uiso   1.00
H405   H     0.59994   0.64620   0.22718   0.00000  Uiso   1.00
H406   H     0.58946   0.36444   0.25179   0.00000  Uiso   1.00
H407   H     0.59065   0.43987   0.12561   0.00000  Uiso   1.00
H408   H     0.58320   0.36599   0.12789   0.00000  Uiso   1.00
H409   H     0.55703   0.35831   0.08909   0.00000  Uiso   1.00
H410   H     0.53045   0.38268   0.13751   0.00000  Uiso   1.00
H411   H     0.51738   0.49533   0.40160   0.00000  Uiso   1.00
H412   H     0.39473   0.48563   0.09715   0.00000  Uiso   1.00
H413   H     0.39827   0.41660   0.10625   0.00000  Uiso   1.00
H414   H     0.44404   0.41265   0.06357   0.00000  Uiso   1.00
H415   H     0.39142   0.41431   0.05732   0.00000  Uiso   1.00
H416   H     0.54000   0.45314   0.42574   0.00000  Uiso   1.00
H417   H     0.37139   0.53253   0.07387   0.00000  Uiso   1.00
H418   H     0.64208   0.49984   0.05481   0.00000  Uiso   1.00
H419   H     0.34028   0.45937   0.05609   0.00000  Uiso   1.00
H420   H     0.34264   0.47726   0.00924   0.00000  Uiso   1.00
H421   H     0.65305   0.50048   0.32453   0.00000  Uiso   1.00
H422   H     0.61495   0.43238   0.33488   0.00000  Uiso   1.00
N423   N     0.37469   0.51866   0.04538   0.00000  Uiso   1.00
N424   N     0.38723   0.58586   0.39132   0.00000  Uiso   1.00
N425   N     0.42043   0.47169   0.07833   0.00000  Uiso   1.00
N426   N     0.62698   0.37818   0.00756   0.00000  Uiso   1.00
N427   N     0.38096   0.53387   0.17213   0.00000  Uiso   1.00
N428   N     0.64562   0.48180   0.30094   0.00000  Uiso   1.00
N429   N     0.55386   0.34086   0.21140   0.00000  Uiso   1.00
N430   N     0.47427   0.55435   0.11206   0.00000  Uiso   1.00
N431   N     0.58196   0.42040   0.10305   0.00000  Uiso   1.00
N432   N     0.61640   0.39971   0.42931   0.00000  Uiso   1.00
N433   N     0.35272   0.58712   0.00628   0.00000  Uiso   1.00
O434   O     0.50000   0.50000   0.25000   0.00000  Uiso   1.00
O435   O     0.49027   0.45726   0.16625   0.00000  Uiso   1.00
O436   O     0.46020   0.53979   0.33749   0.00000  Uiso   1.00
O437   O     0.54421   0.50826   0.15877   0.00000  Uiso   1.00
O438   O     0.50532   0.49468   0.33749   0.00000  Uiso   1.00
O439   O     0.51182   0.41434   0.27820   0.00000  Uiso   1.00
O440   O     0.47914   0.59469   0.26767   0.00000  Uiso   1.00
O441   O     0.40785   0.46584   0.23607   0.00000  Uiso   1.00
O442   O     0.60119   0.52512   0.21806   0.00000  Uiso   1.00
O443   O     0.40323   0.52293   0.27820   0.00000  Uiso   1.00
O444   O     0.58773   0.48610   0.26768   0.00000  Uiso   1.00
O445   O     0.47133   0.40236   0.23607   0.00000  Uiso   1.00
O446   O     0.53771   0.58860   0.21806   0.00000  Uiso   1.00
Zn447  Zn    0.52577   0.47423   0.28277   0.00000  Uiso   1.00
Zn448  Zn    0.46792   0.45711   0.22257   0.00000  Uiso   1.00
Zn449  Zn    0.54500   0.52997   0.21188   0.00000  Uiso   1.00
Zn450  Zn    0.46131   0.53868   0.28277   0.00000  Uiso   1.00
C451   C     0.71943   0.49345   0.25886   0.00000  Uiso   1.00
C452   C     0.86468   0.45866   0.45760   0.00000  Uiso   1.00
C453   C     0.88813   0.44016   0.47647   0.00000  Uiso   1.00
C454   C     0.94773   0.50652   0.24107   0.00000  Uiso   1.00
C455   C     0.87937   0.44623   0.01847   0.00000  Uiso   1.00
C456   C     0.84593   0.47113   0.03991   0.00000  Uiso   1.00
C457   C     0.90230   0.42916   0.04016   0.00000  Uiso   1.00
C458   C     0.89346   0.43900   0.08150   0.00000  Uiso   1.00
C459   C     0.84349   0.48660   0.07973   0.00000  Uiso   1.00
C460   C     0.99363   0.50633   0.23601   0.00000  Uiso   1.00
C461   C     0.67406   0.49180   0.26358   0.00000  Uiso   1.00
C462   C     0.76193   0.54494   0.42380   0.00000  Uiso   1.00
C463   C     0.84957   0.65597   0.23871   0.00000  Uiso   1.00
C464   C     0.81866   0.34538   0.26144   0.00000  Uiso   1.00
C465   C     0.82195   0.38959   0.25948   0.00000  Uiso   1.00
C466   C     0.84399   0.61113   0.24156   0.00000  Uiso   1.00
C467   C     0.85499   0.47862   0.14392   0.00000  Uiso   1.00
C468   C     0.81164   0.52080   0.35654   0.00000  Uiso   1.00
C469   C     0.79804   0.52502   0.40068   0.00000  Uiso   1.00
C470   C     0.86502   0.46870   0.10086   0.00000  Uiso   1.00
C471   C     0.74754   0.54262   0.46513   0.00000  Uiso   1.00
C472   C     0.67329   0.48697   0.04107   0.00000  Uiso   1.00
C473   C     0.82088   0.50602   0.41970   0.00000  Uiso   1.00
C474   C     0.93451   0.40085   0.02174   0.00000  Uiso   1.00
C475   C     0.69036   0.52162   0.20045   0.00000  Uiso   1.00
C476   C     0.97338   0.43796   0.30667   0.00000  Uiso   1.00
C477   C     0.92618   0.34416   0.22345   0.00000  Uiso   1.00
C478   C     0.82339   0.52426   0.09775   0.00000  Uiso   1.00
C479   C     0.89529   0.37977   0.11497   0.00000  Uiso   1.00
C480   C     0.92241   0.41759   0.45053   0.00000  Uiso   1.00
C481   C     0.71329   0.56731   0.48815   0.00000  Uiso   1.00
C482   C     0.73897   0.56769   0.40565   0.00000  Uiso   1.00
C483   C     0.74657   0.42651   0.07606   0.00000  Uiso   1.00
C484   C     0.80615   0.50115   0.46047   0.00000  Uiso   1.00
C485   C     0.76769   0.51813   0.48345   0.00000  Uiso   1.00
C486   C     0.82959   0.48073   0.47903   0.00000  Uiso   1.00
C487   C     0.81687   0.48145   0.02054   0.00000  Uiso   1.00
C488   C     0.77397   0.48870   0.04132   0.00000  Uiso   1.00
C489   C     0.75013   0.50895   0.02353   0.00000  Uiso   1.00
H490   H     0.78958   0.66449   0.28121   0.00000  Uiso   1.00
H491   H     0.67066   0.42815   0.30807   0.00000  Uiso   1.00
H492   H     0.96289   0.41885   0.28206   0.00000  Uiso   1.00
H493   H     0.88383   0.36777   0.20086   0.00000  Uiso   1.00
H494   H     0.95367   0.35809   0.20042   0.00000  Uiso   1.00
H495   H     0.93328   0.64620   0.22718   0.00000  Uiso   1.00
H496   H     0.92279   0.36444   0.25179   0.00000  Uiso   1.00
H497   H     0.92398   0.43987   0.12561   0.00000  Uiso   1.00
H498   H     0.91654   0.36599   0.12789   0.00000  Uiso   1.00
H499   H     0.89036   0.35831   0.08909   0.00000  Uiso   1.00
H500   H     0.86378   0.38268   0.13751   0.00000  Uiso   1.00
H501   H     0.85071   0.49533   0.40160   0.00000  Uiso   1.00
H502   H     0.72807   0.48563   0.09715   0.00000  Uiso   1.00
H503   H     0.73160   0.41660   0.10625   0.00000  Uiso   1.00
H504   H     0.77737   0.41265   0.06357   0.00000  Uiso   1.00
H505   H     0.72476   0.41431   0.05732   0.00000  Uiso   1.00
H506   H     0.87334   0.45314   0.42574   0.00000  Uiso   1.00
H507   H     0.70473   0.53253   0.07387   0.00000  Uiso   1.00
H508   H     0.97541   0.49984   0.05481   0.00000  Uiso   1.00
H509   H     0.67361   0.45937   0.05609   0.00000  Uiso   1.00
H510   H     0.67598   0.47726   0.00924   0.00000  Uiso   1.00
H511   H     0.98638   0.50048   0.32453   0.00000  Uiso   1.00
H512   H     0.94828   0.43238   0.33488   0.00000  Uiso   1.00
N513   N     0.70802   0.51866   0.04538   0.00000  Uiso   1.00
N514   N     0.72056   0.58586   0.39132   0.00000  Uiso   1.00
N515   N     0.75376   0.47169   0.07833   0.00000  Uiso   1.00
N516   N     0.96031   0.37818   0.00756   0.00000  Uiso   1.00
N517   N     0.71429   0.53387   0.17213   0.00000  Uiso   1.00
N518   N     0.97895   0.48180   0.30094   0.00000  Uiso   1.00
N519   N     0.88720   0.34086   0.21140   0.00000  Uiso   1.00
N520   N     0.80761   0.55435   0.11206   0.00000  Uiso   1.00
N521   N     0.91529   0.42040   0.10305   0.00000  Uiso   1.00
N522   N     0.94974   0.39971   0.42931   0.00000  Uiso   1.00
N523   N     0.68605   0.58712   0.00628   0.00000  Uiso   1.00
O524   O     0.83333   0.50000   0.25000   0.00000  Uiso   1.00
O525   O     0.82360   0.45726   0.16625   0.00000  Uiso   1.00
O526   O     0.79354   0.53979   0.33749   0.00000  Uiso   1.00
O527   O     0.87755   0.50826   0.15877   0.00000  Uiso   1.00
O528   O     0.83865   0.49468   0.33749   0.00000  Uiso   1.00
O529   O     0.84515   0.41434   0.27820   0.00000  Uiso   1.00
O530   O     0.81247   0.59469   0.26767   0.00000  Uiso   1.00
O531   O     0.74119   0.46584   0.23607   0.00000  Uiso   1.00
O532   O     0.93452   0.52512   0.21806   0.00000  Uiso   1.00
O533   O     0.73656   0.52293   0.27820   0.00000  Uiso   1.00
O534   O     0.92106   0.48610   0.26768   0.00000  Uiso   1.00
O535   O     0.80467   0.40236   0.23607   0.00000  Uiso   1.00
O536   O     0.87104   0.58860   0.21806   0.00000  Uiso   1.00
Zn537  Zn    0.85910   0.47423   0.28277   0.00000  Uiso   1.00
Zn538  Zn    0.80125   0.45711   0.22257   0.00000  Uiso   1.00
Zn539  Zn    0.87833   0.52997   0.21188   0.00000  Uiso   1.00
Zn540  Zn    0.79465   0.53868   0.28277   0.00000  Uiso   1.00
C541   C     0.05276   0.82679   0.25886   0.00000  Uiso   1.00
C542   C     0.19802   0.79199   0.45760   0.00000  Uiso   1.00
C543   C     0.22146   0.77349   0.47647   0.00000  Uiso   1.00
C544   C     0.28107   0.83986   0.24107   0.00000  Uiso   1.00
C545   C     0.21271   0.77956   0.01847   0.00000  Uiso   1.00
C546   C     0.17927   0.80447   0.03991   0.00000  Uiso   1.00
C547   C     0.23563   0.76250   0.04016   0.00000  Uiso   1.00
C548   C     0.22680   0.77234   0.08150   0.00000  Uiso   1.00
C549   C     0.17682   0.81993   0.07973   0.00000  Uiso   1.00
C550   C     0.32696   0.83967   0.23601   0.00000  Uiso   1.00
C551   C     0.00739   0.82513   0.26358   0.00000  Uiso   1.00
C552   C     0.09527   0.87827   0.42380   0.00000  Uiso   1.00
C553   C     0.18291   0.98930   0.23871   0.00000  Uiso   1.00
C554   C     0.15199   0.67872   0.26144   0.00000  Uiso   1.00
C555   C     0.15528   0.72292   0.25948   0.00000  Uiso   1.00
C556   C     0.17732   0.94447   0.24156   0.00000  Uiso   1.00
C557   C     0.18833   0.81195   0.14392   0.00000  Uiso   1.00
C558   C     0.14497   0.85413   0.35654   0.00000  Uiso   1.00
C559   C     0.13138   0.85835   0.40068   0.00000  Uiso   1.00
C560   C     0.19835   0.80203   0.10086   0.00000  Uiso   1.00
C561   C     0.08087   0.87596   0.46513   0.00000  Uiso   1.00
C562   C     0.00662   0.82030   0.04107   0.00000  Uiso   1.00
C563   C     0.15422   0.83936   0.41970   0.00000  Uiso   1.00
C564   C     0.26785   0.73418   0.02174   0.00000  Uiso   1.00
C565   C     0.02370   0.85496   0.20045   0.00000  Uiso   1.00
C566   C     0.30672   0.77129   0.30667   0.00000  Uiso   1.00
C567   C     0.25951   0.67749   0.22345   0.00000  Uiso   1.00
C568   C     0.15672   0.85759   0.09775   0.00000  Uiso   1.00
C569   C     0.22862   0.71310   0.11497   0.00000  Uiso   1.00
C570   C     0.25575   0.75092   0.45053   0.00000  Uiso   1.00
C571   C     0.04662   0.90065   0.48815   0.00000  Uiso   1.00
C572   C     0.07231   0.90103   0.40565   0.00000  Uiso   1.00
C573   C     0.07990   0.75984   0.07606   0.00000  Uiso   1.00
C574   C     0.13948   0.83448   0.46047   0.00000  Uiso   1.00
C575   C     0.10102   0.85146   0.48345   0.00000  Uiso   1.00
C576   C     0.16292   0.81407   0.47903   0.00000  Uiso   1.00
C577   C     0.15020   0.81478   0.02054   0.00000  Uiso   1.00
C578   C     0.10731   0.82204   0.04132   0.00000  Uiso   1.00
C579   C     0.08347   0.84228   0.02353   0.00000  Uiso   1.00
H580   H     0.12291   0.99782   0.28121   0.00000  Uiso   1.00
H581   H     0.00399   0.76149   0.30807   0.00000  Uiso   1.00
H582   H     0.29622   0.75219   0.28206   0.00000  Uiso   1.00
H583   H     0.21716   0.70111   0.20086   0.00000  Uiso   1.00
H584   H     0.28700   0.69142   0.20042   0.00000  Uiso   1.00
H585   H     0.26661   0.97953   0.22718   0.00000  Uiso   1.00
H586   H     0.25613   0.69778   0.25179   0.00000  Uiso   1.00
H587   H     0.25731   0.77320   0.12561   0.00000  Uiso   1.00
H588   H     0.24987   0.69932   0.12789   0.00000  Uiso   1.00
H589   H     0.22369   0.69164   0.08909   0.00000  Uiso   1.00
H590   H     0.19711   0.71601   0.13751   0.00000  Uiso   1.00
H591   H     0.18404   0.82867   0.40160   0.00000  Uiso   1.00
H592   H     0.06140   0.81896   0.09715   0.00000  Uiso   1.00
H593   H     0.06493   0.74993   0.10625   0.00000  Uiso   1.00
H594   H     0.11070   0.74599   0.06357   0.00000  Uiso   1.00
H595   H     0.05809   0.74764   0.05732   0.00000  Uiso   1.00
H596   H     0.20667   0.78647   0.42574   0.00000  Uiso   1.00
H597   H     0.03806   0.86587   0.07387   0.00000  Uiso   1.00
H598   H     0.30875   0.83317   0.05481   0.00000  Uiso   1.00
H599   H     0.00695   0.79270   0.05609   0.00000  Uiso   1.00
H600   H     0.00931   0.81060   0.00924   0.00000  Uiso   1.00
H601   H     0.31971   0.83381   0.32453   0.00000  Uiso   1.00
H602   H     0.28162   0.76572   0.33488   0.00000  Uiso   1.00
N603   N     0.04135   0.85200   0.04538   0.00000  Uiso   1.00
N604   N     0.05389   0.91919   0.39132   0.00000  Uiso   1.00
N605   N     0.08710   0.80503   0.07833   0.00000  Uiso   1.00
N606   N     0.29365   0.71151   0.00756   0.00000  Uiso   1.00
N607   N     0.04763   0.86721   0.17213   0.00000  Uiso   1.00
N608   N     0.31229   0.81513   0.30094   0.00000  Uiso   1.00
N609   N     0.22053   0.67420   0.21140   0.00000  Uiso   1.00
N610   N     0.14094   0.88769   0.11206   0.00000  Uiso   1.00
N611   N     0.24863   0.75373   0.10305   0.00000  Uiso   1.00
N612   N     0.28307   0.73305   0.42931   0.00000  Uiso   1.00
N613   N     0.01938   0.92045   0.00628   0.00000  Uiso   1.00
O614   O     0.16667   0.83333   0.25000   0.00000  Uiso   1.00
O615   O     0.15693   0.79060   0.16625   0.00000  Uiso   1.00
O616   O     0.12687   0.87313   0.33749   0.00000  Uiso   1.00
O617   O     0.21088   0.84159   0.15877   0.00000  Uiso   1.00
O618   O     0.17198   0.82802   0.33749   0.00000  Uiso   1.00
O619   O     0.17849   0.74768   0.27820   0.00000  Uiso   1.00
O620   O     0.14581   0.92803   0.26767   0.00000  Uiso   1.00
O621   O     0.07452   0.79917   0.23607   0.00000  Uiso   1.00
O622   O     0.26785   0.85845   0.21806   0.00000  Uiso   1.00
O623   O     0.06990   0.85627   0.27820   0.00000  Uiso   1.00
O624   O     0.25440   0.81944   0.26768   0.00000  Uiso   1.00
O625   O     0.13800   0.73570   0.23607   0.00000  Uiso   1.00
O626   O     0.20437   0.92193   0.21806   0.00000  Uiso   1.00
Zn627  Zn    0.19244   0.80756   0.28277   0.00000  Uiso   1.00
Zn628  Zn    0.13459   0.79044   0.22257   0.00000  Uiso   1.00
Zn629  Zn    0.21166   0.86331   0.21188   0.00000  Uiso   1.00
Zn630  Zn    0.12798   0.87202   0.28277   0.00000  Uiso   1.00
C631   C     0.38610   0.82679   0.25886   0.00000  Uiso   1.00
C632   C     0.53135   0.79199   0.45760   0.00000  Uiso   1.00
C633   C     0.55480   0.77349   0.47647   0.00000  Uiso   1.00
C634   C     0.61440   0.83986   0.24107   0.00000  Uiso   1.00
C635   C     0.54604   0.77956   0.01847   0.00000  Uiso   1.00
C636   C     0.51260   0.80447   0.03991   0.00000  Uiso   1.00
C637   C     0.56897   0.76250   0.04016   0.00000  Uiso   1.00
C638   C     0.56013   0.77234   0.08150   0.00000  Uiso   1.00
C639   C     0.51016   0.81993   0.07973   0.00000  Uiso   1.00
C640   C     0.66030   0.83967   0.23601   0.00000  Uiso   1.00
C641   C     0.34073   0.82513   0.26358   0.00000  Uiso   1.00
C642   C     0.42860   0.87827   0.42380   0.00000  Uiso   1.00
C643   C     0.51624   0.98930   0.23871   0.00000  Uiso   1.00
C644   C     0.48533   0.67872   0.26144   0.00000  Uiso   1.00
C645   C     0.48862   0.72292   0.25948   0.00000  Uiso   1.00
C646   C     0.51065   0.94447   0.24156   0.00000  Uiso   1.00
C647   C     0.52166   0.81195   0.14392   0.00000  Uiso   1.00
C648   C     0.47830   0.85413   0.35654   0.00000  Uiso   1.00
C649   C     0.46471   0.85835   0.40068   0.00000  Uiso   1.00
C650   C     0.53168   0.80203   0.10086   0.00000  Uiso   1.00
C651   C     0.41421   0.87596   0.46513   0.00000  Uiso   1.00
C652   C     0.33996   0.82030   0.04107   0.00000  Uiso   1.00
C653   C     0.48755   0.83936   0.41970   0.00000  Uiso   1.00
C654   C     0.60118   0.73418   0.02174   0.00000  Uiso   1.00
C655   C     0.35703   0.85496   0.20045   0.00000  Uiso   1.00
C656   C     0.64005   0.77129   0.30667   0.00000  Uiso   1.00
C657   C     0.59284   0.67749   0.22345   0.00000  Uiso   1.00
C658   C     0.49006   0.85759   0.09775   0.00000  Uiso   1.00
C659   C     0.56195   0.71310   0.11497   0.00000  Uiso   1.00
C660   C     0.58908   0.75092   0.45053   0.00000  Uiso   1.00
C661   C     0.37995   0.90065   0.48815   0.00000  Uiso   1.00
C662   C     0.40564   0.90103   0.40565   0.00000  Uiso   1.00
C663   C     0.41324   0.75984   0.07606   0.00000  Uiso   1.00
C664   C     0.47282   0.83448   0.46047   0.00000  Uiso   1.00
C665   C     0.43435   0.85146   0.48345   0.00000  Uiso   1.00
C666   C     0.49626   0.81407   0.47903   0.00000  Uiso   1.00
C667   C     0.48354   0.81478   0.02054   0.00000  Uiso   1.00
C668   C     0.44064   0.82204   0.04132   0.00000  Uiso   1.00
C669   C     0.41680   0.84228   0.02353   0.00000  Uiso   1.00
H670   H     0.45624   0.99782   0.28121   0.00000  Uiso   1.00
H671   H     0.33732   0.76149   0.30807   0.00000  Uiso   1.00
H672   H     0.62955   0.75219   0.28206   0.00000  Uiso   1.00
H673   H     0.55049   0.70111   0.20086   0.00000  Uiso   1.00
H674   H     0.62034   0.69142   0.20042   0.00000  Uiso   1.00
H675   H     0.59994   0.97953   0.22718   0.00000  Uiso   1.00
H676   H     0.58946   0.69778   0.25179   0.00000  Uiso   1.00
H677   H     0.59065   0.77320   0.12561   0.00000  Uiso   1.00
H678   H     0.58320   0.69932   0.12789   0.00000  Uiso   1.00
H679   H     0.55703   0.69164   0.08909   0.00000  Uiso   1.00
H680   H     0.53045   0.71601   0.13751   0.00000  Uiso   1.00
H681   H     0.51738   0.82867   0.40160   0.00000  Uiso   1.00
H682   H     0.39473   0.81896   0.09715   0.00000  Uiso   1.00
H683   H     0.39827   0.74993   0.10625   0.00000  Uiso   1.00
H684   H     0.44404   0.74599   0.06357   0.00000  Uiso   1.00
H685   H     0.39142   0.74764   0.05732   0.00000  Uiso   1.00
H686   H     0.54000   0.78647   0.42574   0.00000  Uiso   1.00
H687   H     0.37139   0.86587   0.07387   0.00000  Uiso   1.00
H688   H     0.64208   0.83317   0.05481   0.00000  Uiso   1.00
H689   H     0.34028   0.79270   0.05609   0.00000  Uiso   1.00
H690   H     0.34264   0.81060   0.00924   0.00000  Uiso   1.00
H691   H     0.65305   0.83381   0.32453   0.00000  Uiso   1.00
H692   H     0.61495   0.76572   0.33488   0.00000  Uiso   1.00
N693   N     0.37469   0.85200   0.04538   0.00000  Uiso   1.00
N694   N     0.38723   0.91919   0.39132   0.00000  Uiso   1.00
N695   N     0.42043   0.80503   0.07833   0.00000  Uiso   1.00
N696   N     0.62698   0.71151   0.00756   0.00000  Uiso   1.00
N697   N     0.38096   0.86721   0.17213   0.00000  Uiso   1.00
N698   N     0.64562   0.81513   0.30094   0.00000  Uiso   1.00
N699   N     0.55386   0.67420   0.21140   0.00000  Uiso   1.00
N700   N     0.47427   0.88769   0.11206   0.00000  Uiso   1.00
N701   N     0.58196   0.75373   0.10305   0.00000  Uiso   1.00
N702   N     0.61640   0.73305   0.42931   0.00000  Uiso   1.00
N703   N     0.35272   0.92045   0.00628   0.00000  Uiso   1.00
O704   O     0.50000   0.83333   0.25000   0.00000  Uiso   1.00
O705   O     0.49027   0.79060   0.16625   0.00000  Uiso   1.00
O706   O     0.46020   0.87313   0.33749   0.00000  Uiso   1.00
O707   O     0.54421   0.84159   0.15877   0.00000  Uiso   1.00
O708   O     0.50532   0.82802   0.33749   0.00000  Uiso   1.00
O709   O     0.51182   0.74768   0.27820   0.00000  Uiso   1.00
O710   O     0.47914   0.92803   0.26767   0.00000  Uiso   1.00
O711   O     0.40785   0.79917   0.23607   0.00000  Uiso   1.00
O712   O     0.60119   0.85845   0.21806   0.00000  Uiso   1.00
O713   O     0.40323   0.85627   0.27820   0.00000  Uiso   1.00
O714   O     0.58773   0.81944   0.26768   0.00000  Uiso   1.00
O715   O     0.47133   0.73570   0.23607   0.00000  Uiso   1.00
O716   O     0.53771   0.92193   0.21806   0.00000  Uiso   1.00
Zn717  Zn    0.52577   0.80756   0.28277   0.00000  Uiso   1.00
Zn718  Zn    0.46792   0.79044   0.22257   0.00000  Uiso   1.00
Zn719  Zn    0.54500   0.86331   0.21188   0.00000  Uiso   1.00
Zn720  Zn    0.46131   0.87202   0.28277   0.00000  Uiso   1.00
C721   C     0.71943   0.82679   0.25886   0.00000  Uiso   1.00
C722   C     0.86468   0.79199   0.45760   0.00000  Uiso   1.00
C723   C     0.88813   0.77349   0.47647   0.00000  Uiso   1.00
C724   C     0.94773   0.83986   0.24107   0.00000  Uiso   1.00
C725   C     0.87937   0.77956   0.01847   0.00000  Uiso   1.00
C726   C     0.84593   0.80447   0.03991   0.00000  Uiso   1.00
C727   C     0.90230   0.76250   0.04016   0.00000  Uiso   1.00
C728   C     0.89346   0.77234   0.08150   0.00000  Uiso   1.00
C729   C     0.84349   0.81993   0.07973   0.00000  Uiso   1.00
C730   C     0.99363   0.83967   0.23601   0.00000  Uiso   1.00
C731   C     0.67406   0.82513   0.26358   0.00000  Uiso   1.00
C732   C     0.76193   0.87827   0.42380   0.00000  Uiso   1.00
C733   C     0.84957   0.98930   0.23871   0.00000  Uiso   1.00
C734   C     0.81866   0.67872   0.26144   0.00000  Uiso   1.00
C735   C     0.82195   0.72292   0.25948   0.00000  Uiso   1.00
C736   C     0.84399   0.94447   0.24156   0.00000  Uiso   1.00
C737   C     0.85499   0.81195   0.14392   0.00000  Uiso   1.00
C738   C     0.81164   0.85413   0.35654   0.00000  Uiso   1.00
C739   C     0.79804   0.85835   0.40068   0.00000  Uiso   1.00
C740   C     0.86502   0.80203   0.10086   0.00000  Uiso   1.00
C741   C     0.74754   0.87596   0.46513   0.00000  Uiso   1.00
C742   C     0.67329   0.82030   0.04107   0.00000  Uiso   1.00
C743   C     0.82088   0.83936   0.41970   0.00000  Uiso   1.00
C744   C     0.93451   0.73418   0.02174   0.00000  Uiso   1.00
C745   C     0.69036   0.85496   0.20045   0.00000  Uiso   1.00
C746   C     0.97338   0.77129   0.30667   0.00000  Uiso   1.00
C747   C     0.92618   0.67749   0.22345   0.00000  Uiso   1.00
C748   C     0.82339   0.85759   0.09775   0.00000  Uiso   1.00
C749   C     0.89529   0.71310   0.11497   0.00000  Uiso   1.00
C750   C     0.92241   0.75092   0.45053   0.00000  Uiso   1.00
C751   C     0.71329   0.90065   0.48815   0.00000  Uiso   1.00
C752   C     0.73897   0.90103   0.40565   0.00000  Uiso   1.00
C753   C     0.74657   0.75984   0.07606   0.00000  Uiso   1.00
C754   C     0.80615   0.83448   0.46047   0.00000  Uiso   1.00
C755   C     0.76769   0.85146   0.48345   0.00000  Uiso   1.00
C756   C     0.82959   0.81407   0.47903   0.00000  Uiso   1.00
C757   C     0.81687   0.81478   0.02054   0.00000  Uiso   1.00
C758   C     0.77397   0.82204   0.04132   0.00000  Uiso   1.00
C759   C     0.75013   0.84228   0.02353   0.00000  Uiso   1.00
H760   H     0.78958   0.99782   0.28121   0.00000  Uiso   1.00
H761   H     0.67066   0.76149   0.30807   0.00000  Uiso   1.00
H762   H     0.96289   0.75219   0.28206   0.00000  Uiso   1.00
H763   H     0.88383   0.70111   0.20086   0.00000  Uiso   1.00
H764   H     0.95367   0.69142   0.20042   0.00000  Uiso   1.00
H765   H     0.93328   0.97953   0.22718   0.00000  Uiso   1.00
H766   H     0.92279   0.69778   0.25179   0.00000  Uiso   1.00
H767   H     0.92398   0.77320   0.12561   0.00000  Uiso   1.00
H768   H     0.91654   0.69932   0.12789   0.00000  Uiso   1.00
H769   H     0.89036   0.69164   0.08909   0.00000  Uiso   1.00
H770   H     0.86378   0.71601   0.13751   0.00000  Uiso   1.00
H771   H     0.85071   0.82867   0.40160   0.00000  Uiso   1.00
H772   H     0.72807   0.81896   0.09715   0.00000  Uiso   1.00
H773   H     0.73160   0.74993   0.10625   0.00000  Uiso   1.00
H774   H     0.77737   0.74599   0.06357   0.00000  Uiso   1.00
H775   H     0.72476   0.74764   0.05732   0.00000  Uiso   1.00
H776   H     0.87334   0.78647   0.42574   0.00000  Uiso   1.00
H777   H     0.70473   0.86587   0.07387   0.00000  Uiso   1.00
H778   H     0.97541   0.83317   0.05481   0.00000  Uiso   1.00
H779   H     0.67361   0.79270   0.05609   0.00000  Uiso   1.00
H780   H     0.67598   0.81060   0.00924   0.00000  Uiso   1.00
H781   H     0.98638   0.83381   0.32453   0.00000  Uiso   1.00
H782   H     0.94828   0.76572   0.33488   0.00000  Uiso   1.00
N783   N     0.70802   0.85200   0.04538   0.00000  Uiso   1.00
N784   N     0.72056   0.91919   0.39132   0.00000  Uiso   1.00
N785   N     0.75376   0.80503   0.07833   0.00000  Uiso   1.00
N786   N     0.96031   0.71151   0.00756   0.00000  Uiso   1.00
N787   N     0.71429   0.86721   0.17213   0.00000  Uiso   1.00
N788   N     0.97895   0.81513   0.30094   0.00000  Uiso   1.00
N789   N     0.88720   0.67420   0.21140   0.00000  Uiso   1.00
N790   N     0.80761   0.88769   0.11206   0.00000  Uiso   1.00
N791   N     0.91529   0.75373   0.10305   0.00000  Uiso   1.00
N792   N     0.94974   0.73305   0.42931   0.00000  Uiso   1.00
N793   N     0.68605   0.92045   0.00628   0.00000  Uiso   1.00
O794   O     0.83333   0.83333   0.25000   0.00000  Uiso   1.00
O795   O     0.82360   0.79060   0.16625   0.00000  Uiso   1.00
O796   O     0.79354   0.87313   0.33749   0.00000  Uiso   1.00
O797   O     0.87755   0.84159   0.15877   0.00000  Uiso   1.00
O798   O     0.83865   0.82802   0.33749   0.00000  Uiso   1.00
O799   O     0.84515   0.74768   0.27820   0.00000  Uiso   1.00
O800   O     0.81247   0.92803   0.26767   0.00000  Uiso   1.00
O801   O     0.74119   0.79917   0.23607   0.00000  Uiso   1.00
O802   O     0.93452   0.85845   0.21806   0.00000  Uiso   1.00
O803   O     0.73656   0.85627   0.27820   0.00000  Uiso   1.00
O804   O     0.92106   0.81944   0.26768   0.00000  Uiso   1.00
O805   O     0.80467   0.73570   0.23607   0.00000  Uiso   1.00
O806   O     0.87104   0.92193   0.21806   0.00000  Uiso   1.00
Zn807  Zn    0.85910   0.80756   0.28277   0.00000  Uiso   1.00
Zn808  Zn    0.80125   0.79044   0.22257   0.00000  Uiso   1.00
Zn809  Zn    0.87833   0.86331   0.21188   0.00000  Uiso   1.00
Zn810  Zn    0.79465   0.87202   0.28277   0.00000  Uiso   1.00
C811   C     0.05276   0.16012   0.75886   0.00000  Uiso   1.00
C812   C     0.19802   0.12532   0.95760   0.00000  Uiso   1.00
C813   C     0.22146   0.10683   0.97647   0.00000  Uiso   1.00
C814   C     0.28107   0.17319   0.74107   0.00000  Uiso   1.00
C815   C     0.21271   0.11290   0.51847   0.00000  Uiso   1.00
C816   C     0.17927   0.13780   0.53991   0.00000  Uiso   1.00
C817   C     0.23563   0.09583   0.54016   0.00000  Uiso   1.00
C818   C     0.22680   0.10567   0.58150   0.00000  Uiso   1.00
C819   C     0.17682   0.15327   0.57973   0.00000  Uiso   1.00
C820   C     0.32696   0.17300   0.73601   0.00000  Uiso   1.00
C821   C     0.00739   0.15846   0.76358   0.00000  Uiso   1.00
C822   C     0.09527   0.21161   0.92380   0.00000  Uiso   1.00
C823   C     0.18291   0.32263   0.73871   0.00000  Uiso   1.00
C824   C     0.15199   0.01205   0.76144   0.00000  Uiso   1.00
C825   C     0.15528   0.05626   0.75948   0.00000  Uiso   1.00
C826   C     0.17732   0.27780   0.74156   0.00000  Uiso   1.00
C827   C     0.18833   0.14528   0.64392   0.00000  Uiso   1.00
C828   C     0.14497   0.18746   0.85654   0.00000  Uiso   1.00
C829   C     0.13138   0.19169   0.90068   0.00000  Uiso   1.00
C830   C     0.19835   0.13536   0.60086   0.00000  Uiso   1.00
C831   C     0.08087   0.20929   0.96513   0.00000  Uiso   1.00
C832   C     0.00662   0.15364   0.54107   0.00000  Uiso   1.00
C833   C     0.15422   0.17269   0.91970   0.00000  Uiso   1.00
C834   C     0.26785   0.06752   0.52174   0.00000  Uiso   1.00
C835   C     0.02370   0.18829   0.70045   0.00000  Uiso   1.00
C836   C     0.30672   0.10463   0.80667   0.00000  Uiso   1.00
C837   C     0.25951   0.01083   0.72345   0.00000  Uiso   1.00
C838   C     0.15672   0.19093   0.59775   0.00000  Uiso   1.00
C839   C     0.22862   0.04643   0.61497   0.00000  Uiso   1.00
C840   C     0.25575   0.08426   0.95053   0.00000  Uiso   1.00
C841   C     0.04662   0.23398   0.98815   0.00000  Uiso   1.00
C842   C     0.07231   0.23436   0.90565   0.00000  Uiso   1.00
C843   C     0.07990   0.09318   0.57606   0.00000  Uiso   1.00
C844   C     0.13948   0.16781   0.96047   0.00000  Uiso   1.00
C845   C     0.10102   0.18480   0.98345   0.00000  Uiso   1.00
C846   C     0.16292   0.14740   0.97903   0.00000  Uiso   1.00
C847   C     0.15020   0.14811   0.52054   0.00000  Uiso   1.00
C848   C     0.10731   0.15537   0.54132   0.00000  Uiso   1.00
C849   C     0.08347   0.17562   0.52353   0.00000  Uiso   1.00
H850   H     0.12291   0.33115   0.78121   0.00000  Uiso   1.00
H851   H     0.00399   0.09482   0.80807   0.00000  Uiso   1.00
H852   H     0.29622   0.08552   0.78206   0.00000  Uiso   1.00
H853   H     0.21716   0.03444   0.70086   0.00000  Uiso   1.00
H854   H     0.28700   0.02476   0.70042   0.00000  Uiso   1.00
H855   H     0.26661   0.31287   0.72718   0.00000  Uiso   1.00
H856   H     0.25613   0.03111   0.75179   0.00000  Uiso   1.00
H857   H     0.25731   0.10654   0.62561   0.00000  Uiso   1.00
H858   H     0.24987   0.03265   0.62789   0.00000  Uiso   1.00
H859   H     0.22369   0.02497   0.58909   0.00000  Uiso   1.00
H860   H     0.19711   0.04934   0.63751   0.00000  Uiso   1.00
H861   H     0.18404   0.16200   0.90160   0.00000  Uiso   1.00
H862   H     0.06140   0.15230   0.59715   0.00000  Uiso   1.00
H863   H     0.06493   0.08326   0.60625   0.00000  Uiso   1.00
H864   H     0.11070   0.07932   0.56357   0.00000  Uiso   1.00
H865   H     0.05809   0.08097   0.55732   0.00000  Uiso   1.00
H866   H     0.20667   0.11981   0.92574   0.00000  Uiso   1.00
H867   H     0.03806   0.19920   0.57387   0.00000  Uiso   1.00
H868   H     0.30875   0.16651   0.55481   0.00000  Uiso   1.00
H869   H     0.00695   0.12604   0.55609   0.00000  Uiso   1.00
H870   H     0.00931   0.14393   0.50924   0.00000  Uiso   1.00
H871   H     0.31971   0.16714   0.82453   0.00000  Uiso   1.00
H872   H     0.28162   0.09905   0.83488   0.00000  Uiso   1.00
N873   N     0.04135   0.18533   0.54538   0.00000  Uiso   1.00
N874   N     0.05389   0.25253   0.89132   0.00000  Uiso   1.00
N875   N     0.08710   0.13836   0.57833   0.00000  Uiso   1.00
N876   N     0.29365   0.04485   0.50756   0.00000  Uiso   1.00
N877   N     0.04763   0.20054   0.67213   0.00000  Uiso   1.00
N878   N     0.31229   0.14847   0.80094   0.00000  Uiso   1.00
N879   N     0.22053   0.00753   0.71140   0.00000  Uiso   1.00
N880   N     0.14094   0.22102   0.61206   0.00000  Uiso   1.00
N881   N     0.24863   0.08707   0.60305   0.00000  Uiso   1.00
N882   N     0.28307   0.06638   0.92931   0.00000  Uiso   1.00
N883   N     0.01938   0.25379   0.50628   0.00000  Uiso   1.00
O884   O     0.16667   0.16667   0.75000   0.00000  Uiso   1.00
O885   O     0.15693   0.12393   0.66625   0.00000  Uiso   1.00
O886   O     0.12687   0.20646   0.83749   0.00000  Uiso   1.00
O887   O     0.21088   0.17493   0.65877   0.00000  Uiso   1.00
O888   O     0.17198   0.16135   0.83749   0.00000  Uiso   1.00
O889   O     0.17849   0.08101   0.77820   0.00000  Uiso   1.00
O890   O     0.14581   0.26136   0.76767   0.00000  Uiso   1.00
O891   O     0.07452   0.13251   0.73607   0.00000  Uiso   1.00
O892   O     0.26785   0.19179   0.71806   0.00000  Uiso   1.00
O893   O     0.06990   0.18960   0.77820   0.00000  Uiso   1.00
O894   O     0.25440   0.15277   0.76768   0.00000  Uiso   1.00
O895   O     0.13800   0.06903   0.73607   0.00000  Uiso   1.00
O896   O     0.20437   0.25527   0.71806   0.00000  Uiso   1.00
Zn897  Zn    0.19244   0.14090   0.78277   0.00000  Uiso   1.00
Zn898  Zn    0.13459   0.12378   0.72257   0.00000  Uiso   1.00
Zn899  Zn    0.21166   0.19664   0.71188   0.00000  Uiso   1.00
Zn900  Zn    0.12798   0.20535   0.78277   0.00000  Uiso   1.00
C901   C     0.38610   0.16012   0.75886   0.00000  Uiso   1.00
C902   C     0.53135   0.12532   0.95760   0.00000  Uiso   1.00
C903   C     0.55480   0.10683   0.97647   0.00000  Uiso   1.00
C904   C     0.61440   0.17319   0.74107   0.00000  Uiso   1.00
C905   C     0.54604   0.11290   0.51847   0.00000  Uiso   1.00
C906   C     0.51260   0.13780   0.53991   0.00000  Uiso   1.00
C907   C     0.56897   0.09583   0.54016   0.00000  Uiso   1.00
C908   C     0.56013   0.10567   0.58150   0.00000  Uiso   1.00
C909   C     0.51016   0.15327   0.57973   0.00000  Uiso   1.00
C910   C     0.66030   0.17300   0.73601   0.00000  Uiso   1.00
C911   C     0.34073   0.15846   0.76358   0.00000  Uiso   1.00
C912   C     0.42860   0.21161   0.92380   0.00000  Uiso   1.00
C913   C     0.51624   0.32263   0.73871   0.00000  Uiso   1.00
C914   C     0.48533   0.01205   0.76144   0.00000  Uiso   1.00
C915   C     0.48862   0.05626   0.75948   0.00000  Uiso   1.00
C916   C     0.51065   0.27780   0.74156   0.00000  Uiso   1.00
C917   C     0.52166   0.14528   0.64392   0.00000  Uiso   1.00
C918   C     0.47830   0.18746   0.85654   0.00000  Uiso   1.00
C919   C     0.46471   0.19169   0.90068   0.00000  Uiso   1.00
C920   C     0.53168   0.13536   0.60086   0.00000  Uiso   1.00
C921   C     0.41421   0.20929   0.96513   0.00000  Uiso   1.00
C922   C     0.33996   0.15364   0.54107   0.00000  Uiso   1.00
C923   C     0.48755   0.17269   0.91970   0.00000  Uiso   1.00
C924   C     0.60118   0.06752   0.52174   0.00000  Uiso   1.00
C925   C     0.35703   0.18829   0.70045   0.00000  Uiso   1.00
C926   C     0.64005   0.10463   0.80667   0.00000  Uiso   1.00
C927   C     0.59284   0.01083   0.72345   0.00000  Uiso   1.00
C928   C     0.49006   0.19093   0.59775   0.00000  Uiso   1.00
C929   C     0.56195   0.04643   0.61497   0.00000  Uiso   1.00
C930   C     0.58908   0.08426   0.95053   0.00000  Uiso   1.00
C931   C     0.37995   0.23398   0.98815   0.00000  Uiso   1.00
C932   C     0.40564   0.23436   0.90565   0.00000  Uiso   1.00
C933   C     0.41324   0.09318   0.57606   0.00000  Uiso   1.00
C934   C     0.47282   0.16781   0.96047   0.00000  Uiso   1.00
C935   C     0.43435   0.18480   0.98345   0.00000  Uiso   1.00
C936   C     0.49626   0.14740   0.97903   0.00000  Uiso   1.00
C937   C     0.48354   0.14811   0.52054   0.00000  Uiso   1.00
C938   C     0.44064   0.15537   0.54132   0.00000  Uiso   1.00
C939   C     0.41680   0.17562   0.52353   0.00000  Uiso   1.00
H940   H     0.45624   0.33115   0.78121   0.00000  Uiso   1.00
H941   H     0.33732   0.09482   0.80807   0.00000  Uiso   1.00
H942   H     0.62955   0.08552   0.78206   0.00000  Uiso   1.00
H943   H     0.55049   0.03444   0.70086   0.00000  Uiso   1.00
H944   H     0.62034   0.02476   0.70042   0.00000  Uiso   1.00
H945   H     0.59994   0.31287   0.72718   0.00000  Uiso   1.00
H946   H     0.58946   0.03111   0.75179   0.00000  Uiso   1.00
H947   H     0.59065   0.10654   0.62561   0.00000  Uiso   1.00
H948   H     0.58320   0.03265   0.62789   0.00000  Uiso   1.00
H949   H     0.55703   0.02497   0.58909   0.00000  Uiso   1.00
H950   H     0.53045   0.04934   0.63751   0.00000  Uiso   1.00
H951   H     0.51738   0.16200   0.90160   0.00000  Uiso   1.00
H952   H     0.39473   0.15230   0.59715   0.00000  Uiso   1.00
H953   H     0.39827   0.08326   0.60625   0.00000  Uiso   1.00
H954   H     0.44404   0.07932   0.56357   0.00000  Uiso   1.00
H955   H     0.39142   0.08097   0.55732   0.00000  Uiso   1.00
H956   H     0.54000   0.11981   0.92574   0.00000  Uiso   1.00
H957   H     0.37139   0.19920   0.57387   0.00000  Uiso   1.00
H958   H     0.64208   0.16651   0.55481   0.00000  Uiso   1.00
H959   H     0.34028   0.12604   0.55609   0.00000  Uiso   1.00
H960   H     0.34264   0.14393   0.50924   0.00000  Uiso   1.00
H961   H     0.65305   0.16714   0.82453   0.00000  Uiso   1.00
H962   H     0.61495   0.09905   0.83488   0.00000  Uiso   1.00
N963   N     0.37469   0.18533   0.54538   0.00000  Uiso   1.00
N964   N     0.38723   0.25253   0.89132   0.00000  Uiso   1.00
N965   N     0.42043   0.13836   0.57833   0.00000  Uiso   1.00
N966   N     0.62698   0.04485   0.50756   0.00000  Uiso   1.00
N967   N     0.38096   0.20054   0.67213   0.00000  Uiso   1.00
N968   N     0.64562   0.14847   0.80094   0.00000  Uiso   1.00
N969   N     0.55386   0.00753   0.71140   0.00000  Uiso   1.00
N970   N     0.47427   0.22102   0.61206   0.00000  Uiso   1.00
N971   N     0.58196   0.08707   0.60305   0.00000  Uiso   1.00
N972   N     0.61640   0.06638   0.92931   0.00000  Uiso   1.00
N973   N     0.35272   0.25379   0.50628   0.00000  Uiso   1.00
O974   O     0.50000   0.16667   0.75000   0.00000  Uiso   1.00
O975   O     0.49027   0.12393   0.66625   0.00000  Uiso   1.00
O976   O     0.46020   0.20646   0.83749   0.00000  Uiso   1.00
O977   O     0.54421   0.17493   0.65877   0.00000  Uiso   1.00
O978   O     0.50532   0.16135   0.83749   0.00000  Uiso   1.00
O979   O     0.51182   0.08101   0.77820   0.00000  Uiso   1.00
O980   O     0.47914   0.26136   0.76767   0.00000  Uiso   1.00
O981   O     0.40785   0.13251   0.73607   0.00000  Uiso   1.00
O982   O     0.60119   0.19179   0.71806   0.00000  Uiso   1.00
O983   O     0.40323   0.18960   0.77820   0.00000  Uiso   1.00
O984   O     0.58773   0.15277   0.76768   0.00000  Uiso   1.00
O985   O     0.47133   0.06903   0.73607   0.00000  Uiso   1.00
O986   O     0.53771   0.25527   0.71806   0.00000  Uiso   1.00
Zn987  Zn    0.52577   0.14090   0.78277   0.00000  Uiso   1.00
Zn988  Zn    0.46792   0.12378   0.72257   0.00000  Uiso   1.00
Zn989  Zn    0.54500   0.19664   0.71188   0.00000  Uiso   1.00
Zn990  Zn    0.46131   0.20535   0.78277   0.00000  Uiso   1.00
C991   C     0.71943   0.16012   0.75886   0.00000  Uiso   1.00
C992   C     0.86468   0.12532   0.95760   0.00000  Uiso   1.00
C993   C     0.88813   0.10683   0.97647   0.00000  Uiso   1.00
C994   C     0.94773   0.17319   0.74107   0.00000  Uiso   1.00
C995   C     0.87937   0.11290   0.51847   0.00000  Uiso   1.00
C996   C     0.84593   0.13780   0.53991   0.00000  Uiso   1.00
C997   C     0.90230   0.09583   0.54016   0.00000  Uiso   1.00
C998   C     0.89346   0.10567   0.58150   0.00000  Uiso   1.00
C999   C     0.84349   0.15327   0.57973   0.00000  Uiso   1.00
C1000  C     0.99363   0.17300   0.73601   0.00000  Uiso   1.00
C1001  C     0.67406   0.15846   0.76358   0.00000  Uiso   1.00
C1002  C     0.76193   0.21161   0.92380   0.00000  Uiso   1.00
C1003  C     0.84957   0.32263   0.73871   0.00000  Uiso   1.00
C1004  C     0.81866   0.01205   0.76144   0.00000  Uiso   1.00
C1005  C     0.82195   0.05626   0.75948   0.00000  Uiso   1.00
C1006  C     0.84399   0.27780   0.74156   0.00000  Uiso   1.00
C1007  C     0.85499   0.14528   0.64392   0.00000  Uiso   1.00
C1008  C     0.81164   0.18746   0.85654   0.00000  Uiso   1.00
C1009  C     0.79804   0.19169   0.90068   0.00000  Uiso   1.00
C1010  C     0.86502   0.13536   0.60086   0.00000  Uiso   1.00
C1011  C     0.74754   0.20929   0.96513   0.00000  Uiso   1.00
C1012  C     0.67329   0.15364   0.54107   0.00000  Uiso   1.00
C1013  C     0.82088   0.17269   0.91970   0.00000  Uiso   1.00
C1014  C     0.93451   0.06752   0.52174   0.00000  Uiso   1.00
C1015  C     0.69036   0.18829   0.70045   0.00000  Uiso   1.00
C1016  C     0.97338   0.10463   0.80667   0.00000  Uiso   1.00
C1017  C     0.92618   0.01083   0.72345   0.00000  Uiso   1.00
C1018  C     0.82339   0.19093   0.59775   0.00000  Uiso   1.00
C1019  C     0.89529   0.04643   0.61497   0.00000  Uiso   1.00
C1020  C     0.92241   0.08426   0.95053   0.00000  Uiso   1.00
C1021  C     0.71329   0.23398   0.98815   0.00000  Uiso   1.00
C1022  C     0.73897   0.23436   0.90565   0.00000  Uiso   1.00
C1023  C     0.74657   0.09318   0.57606   0.00000  Uiso   1.00
C1024  C     0.80615   0.16781   0.96047   0.00000  Uiso   1.00
C1025  C     0.76769   0.18480   0.98345   0.00000  Uiso   1.00
C1026  C     0.82959   0.14740   0.97903   0.00000  Uiso   1.00
C1027  C     0.81687   0.14811   0.52054   0.00000  Uiso   1.00
C1028  C     0.77397   0.15537   0.54132   0.00000  Uiso   1.00
C1029  C     0.75013   0.17562   0.52353   0.00000  Uiso   1.00
H1030  H     0.78958   0.33115   0.78121   0.00000  Uiso   1.00
H1031  H     0.67066   0.09482   0.80807   0.00000  Uiso   1.00
H1032  H     0.96289   0.08552   0.78206   0.00000  Uiso   1.00
H1033  H     0.88383   0.03444   0.70086   0.00000  Uiso   1.00
H1034  H     0.95367   0.02476   0.70042   0.00000  Uiso   1.00
H1035  H     0.93328   0.31287   0.72718   0.00000  Uiso   1.00
H1036  H     0.92279   0.03111   0.75179   0.00000  Uiso   1.00
H1037  H     0.92398   0.10654   0.62561   0.00000  Uiso   1.00
H1038  H     0.91654   0.03265   0.62789   0.00000  Uiso   1.00
H1039  H     0.89036   0.02497   0.58909   0.00000  Uiso   1.00
H1040  H     0.86378   0.04934   0.63751   0.00000  Uiso   1.00
H1041  H     0.85071   0.16200   0.90160   0.00000  Uiso   1.00
H1042  H     0.72807   0.15230   0.59715   0.00000  Uiso   1.00
H1043  H     0.73160   0.08326   0.60625   0.00000  Uiso   1.00
H1044  H     0.77737   0.07932   0.56357   0.00000  Uiso   1.00
H1045  H     0.72476   0.08097   0.55732   0.00000  Uiso   1.00
H1046  H     0.87334   0.11981   0.92574   0.00000  Uiso   1.00
H1047  H     0.70473   0.19920   0.57387   0.00000  Uiso   1.00
H1048  H     0.97541   0.16651   0.55481   0.00000  Uiso   1.00
H1049  H     0.67361   0.12604   0.55609   0.00000  Uiso   1.00
H1050  H     0.67598   0.14393   0.50924   0.00000  Uiso   1.00
H1051  H     0.98638   0.16714   0.82453   0.00000  Uiso   1.00
H1052  H     0.94828   0.09905   0.83488   0.00000  Uiso   1.00
N1053  N     0.70802   0.18533   0.54538   0.00000  Uiso   1.00
N1054  N     0.72056   0.25253   0.89132   0.00000  Uiso   1.00
N1055  N     0.75376   0.13836   0.57833   0.00000  Uiso   1.00
N1056  N     0.96031   0.04485   0.50756   0.00000  Uiso   1.00
N1057  N     0.71429   0.20054   0.67213   0.00000  Uiso   1.00
N1058  N     0.97895   0.14847   0.80094   0.00000  Uiso   1.00
N1059  N     0.88720   0.00753   0.71140   0.00000  Uiso   1.00
N1060  N     0.80761   0.22102   0.61206   0.00000  Uiso   1.00
N1061  N     0.91529   0.08707   0.60305   0.00000  Uiso   1.00
N1062  N     0.94974   0.06638   0.92931   0.00000  Uiso   1.00
N1063  N     0.68605   0.25379   0.50628   0.00000  Uiso   1.00
O1064  O     0.83333   0.16667   0.75000   0.00000  Uiso   1.00
O1065  O     0.82360   0.12393   0.66625   0.00000  Uiso   1.00
O1066  O     0.79354   0.20646   0.83749   0.00000  Uiso   1.00
O1067  O     0.87755   0.17493   0.65877   0.00000  Uiso   1.00
O1068  O     0.83865   0.16135   0.83749   0.00000  Uiso   1.00
O1069  O     0.84515   0.08101   0.77820   0.00000  Uiso   1.00
O1070  O     0.81247   0.26136   0.76767   0.00000  Uiso   1.00
O1071  O     0.74119   0.13251   0.73607   0.00000  Uiso   1.00
O1072  O     0.93452   0.19179   0.71806   0.00000  Uiso   1.00
O1073  O     0.73656   0.18960   0.77820   0.00000  Uiso   1.00
O1074  O     0.92106   0.15277   0.76768   0.00000  Uiso   1.00
O1075  O     0.80467   0.06903   0.73607   0.00000  Uiso   1.00
O1076  O     0.87104   0.25527   0.71806   0.00000  Uiso   1.00
Zn1077 Zn    0.85910   0.14090   0.78277   0.00000  Uiso   1.00
Zn1078 Zn    0.80125   0.12378   0.72257   0.00000  Uiso   1.00
Zn1079 Zn    0.87833   0.19664   0.71188   0.00000  Uiso   1.00
Zn1080 Zn    0.79465   0.20535   0.78277   0.00000  Uiso   1.00
C1081  C     0.05276   0.49345   0.75886   0.00000  Uiso   1.00
C1082  C     0.19802   0.45866   0.95760   0.00000  Uiso   1.00
C1083  C     0.22146   0.44016   0.97647   0.00000  Uiso   1.00
C1084  C     0.28107   0.50652   0.74107   0.00000  Uiso   1.00
C1085  C     0.21271   0.44623   0.51847   0.00000  Uiso   1.00
C1086  C     0.17927   0.47113   0.53991   0.00000  Uiso   1.00
C1087  C     0.23563   0.42916   0.54016   0.00000  Uiso   1.00
C1088  C     0.22680   0.43900   0.58150   0.00000  Uiso   1.00
C1089  C     0.17682   0.48660   0.57973   0.00000  Uiso   1.00
C1090  C     0.32696   0.50633   0.73601   0.00000  Uiso   1.00
C1091  C     0.00739   0.49180   0.76358   0.00000  Uiso   1.00
C1092  C     0.09527   0.54494   0.92380   0.00000  Uiso   1.00
C1093  C     0.18291   0.65597   0.73871   0.00000  Uiso   1.00
C1094  C     0.15199   0.34538   0.76144   0.00000  Uiso   1.00
C1095  C     0.15528   0.38959   0.75948   0.00000  Uiso   1.00
C1096  C     0.17732   0.61113   0.74156   0.00000  Uiso   1.00
C1097  C     0.18833   0.47862   0.64392   0.00000  Uiso   1.00
C1098  C     0.14497   0.52080   0.85654   0.00000  Uiso   1.00
C1099  C     0.13138   0.52502   0.90068   0.00000  Uiso   1.00
C1100  C     0.19835   0.46870   0.60086   0.00000  Uiso   1.00
C1101  C     0.08087   0.54262   0.96513   0.00000  Uiso   1.00
C1102  C     0.00662   0.48697   0.54107   0.00000  Uiso   1.00
C1103  C     0.15422   0.50602   0.91970   0.00000  Uiso   1.00
C1104  C     0.26785   0.40085   0.52174   0.00000  Uiso   1.00
C1105  C     0.02370   0.52162   0.70045   0.00000  Uiso   1.00
C1106  C     0.30672   0.43796   0.80667   0.00000  Uiso   1.00
C1107  C     0.25951   0.34416   0.72345   0.00000  Uiso   1.00
C1108  C     0.15672   0.52426   0.59775   0.00000  Uiso   1.00
C1109  C     0.22862   0.37977   0.61497   0.00000  Uiso   1.00
C1110  C     0.25575   0.41759   0.95053   0.00000  Uiso   1.00
C1111  C     0.04662   0.56731   0.98815   0.00000  Uiso   1.00
C1112  C     0.07231   0.56769   0.90565   0.00000  Uiso   1.00
C1113  C     0.07990   0.42651   0.57606   0.00000  Uiso   1.00
C1114  C     0.13948   0.50115   0.96047   0.00000  Uiso   1.00
C1115  C     0.10102   0.51813   0.98345   0.00000  Uiso   1.00
C1116  C     0.16292   0.48073   0.97903   0.00000  Uiso   1.00
C1117  C     0.15020   0.48145   0.52054   0.00000  Uiso   1.00
C1118  C     0.10731   0.48870   0.54132   0.00000  Uiso   1.00
C1119  C     0.08347   0.50895   0.52353   0.00000  Uiso   1.00
H1120  H     0.12291   0.66449   0.78121   0.00000  Uiso   1.00
H1121  H     0.00399   0.42815   0.80807   0.00000  Uiso   1.00
H1122  H     0.29622   0.41885   0.78206   0.00000  Uiso   1.00
H1123  H     0.21716   0.36777   0.70086   0.00000  Uiso   1.00
H1124  H     0.28700   0.35809   0.70042   0.00000  Uiso   1.00
H1125  H     0.26661   0.64620   0.72718   0.00000  Uiso   1.00
H1126  H     0.25613   0.36444   0.75179   0.00000  Uiso   1.00
H1127  H     0.25731   0.43987   0.62561   0.00000  Uiso   1.00
H1128  H     0.24987   0.36599   0.62789   0.00000  Uiso   1.00
H1129  H     0.22369   0.35831   0.58909   0.00000  Uiso   1.00
H1130  H     0.19711   0.38268   0.63751   0.00000  Uiso   1.00
H1131  H     0.18404   0.49533   0.90160   0.00000  Uiso   1.00
H1132  H     0.06140   0.48563   0.59715   0.00000  Uiso   1.00
H1133  H     0.06493   0.41660   0.60625   0.00000  Uiso   1.00
H1134  H     0.11070   0.41265   0.56357   0.00000  Uiso   1.00
H1135  H     0.05809   0.41431   0.55732   0.00000  Uiso   1.00
H1136  H     0.20667   0.45314   0.92574   0.00000  Uiso   1.00
H1137  H     0.03806   0.53253   0.57387   0.00000  Uiso   1.00
H1138  H     0.30875   0.49984   0.55481   0.00000  Uiso   1.00
H1139  H     0.00695   0.45937   0.55609   0.00000  Uiso   1.00
H1140  H     0.00931   0.47726   0.50924   0.00000  Uiso   1.00
H1141  H     0.31971   0.50048   0.82453   0.00000  Uiso   1.00
H1142  H     0.28162   0.43238   0.83488   0.00000  Uiso   1.00
N1143  N     0.04135   0.51866   0.54538   0.00000  Uiso   1.00
N1144  N     0.05389   0.58586   0.89132   0.00000  Uiso   1.00
N1145  N     0.08710   0.47169   0.57833   0.00000  Uiso   1.00
N1146  N     0.29365   0.37818   0.50756   0.00000  Uiso   1.00
N1147  N     0.04763   0.53387   0.67213   0.00000  Uiso   1.00
N1148  N     0.31229   0.48180   0.80094   0.00000  Uiso   1.00
N1149  N     0.22053   0.34086   0.71140   0.00000  Uiso   1.00
N1150  N     0.14094   0.55435   0.61206   0.00000  Uiso   1.00
N1151  N     0.24863   0.42040   0.60305   0.00000  Uiso   1.00
N1152  N     0.28307   0.39971   0.92931   0.00000  Uiso   1.00
N1153  N     0.01938   0.58712   0.50628   0.00000  Uiso   1.00
O1154  O     0.16667   0.50000   0.75000   0.00000  Uiso   1.00
O1155  O     0.15693   0.45726   0.66625   0.00000  Uiso   1.00
O1156  O     0.12687   0.53979   0.83749   0.00000  Uiso   1.00
O1157  O     0.21088   0.50826   0.65877   0.00000  Uiso   1.00
O1158  O     0.17198   0.49468   0.83749   0.00000  Uiso   1.00
O1159  O     0.17849   0.41434   0.77820   0.00000  Uiso   1.00
O1160  O     0.14581   0.59469   0.76767   0.00000  Uiso   1.00
O1161  O     0.07452   0.46584   0.73607   0.00000  Uiso   1.00
O1162  O     0.26785   0.52512   0.71806   0.00000  Uiso   1.00
O1163  O     0.06990   0.52293   0.77820   0.00000  Uiso   1.00
O1164  O     0.25440   0.48610   0.76768   0.00000  Uiso   1.00
O1165  O     0.13800   0.40236   0.73607   0.00000  Uiso   1.00
O1166  O     0.20437   0.58860   0.71806   0.00000  Uiso   1.00
Zn1167 Zn    0.19244   0.47423   0.78277   0.00000  Uiso   1.00
Zn1168 Zn    0.13459   0.45711   0.72257   0.00000  Uiso   1.00
Zn1169 Zn    0.21166   0.52997   0.71188   0.00000  Uiso   1.00
Zn1170 Zn    0.12798   0.53868   0.78277   0.00000  Uiso   1.00
C1171  C     0.38610   0.49345   0.75886   0.00000  Uiso   1.00
C1172  C     0.53135   0.45866   0.95760   0.00000  Uiso   1.00
C1173  C     0.55480   0.44016   0.97647   0.00000  Uiso   1.00
C1174  C     0.61440   0.50652   0.74107   0.00000  Uiso   1.00
C1175  C     0.54604   0.44623   0.51847   0.00000  Uiso   1.00
C1176  C     0.51260   0.47113   0.53991   0.00000  Uiso   1.00
C1177  C     0.56897   0.42916   0.54016   0.00000  Uiso   1.00
C1178  C     0.56013   0.43900   0.58150   0.00000  Uiso   1.00
C1179  C     0.51016   0.48660   0.57973   0.00000  Uiso   1.00
C1180  C     0.66030   0.50633   0.73601   0.00000  Uiso   1.00
C1181  C     0.34073   0.49180   0.76358   0.00000  Uiso   1.00
C1182  C     0.42860   0.54494   0.92380   0.00000  Uiso   1.00
C1183  C     0.51624   0.65597   0.73871   0.00000  Uiso   1.00
C1184  C     0.48533   0.34538   0.76144   0.00000  Uiso   1.00
C1185  C     0.48862   0.38959   0.75948   0.00000  Uiso   1.00
C1186  C     0.51065   0.61113   0.74156   0.00000  Uiso   1.00
C1187  C     0.52166   0.47862   0.64392   0.00000  Uiso   1.00
C1188  C     0.47830   0.52080   0.85654   0.00000  Uiso   1.00
C1189  C     0.46471   0.52502   0.90068   0.00000  Uiso   1.00
C1190  C     0.53168   0.46870   0.60086   0.00000  Uiso   1.00
C1191  C     0.41421   0.54262   0.96513   0.00000  Uiso   1.00
C1192  C     0.33996   0.48697   0.54107   0.00000  Uiso   1.00
C1193  C     0.48755   0.50602   0.91970   0.00000  Uiso   1.00
C1194  C     0.60118   0.40085   0.52174   0.00000  Uiso   1.00
C1195  C     0.35703   0.52162   0.70045   0.00000  Uiso   1.00
C1196  C     0.64005   0.43796   0.80667   0.00000  Uiso   1.00
C1197  C     0.59284   0.34416   0.72345   0.00000  Uiso   1.00
C1198  C     0.49006   0.52426   0.59775   0.00000  Uiso   1.00
C1199  C     0.56195   0.37977   0.61497   0.00000  Uiso   1.00
C1200  C     0.58908   0.41759   0.95053   0.00000  Uiso   1.00
C1201  C     0.37995   0.56731   0.98815   0.00000  Uiso   1.00
C1202  C     0.40564   0.56769   0.90565   0.00000  Uiso   1.00
C1203  C     0.41324   0.42651   0.57606   0.00000  Uiso   1.00
C1204  C     0.47282   0.50115   0.96047   0.00000  Uiso   1.00
C1205  C     0.43435   0.51813   0.98345   0.00000  Uiso   1.00
C1206  C     0.49626   0.48073   0.97903   0.00000  Uiso   1.00
C1207  C     0.48354   0.48145   0.52054   0.00000  Uiso   1.00
C1208  C     0.44064   0.48870   0.54132   0.00000  Uiso   1.00
C1209  C     0.41680   0.50895   0.52353   0.00000  Uiso   1.00
H1210  H     0.45624   0.66449   0.78121   0.00000  Uiso   1.00
H1211  H     0.33732   0.42815   0.80807   0.00000  Uiso   1.00
H1212  H     0.62955   0.41885   0.78206   0.00000  Uiso   1.00
H1213  H     0.55049   0.36777   0.70086   0.00000  Uiso   1.00
H1214  H     0.62034   0.35809   0.70042   0.00000  Uiso   1.00
H1215  H     0.59994   0.64620   0.72718   0.00000  Uiso   1.00
H1216  H     0.58946   0.36444   0.75179   0.00000  Uiso   1.00
H1217  H     0.59065   0.43987   0.62561   0.00000  Uiso   1.00
H1218  H     0.58320   0.36599   0.62789   0.00000  Uiso   1.00
H1219  H     0.55703   0.35831   0.58909   0.00000  Uiso   1.00
H1220  H     0.53045   0.38268   0.63751   0.00000  Uiso   1.00
H1221  H     0.51738   0.49533   0.90160   0.00000  Uiso   1.00
H1222  H     0.39473   0.48563   0.59715   0.00000  Uiso   1.00
H1223  H     0.39827   0.41660   0.60625   0.00000  Uiso   1.00
H1224  H     0.44404   0.41265   0.56357   0.00000  Uiso   1.00
H1225  H     0.39142   0.41431   0.55732   0.00000  Uiso   1.00
H1226  H     0.54000   0.45314   0.92574   0.00000  Uiso   1.00
H1227  H     0.37139   0.53253   0.57387   0.00000  Uiso   1.00
H1228  H     0.64208   0.49984   0.55481   0.00000  Uiso   1.00
H1229  H     0.34028   0.45937   0.55609   0.00000  Uiso   1.00
H1230  H     0.34264   0.47726   0.50924   0.00000  Uiso   1.00
H1231  H     0.65305   0.50048   0.82453   0.00000  Uiso   1.00
H1232  H     0.61495   0.43238   0.83488   0.00000  Uiso   1.00
N1233  N     0.37469   0.51866   0.54538   0.00000  Uiso   1.00
N1234  N     0.38723   0.58586   0.89132   0.00000  Uiso   1.00
N1235  N     0.42043   0.47169   0.57833   0.00000  Uiso   1.00
N1236  N     0.62698   0.37818   0.50756   0.00000  Uiso   1.00
N1237  N     0.38096   0.53387   0.67213   0.00000  Uiso   1.00
N1238  N     0.64562   0.48180   0.80094   0.00000  Uiso   1.00
N1239  N     0.55386   0.34086   0.71140   0.00000  Uiso   1.00
N1240  N     0.47427   0.55435   0.61206   0.00000  Uiso   1.00
N1241  N     0.58196   0.42040   0.60305   0.00000  Uiso   1.00
N1242  N     0.61640   0.39971   0.92931   0.00000  Uiso   1.00
N1243  N     0.35272   0.58712   0.50628   0.00000  Uiso   1.00
O1244  O     0.50000   0.50000   0.75000   0.00000  Uiso   1.00
O1245  O     0.49027   0.45726   0.66625   0.00000  Uiso   1.00
O1246  O     0.46020   0.53979   0.83749   0.00000  Uiso   1.00
O1247  O     0.54421   0.50826   0.65877   0.00000  Uiso   1.00
O1248  O     0.50532   0.49468   0.83749   0.00000  Uiso   1.00
O1249  O     0.51182   0.41434   0.77820   0.00000  Uiso   1.00
O1250  O     0.47914   0.59469   0.76767   0.00000  Uiso   1.00
O1251  O     0.40785   0.46584   0.73607   0.00000  Uiso   1.00
O1252  O     0.60119   0.52512   0.71806   0.00000  Uiso   1.00
O1253  O     0.40323   0.52293   0.77820   0.00000  Uiso   1.00
O1254  O     0.58773   0.48610   0.76768   0.00000  Uiso   1.00
O1255  O     0.47133   0.40236   0.73607   0.00000  Uiso   1.00
O1256  O     0.53771   0.58860   0.71806   0.00000  Uiso   1.00
Zn1257 Zn    0.52577   0.47423   0.78277   0.00000  Uiso   1.00
Zn1258 Zn    0.46792   0.45711   0.72257   0.00000  Uiso   1.00
Zn1259 Zn    0.54500   0.52997   0.71188   0.00000  Uiso   1.00
Zn1260 Zn    0.46131   0.53868   0.78277   0.00000  Uiso   1.00
C1261  C     0.71943   0.49345   0.75886   0.00000  Uiso   1.00
C1262  C     0.86468   0.45866   0.95760   0.00000  Uiso   1.00
C1263  C     0.88813   0.44016   0.97647   0.00000  Uiso   1.00
C1264  C     0.94773   0.50652   0.74107   0.00000  Uiso   1.00
C1265  C     0.87937   0.44623   0.51847   0.00000  Uiso   1.00
C1266  C     0.84593   0.47113   0.53991   0.00000  Uiso   1.00
C1267  C     0.90230   0.42916   0.54016   0.00000  Uiso   1.00
C1268  C     0.89346   0.43900   0.58150   0.00000  Uiso   1.00
C1269  C     0.84349   0.48660   0.57973   0.00000  Uiso   1.00
C1270  C     0.99363   0.50633   0.73601   0.00000  Uiso   1.00
C1271  C     0.67406   0.49180   0.76358   0.00000  Uiso   1.00
C1272  C     0.76193   0.54494   0.92380   0.00000  Uiso   1.00
C1273  C     0.84957   0.65597   0.73871   0.00000  Uiso   1.00
C1274  C     0.81866   0.34538   0.76144   0.00000  Uiso   1.00
C1275  C     0.82195   0.38959   0.75948   0.00000  Uiso   1.00
C1276  C     0.84399   0.61113   0.74156   0.00000  Uiso   1.00
C1277  C     0.85499   0.47862   0.64392   0.00000  Uiso   1.00
C1278  C     0.81164   0.52080   0.85654   0.00000  Uiso   1.00
C1279  C     0.79804   0.52502   0.90068   0.00000  Uiso   1.00
C1280  C     0.86502   0.46870   0.60086   0.00000  Uiso   1.00
C1281  C     0.74754   0.54262   0.96513   0.00000  Uiso   1.00
C1282  C     0.67329   0.48697   0.54107   0.00000  Uiso   1.00
C1283  C     0.82088   0.50602   0.91970   0.00000  Uiso   1.00
C1284  C     0.93451   0.40085   0.52174   0.00000  Uiso   1.00
C1285  C     0.69036   0.52162   0.70045   0.00000  Uiso   1.00
C1286  C     0.97338   0.43796   0.80667   0.00000  Uiso   1.00
C1287  C     0.92618   0.34416   0.72345   0.00000  Uiso   1.00
C1288  C     0.82339   0.52426   0.59775   0.00000  Uiso   1.00
C1289  C     0.89529   0.37977   0.61497   0.00000  Uiso   1.00
C1290  C     0.92241   0.41759   0.95053   0.00000  Uiso   1.00
C1291  C     0.71329   0.56731   0.98815   0.00000  Uiso   1.00
C1292  C     0.73897   0.56769   0.90565   0.00000  Uiso   1.00
C1293  C     0.74657   0.42651   0.57606   0.00000  Uiso   1.00
C1294  C     0.80615   0.50115   0.96047   0.00000  Uiso   1.00
C1295  C     0.76769   0.51813   0.98345   0.00000  Uiso   1.00
C1296  C     0.82959   0.48073   0.97903   0.00000  Uiso   1.00
C1297  C     0.81687   0.48145   0.52054   0.00000  Uiso   1.00
C1298  C     0.77397   0.48870   0.54132   0.00000  Uiso   1.00
C1299  C     0.75013   0.50895   0.52353   0.00000  Uiso   1.00
H1300  H     0.78958   0.66449   0.78121   0.00000  Uiso   1.00
H1301  H     0.67066   0.42815   0.80807   0.00000  Uiso   1.00
H1302  H     0.96289   0.41885   0.78206   0.00000  Uiso   1.00
H1303  H     0.88383   0.36777   0.70086   0.00000  Uiso   1.00
H1304  H     0.95367   0.35809   0.70042   0.00000  Uiso   1.00
H1305  H     0.93328   0.64620   0.72718   0.00000  Uiso   1.00
H1306  H     0.92279   0.36444   0.75179   0.00000  Uiso   1.00
H1307  H     0.92398   0.43987   0.62561   0.00000  Uiso   1.00
H1308  H     0.91654   0.36599   0.62789   0.00000  Uiso   1.00
H1309  H     0.89036   0.35831   0.58909   0.00000  Uiso   1.00
H1310  H     0.86378   0.38268   0.63751   0.00000  Uiso   1.00
H1311  H     0.85071   0.49533   0.90160   0.00000  Uiso   1.00
H1312  H     0.72807   0.48563   0.59715   0.00000  Uiso   1.00
H1313  H     0.73160   0.41660   0.60625   0.00000  Uiso   1.00
H1314  H     0.77737   0.41265   0.56357   0.00000  Uiso   1.00
H1315  H     0.72476   0.41431   0.55732   0.00000  Uiso   1.00
H1316  H     0.87334   0.45314   0.92574   0.00000  Uiso   1.00
H1317  H     0.70473   0.53253   0.57387   0.00000  Uiso   1.00
H1318  H     0.97541   0.49984   0.55481   0.00000  Uiso   1.00
H1319  H     0.67361   0.45937   0.55609   0.00000  Uiso   1.00
H1320  H     0.67598   0.47726   0.50924   0.00000  Uiso   1.00
H1321  H     0.98638   0.50048   0.82453   0.00000  Uiso   1.00
H1322  H     0.94828   0.43238   0.83488   0.00000  Uiso   1.00
N1323  N     0.70802   0.51866   0.54538   0.00000  Uiso   1.00
N1324  N     0.72056   0.58586   0.89132   0.00000  Uiso   1.00
N1325  N     0.75376   0.47169   0.57833   0.00000  Uiso   1.00
N1326  N     0.96031   0.37818   0.50756   0.00000  Uiso   1.00
N1327  N     0.71429   0.53387   0.67213   0.00000  Uiso   1.00
N1328  N     0.97895   0.48180   0.80094   0.00000  Uiso   1.00
N1329  N     0.88720   0.34086   0.71140   0.00000  Uiso   1.00
N1330  N     0.80761   0.55435   0.61206   0.00000  Uiso   1.00
N1331  N     0.91529   0.42040   0.60305   0.00000  Uiso   1.00
N1332  N     0.94974   0.39971   0.92931   0.00000  Uiso   1.00
N1333  N     0.68605   0.58712   0.50628   0.00000  Uiso   1.00
O1334  O     0.83333   0.50000   0.75000   0.00000  Uiso   1.00
O1335  O     0.82360   0.45726   0.66625   0.00000  Uiso   1.00
O1336  O     0.79354   0.53979   0.83749   0.00000  Uiso   1.00
O1337  O     0.87755   0.50826   0.65877   0.00000  Uiso   1.00
O1338  O     0.83865   0.49468   0.83749   0.00000  Uiso   1.00
O1339  O     0.84515   0.41434   0.77820   0.00000  Uiso   1.00
O1340  O     0.81247   0.59469   0.76767   0.00000  Uiso   1.00
O1341  O     0.74119   0.46584   0.73607   0.00000  Uiso   1.00
O1342  O     0.93452   0.52512   0.71806   0.00000  Uiso   1.00
O1343  O     0.73656   0.52293   0.77820   0.00000  Uiso   1.00
O1344  O     0.92106   0.48610   0.76768   0.00000  Uiso   1.00
O1345  O     0.80467   0.40236   0.73607   0.00000  Uiso   1.00
O1346  O     0.87104   0.58860   0.71806   0.00000  Uiso   1.00
Zn1347 Zn    0.85910   0.47423   0.78277   0.00000  Uiso   1.00
Zn1348 Zn    0.80125   0.45711   0.72257   0.00000  Uiso   1.00
Zn1349 Zn    0.87833   0.52997   0.71188   0.00000  Uiso   1.00
Zn1350 Zn    0.79465   0.53868   0.78277   0.00000  Uiso   1.00
C1351  C     0.05276   0.82679   0.75886   0.00000  Uiso   1.00
C1352  C     0.19802   0.79199   0.95760   0.00000  Uiso   1.00
C1353  C     0.22146   0.77349   0.97647   0.00000  Uiso   1.00
C1354  C     0.28107   0.83986   0.74107   0.00000  Uiso   1.00
C1355  C     0.21271   0.77956   0.51847   0.00000  Uiso   1.00
C1356  C     0.17927   0.80447   0.53991   0.00000  Uiso   1.00
C1357  C     0.23563   0.76250   0.54016   0.00000  Uiso   1.00
C1358  C     0.22680   0.77234   0.58150   0.00000  Uiso   1.00
C1359  C     0.17682   0.81993   0.57973   0.00000  Uiso   1.00
C1360  C     0.32696   0.83967   0.73601   0.00000  Uiso   1.00
C1361  C     0.00739   0.82513   0.76358   0.00000  Uiso   1.00
C1362  C     0.09527   0.87827   0.92380   0.00000  Uiso   1.00
C1363  C     0.18291   0.98930   0.73871   0.00000  Uiso   1.00
C1364  C     0.15199   0.67872   0.76144   0.00000  Uiso   1.00
C1365  C     0.15528   0.72292   0.75948   0.00000  Uiso   1.00
C1366  C     0.17732   0.94447   0.74156   0.00000  Uiso   1.00
C1367  C     0.18833   0.81195   0.64392   0.00000  Uiso   1.00
C1368  C     0.14497   0.85413   0.85654   0.00000  Uiso   1.00
C1369  C     0.13138   0.85835   0.90068   0.00000  Uiso   1.00
C1370  C     0.19835   0.80203   0.60086   0.00000  Uiso   1.00
C1371  C     0.08087   0.87596   0.96513   0.00000  Uiso   1.00
C1372  C     0.00662   0.82030   0.54107   0.00000  Uiso   1.00
C1373  C     0.15422   0.83936   0.91970   0.00000  Uiso   1.00
C1374  C     0.26785   0.73418   0.52174   0.00000  Uiso   1.00
C1375  C     0.02370   0.85496   0.70045   0.00000  Uiso   1.00
C1376  C     0.30672   0.77129   0.80667   0.00000  Uiso   1.00
C1377  C     0.25951   0.67749   0.72345   0.00000  Uiso   1.00
C1378  C     0.15672   0.85759   0.59775   0.00000  Uiso   1.00
C1379  C     0.22862   0.71310   0.61497   0.00000  Uiso   1.00
C1380  C     0.25575   0.75092   0.95053   0.00000  Uiso   1.00
C1381  C     0.04662   0.90065   0.98815   0.00000  Uiso   1.00
C1382  C     0.07231   0.90103   0.90565   0.00000  Uiso   1.00
C1383  C     0.07990   0.75984   0.57606   0.00000  Uiso   1.00
C1384  C     0.13948   0.83448   0.96047   0.00000  Uiso   1.00
C1385  C     0.10102   0.85146   0.98345   0.00000  Uiso   1.00
C1386  C     0.16292   0.81407   0.97903   0.00000  Uiso   1.00
C1387  C     0.15020   0.81478   0.52054   0.00000  Uiso   1.00
C1388  C     0.10731   0.82204   0.54132   0.00000  Uiso   1.00
C1389  C     0.08347   0.84228   0.52353   0.00000  Uiso   1.00
H1390  H     0.12291   0.99782   0.78121   0.00000  Uiso   1.00
H1391  H     0.00399   0.76149   0.80807   0.00000  Uiso   1.00
H1392  H     0.29622   0.75219   0.78206   0.00000  Uiso   1.00
H1393  H     0.21716   0.70111   0.70086   0.00000  Uiso   1.00
H1394  H     0.28700   0.69142   0.70042   0.00000  Uiso   1.00
H1395  H     0.26661   0.97953   0.72718   0.00000  Uiso   1.00
H1396  H     0.25613   0.69778   0.75179   0.00000  Uiso   1.00
H1397  H     0.25731   0.77320   0.62561   0.00000  Uiso   1.00
H1398  H     0.24987   0.69932   0.62789   0.00000  Uiso   1.00
H1399  H     0.22369   0.69164   0.58909   0.00000  Uiso   1.00
H1400  H     0.19711   0.71601   0.63751   0.00000  Uiso   1.00
H1401  H     0.18404   0.82867   0.90160   0.00000  Uiso   1.00
H1402  H     0.06140   0.81896   0.59715   0.00000  Uiso   1.00
H1403  H     0.06493   0.74993   0.60625   0.00000  Uiso   1.00
H1404  H     0.11070   0.74599   0.56357   0.00000  Uiso   1.00
H1405  H     0.05809   0.74764   0.55732   0.00000  Uiso   1.00
H1406  H     0.20667   0.78647   0.92574   0.00000  Uiso   1.00
H1407  H     0.03806   0.86587   0.57387   0.00000  Uiso   1.00
H1408  H     0.30875   0.83317   0.55481   0.00000  Uiso   1.00
H1409  H     0.00695   0.79270   0.55609   0.00000  Uiso   1.00
H1410  H     0.00931   0.81060   0.50924   0.00000  Uiso   1.00
H1411  H     0.31971   0.83381   0.82453   0.00000  Uiso   1.00
H1412  H     0.28162   0.76572   0.83488   0.00000  Uiso   1.00
N1413  N     0.04135   0.85200   0.54538   0.00000  Uiso   1.00
N1414  N     0.05389   0.91919   0.89132   0.00000  Uiso   1.00
N1415  N     0.08710   0.80503   0.57833   0.00000  Uiso   1.00
N1416  N     0.29365   0.71151   0.50756   0.00000  Uiso   1.00
N1417  N     0.04763   0.86721   0.67213   0.00000  Uiso   1.00
N1418  N     0.31229   0.81513   0.80094   0.00000  Uiso   1.00
N1419  N     0.22053   0.67420   0.71140   0.00000  Uiso   1.00
N1420  N     0.14094   0.88769   0.61206   0.00000  Uiso   1.00
N1421  N     0.24863   0.75373   0.60305   0.00000  Uiso   1.00
N1422  N     0.28307   0.73305   0.92931   0.00000  Uiso   1.00
N1423  N     0.01938   0.92045   0.50628   0.00000  Uiso   1.00
O1424  O     0.16667   0.83333   0.75000   0.00000  Uiso   1.00
O1425  O     0.15693   0.79060   0.66625   0.00000  Uiso   1.00
O1426  O     0.12687   0.87313   0.83749   0.00000  Uiso   1.00
O1427  O     0.21088   0.84159   0.65877   0.00000  Uiso   1.00
O1428  O     0.17198   0.82802   0.83749   0.00000  Uiso   1.00
O1429  O     0.17849   0.74768   0.77820   0.00000  Uiso   1.00
O1430  O     0.14581   0.92803   0.76767   0.00000  Uiso   1.00
O1431  O     0.07452   0.79917   0.73607   0.00000  Uiso   1.00
O1432  O     0.26785   0.85845   0.71806   0.00000  Uiso   1.00
O1433  O     0.06990   0.85627   0.77820   0.00000  Uiso   1.00
O1434  O     0.25440   0.81944   0.76768   0.00000  Uiso   1.00
O1435  O     0.13800   0.73570   0.73607   0.00000  Uiso   1.00
O1436  O     0.20437   0.92193   0.71806   0.00000  Uiso   1.00
Zn1437 Zn    0.19244   0.80756   0.78277   0.00000  Uiso   1.00
Zn1438 Zn    0.13459   0.79044   0.72257   0.00000  Uiso   1.00
Zn1439 Zn    0.21166   0.86331   0.71188   0.00000  Uiso   1.00
Zn1440 Zn    0.12798   0.87202   0.78277   0.00000  Uiso   1.00
C1441  C     0.38610   0.82679   0.75886   0.00000  Uiso   1.00
C1442  C     0.53135   0.79199   0.95760   0.00000  Uiso   1.00
C1443  C     0.55480   0.77349   0.97647   0.00000  Uiso   1.00
C1444  C     0.61440   0.83986   0.74107   0.00000  Uiso   1.00
C1445  C     0.54604   0.77956   0.51847   0.00000  Uiso   1.00
C1446  C     0.51260   0.80447   0.53991   0.00000  Uiso   1.00
C1447  C     0.56897   0.76250   0.54016   0.00000  Uiso   1.00
C1448  C     0.56013   0.77234   0.58150   0.00000  Uiso   1.00
C1449  C     0.51016   0.81993   0.57973   0.00000  Uiso   1.00
C1450  C     0.66030   0.83967   0.73601   0.00000  Uiso   1.00
C1451  C     0.34073   0.82513   0.76358   0.00000  Uiso   1.00
C1452  C     0.42860   0.87827   0.92380   0.00000  Uiso   1.00
C1453  C     0.51624   0.98930   0.73871   0.00000  Uiso   1.00
C1454  C     0.48533   0.67872   0.76144   0.00000  Uiso   1.00
C1455  C     0.48862   0.72292   0.75948   0.00000  Uiso   1.00
C1456  C     0.51065   0.94447   0.74156   0.00000  Uiso   1.00
C1457  C     0.52166   0.81195   0.64392   0.00000  Uiso   1.00
C1458  C     0.47830   0.85413   0.85654   0.00000  Uiso   1.00
C1459  C     0.46471   0.85835   0.90068   0.00000  Uiso   1.00
C1460  C     0.53168   0.80203   0.60086   0.00000  Uiso   1.00
C1461  C     0.41421   0.87596   0.96513   0.00000  Uiso   1.00
C1462  C     0.33996   0.82030   0.54107   0.00000  Uiso   1.00
C1463  C     0.48755   0.83936   0.91970   0.00000  Uiso   1.00
C1464  C     0.60118   0.73418   0.52174   0.00000  Uiso   1.00
C1465  C     0.35703   0.85496   0.70045   0.00000  Uiso   1.00
C1466  C     0.64005   0.77129   0.80667   0.00000  Uiso   1.00
C1467  C     0.59284   0.67749   0.72345   0.00000  Uiso   1.00
C1468  C     0.49006   0.85759   0.59775   0.00000  Uiso   1.00
C1469  C     0.56195   0.71310   0.61497   0.00000  Uiso   1.00
C1470  C     0.58908   0.75092   0.95053   0.00000  Uiso   1.00
C1471  C     0.37995   0.90065   0.98815   0.00000  Uiso   1.00
C1472  C     0.40564   0.90103   0.90565   0.00000  Uiso   1.00
C1473  C     0.41324   0.75984   0.57606   0.00000  Uiso   1.00
C1474  C     0.47282   0.83448   0.96047   0.00000  Uiso   1.00
C1475  C     0.43435   0.85146   0.98345   0.00000  Uiso   1.00
C1476  C     0.49626   0.81407   0.97903   0.00000  Uiso   1.00
C1477  C     0.48354   0.81478   0.52054   0.00000  Uiso   1.00
C1478  C     0.44064   0.82204   0.54132   0.00000  Uiso   1.00
C1479  C     0.41680   0.84228   0.52353   0.00000  Uiso   1.00
H1480  H     0.45624   0.99782   0.78121   0.00000  Uiso   1.00
H1481  H     0.33732   0.76149   0.80807   0.00000  Uiso   1.00
H1482  H     0.62955   0.75219   0.78206   0.00000  Uiso   1.00
H1483  H     0.55049   0.70111   0.70086   0.00000  Uiso   1.00
H1484  H     0.62034   0.69142   0.70042   0.00000  Uiso   1.00
H1485  H     0.59994   0.97953   0.72718   0.00000  Uiso   1.00
H1486  H     0.58946   0.69778   0.75179   0.00000  Uiso   1.00
H1487  H     0.59065   0.77320   0.62561   0.00000  Uiso   1.00
H1488  H     0.58320   0.69932   0.62789   0.00000  Uiso   1.00
H1489  H     0.55703   0.69164   0.58909   0.00000  Uiso   1.00
H1490  H     0.53045   0.71601   0.63751   0.00000  Uiso   1.00
H1491  H     0.51738   0.82867   0.90160   0.00000  Uiso   1.00
H1492  H     0.39473   0.81896   0.59715   0.00000  Uiso   1.00
H1493  H     0.39827   0.74993   0.60625   0.00000  Uiso   1.00
H1494  H     0.44404   0.74599   0.56357   0.00000  Uiso   1.00
H1495  H     0.39142   0.74764   0.55732   0.00000  Uiso   1.00
H1496  H     0.54000   0.78647   0.92574   0.00000  Uiso   1.00
H1497  H     0.37139   0.86587   0.57387   0.00000  Uiso   1.00
H1498  H     0.64208   0.83317   0.55481   0.00000  Uiso   1.00
H1499  H     0.34028   0.79270   0.55609   0.00000  Uiso   1.00
H1500  H     0.34264   0.81060   0.50924   0.00000  Uiso   1.00
H1501  H     0.65305   0.83381   0.82453   0.00000  Uiso   1.00
H1502  H     0.61495   0.76572   0.83488   0.00000  Uiso   1.00
N1503  N     0.37469   0.85200   0.54538   0.00000  Uiso   1.00
N1504  N     0.38723   0.91919   0.89132   0.00000  Uiso   1.00
N1505  N     0.42043   0.80503   0.57833   0.00000  Uiso   1.00
N1506  N     0.62698   0.71151   0.50756   0.00000  Uiso   1.00
N1507  N     0.38096   0.86721   0.67213   0.00000  Uiso   1.00
N1508  N     0.64562   0.81513   0.80094   0.00000  Uiso   1.00
N1509  N     0.55386   0.67420   0.71140   0.00000  Uiso   1.00
N1510  N     0.47427   0.88769   0.61206   0.00000  Uiso   1.00
N1511  N     0.58196   0.75373   0.60305   0.00000  Uiso   1.00
N1512  N     0.61640   0.73305   0.92931   0.00000  Uiso   1.00
N1513  N     0.35272   0.92045   0.50628   0.00000  Uiso   1.00
O1514  O     0.50000   0.83333   0.75000   0.00000  Uiso   1.00
O1515  O     0.49027   0.79060   0.66625   0.00000  Uiso   1.00
O1516  O     0.46020   0.87313   0.83749   0.00000  Uiso   1.00
O1517  O     0.54421   0.84159   0.65877   0.00000  Uiso   1.00
O1518  O     0.50532   0.82802   0.83749   0.00000  Uiso   1.00
O1519  O     0.51182   0.74768   0.77820   0.00000  Uiso   1.00
O1520  O     0.47914   0.92803   0.76767   0.00000  Uiso   1.00
O1521  O     0.40785   0.79917   0.73607   0.00000  Uiso   1.00
O1522  O     0.60119   0.85845   0.71806   0.00000  Uiso   1.00
O1523  O     0.40323   0.85627   0.77820   0.00000  Uiso   1.00
O1524  O     0.58773   0.81944   0.76768   0.00000  Uiso   1.00
O1525  O     0.47133   0.73570   0.73607   0.00000  Uiso   1.00
O1526  O     0.53771   0.92193   0.71806   0.00000  Uiso   1.00
Zn1527 Zn    0.52577   0.80756   0.78277   0.00000  Uiso   1.00
Zn1528 Zn    0.46792   0.79044   0.72257   0.00000  Uiso   1.00
Zn1529 Zn    0.54500   0.86331   0.71188   0.00000  Uiso   1.00
Zn1530 Zn    0.46131   0.87202   0.78277   0.00000  Uiso   1.00
C1531  C     0.71943   0.82679   0.75886   0.00000  Uiso   1.00
C1532  C     0.86468   0.79199   0.95760   0.00000  Uiso   1.00
C1533  C     0.88813   0.77349   0.97647   0.00000  Uiso   1.00
C1534  C     0.94773   0.83986   0.74107   0.00000  Uiso   1.00
C1535  C     0.87937   0.77956   0.51847   0.00000  Uiso   1.00
C1536  C     0.84593   0.80447   0.53991   0.00000  Uiso   1.00
C1537  C     0.90230   0.76250   0.54016   0.00000  Uiso   1.00
C1538  C     0.89346   0.77234   0.58150   0.00000  Uiso   1.00
C1539  C     0.84349   0.81993   0.57973   0.00000  Uiso   1.00
C1540  C     0.99363   0.83967   0.73601   0.00000  Uiso   1.00
C1541  C     0.67406   0.82513   0.76358   0.00000  Uiso   1.00
C1542  C     0.76193   0.87827   0.92380   0.00000  Uiso   1.00
C1543  C     0.84957   0.98930   0.73871   0.00000  Uiso   1.00
C1544  C     0.81866   0.67872   0.76144   0.00000  Uiso   1.00
C1545  C     0.82195   0.72292   0.75948   0.00000  Uiso   1.00
C1546  C     0.84399   0.94447   0.74156   0.00000  Uiso   1.00
C1547  C     0.85499   0.81195   0.64392   0.00000  Uiso   1.00
C1548  C     0.81164   0.85413   0.85654   0.00000  Uiso   1.00
C1549  C     0.79804   0.85835   0.90068   0.00000  Uiso   1.00
C1550  C     0.86502   0.80203   0.60086   0.00000  Uiso   1.00
C1551  C     0.74754   0.87596   0.96513   0.00000  Uiso   1.00
C1552  C     0.67329   0.82030   0.54107   0.00000  Uiso   1.00
C1553  C     0.82088   0.83936   0.91970   0.00000  Uiso   1.00
C1554  C     0.93451   0.73418   0.52174   0.00000  Uiso   1.00
C1555  C     0.69036   0.85496   0.70045   0.00000  Uiso   1.00
C1556  C     0.97338   0.77129   0.80667   0.00000  Uiso   1.00
C1557  C     0.92618   0.67749   0.72345   0.00000  Uiso   1.00
C1558  C     0.82339   0.85759   0.59775   0.00000  Uiso   1.00
C1559  C     0.89529   0.71310   0.61497   0.00000  Uiso   1.00
C1560  C     0.92241   0.75092   0.95053   0.00000  Uiso   1.00
C1561  C     0.71329   0.90065   0.98815   0.00000  Uiso   1.00
C1562  C     0.73897   0.90103   0.90565   0.00000  Uiso   1.00
C1563  C     0.74657   0.75984   0.57606   0.00000  Uiso   1.00
C1564  C     0.80615   0.83448   0.96047   0.00000  Uiso   1.00
C1565  C     0.76769   0.85146   0.98345   0.00000  Uiso   1.00
C1566  C     0.82959   0.81407   0.97903   0.00000  Uiso   1.00
C1567  C     0.81687   0.81478   0.52054   0.00000  Uiso   1.00
C1568  C     0.77397   0.82204   0.54132   0.00000  Uiso   1.00
C1569  C     0.75013   0.84228   0.52353   0.00000  Uiso   1.00
H1570  H     0.78958   0.99782   0.78121   0.00000  Uiso   1.00
H1571  H     0.67066   0.76149   0.80807   0.00000  Uiso   1.00
H1572  H     0.96289   0.75219   0.78206   0.00000  Uiso   1.00
H1573  H     0.88383   0.70111   0.70086   0.00000  Uiso   1.00
H1574  H     0.95367   0.69142   0.70042   0.00000  Uiso   1.00
H1575  H     0.93328   0.97953   0.72718   0.00000  Uiso   1.00
H1576  H     0.92279   0.69778   0.75179   0.00000  Uiso   1.00
H1577  H     0.92398   0.77320   0.62561   0.00000  Uiso   1.00
H1578  H     0.91654   0.69932   0.62789   0.00000  Uiso   1.00
H1579  H     0.89036   0.69164   0.58909   0.00000  Uiso   1.00
H1580  H     0.86378   0.71601   0.63751   0.00000  Uiso   1.00
H1581  H     0.85071   0.82867   0.90160   0.00000  Uiso   1.00
H1582  H     0.72807   0.81896   0.59715   0.00000  Uiso   1.00
H1583  H     0.73160   0.74993   0.60625   0.00000  Uiso   1.00
H1584  H     0.77737   0.74599   0.56357   0.00000  Uiso   1.00
H1585  H     0.72476   0.74764   0.55732   0.00000  Uiso   1.00
H1586  H     0.87334   0.78647   0.92574   0.00000  Uiso   1.00
H1587  H     0.70473   0.86587   0.57387   0.00000  Uiso   1.00
H1588  H     0.97541   0.83317   0.55481   0.00000  Uiso   1.00
H1589  H     0.67361   0.79270   0.55609   0.00000  Uiso   1.00
H1590  H     0.67598   0.81060   0.50924   0.00000  Uiso   1.00
H1591  H     0.98638   0.83381   0.82453   0.00000  Uiso   1.00
H1592  H     0.94828   0.76572   0.83488   0.00000  Uiso   1.00
N1593  N     0.70802   0.85200   0.54538   0.00000  Uiso   1.00
N1594  N     0.72056   0.91919   0.89132   0.00000  Uiso   1.00
N1595  N     0.75376   0.80503   0.57833   0.00000  Uiso   1.00
N1596  N     0.96031   0.71151   0.50756   0.00000  Uiso   1.00
N1597  N     0.71429   0.86721   0.67213   0.00000  Uiso   1.00
N1598  N     0.97895   0.81513   0.80094   0.00000  Uiso   1.00
N1599  N     0.88720   0.67420   0.71140   0.00000  Uiso   1.00
N1600  N     0.80761   0.88769   0.61206   0.00000  Uiso   1.00
N1601  N     0.91529   0.75373   0.60305   0.00000  Uiso   1.00
N1602  N     0.94974   0.73305   0.92931   0.00000  Uiso   1.00
N1603  N     0.68605   0.92045   0.50628   0.00000  Uiso   1.00
O1604  O     0.83333   0.83333   0.75000   0.00000  Uiso   1.00
O1605  O     0.82360   0.79060   0.66625   0.00000  Uiso   1.00
O1606  O     0.79354   0.87313   0.83749   0.00000  Uiso   1.00
O1607  O     0.87755   0.84159   0.65877   0.00000  Uiso   1.00
O1608  O     0.83865   0.82802   0.83749   0.00000  Uiso   1.00
O1609  O     0.84515   0.74768   0.77820   0.00000  Uiso   1.00
O1610  O     0.81247   0.92803   0.76767   0.00000  Uiso   1.00
O1611  O     0.74119   0.79917   0.73607   0.00000  Uiso   1.00
O1612  O     0.93452   0.85845   0.71806   0.00000  Uiso   1.00
O1613  O     0.73656   0.85627   0.77820   0.00000  Uiso   1.00
O1614  O     0.92106   0.81944   0.76768   0.00000  Uiso   1.00
O1615  O     0.80467   0.73570   0.73607   0.00000  Uiso   1.00
O1616  O     0.87104   0.92193   0.71806   0.00000  Uiso   1.00
Zn1617 Zn    0.85910   0.80756   0.78277   0.00000  Uiso   1.00
Zn1618 Zn    0.80125   0.79044   0.72257   0.00000  Uiso   1.00
Zn1619 Zn    0.87833   0.86331   0.71188   0.00000  Uiso   1.00
Zn1620 Zn    0.79465   0.87202   0.78277   0.00000  Uiso   1.00
loop_
_geom_bond_atom_site_label_1
_geom_bond_atom_site_label_2
_geom_bond_distance
_geom_bond_site_symmetry_2
_ccdc_geom_bond_type
C1     O81     1.271   .     A
C1     C11     1.438   .     S
C1     O83     1.261   .     A
C2     C36     1.411   .     A
C2     C3      1.397   .     A
C2     H56     1.078   .     S
C3     C30     1.447   .     S
C3     C815    1.424   .     S
C4     O84     1.270   .     A
C4     C10     1.460   .     S
C4     O82     1.282   .     A
C5     C6      1.426   .     A
C5     C7      1.431   .     A
C5     C813    1.424   1_554 S
C6     C9      1.416   .     A
C6     C37     1.426   .     A
C7     C8      1.410   .     A
C7     C24     1.449   .     S
C8     C20     1.406   .     A
C8     N71     1.428   .     S
C9     C20     1.397   .     A
C9     C28     1.454   .     S
C10    C101    1.355   .     S
C10    C115    1.452   .     S
C11    C190    1.355   1_455 S
C11    N248    1.427   1_455 S
C12    C32     1.452   .     S
C12    C21     1.412   .     A
C12    C19     1.413   .     A
C13    C16     1.456   .     S
C13    C284    1.340   .     S
C13    N339    1.432   .     S
C14    C15     1.436   .     S
C14    C553    1.340   1_545 S
C14    H580    1.086   1_545 S
C15    O79     1.279   .     A
C15    O85     1.275   .     A
C16    O86     1.266   .     A
C16    O80     1.273   .     A
C17    C20     1.466   .     S
C17    O77     1.277   .     A
C17    O75     1.277   .     A
C18    C19     1.490   .     S
C18    O78     1.292   .     A
C18    O76     1.285   .     A
C19    C23     1.395   .     A
C21    C31     1.454   .     S
C21    C35     1.430   .     A
C22    H60     1.111   .     S
C22    N63     1.446   .     S
C22    H59     1.109   .     S
C22    H238    1.110   1_455 S
C23    H51     1.075   .     S
C23    C34     1.408   .     A
C24    N66     1.158   .     T
C25    N67     1.157   .     T
C25    C190    1.452   1_455 S
C26    N68     1.446   .     S
C26    H62     1.111   .     S
C26    H42     1.109   .     S
C26    H131    1.112   .     S
C27    H44     1.111   .     S
C27    N69     1.446   .     S
C27    H46     1.110   .     S
C27    H585    1.110   1_545 S
C28    N70     1.157   .     T
C29    H49     1.111   .     S
C29    H50     1.111   .     S
C29    H48     1.110   .     S
C29    N71     1.446   .     S
C30    N72     1.158   .     T
C31    N883    1.158   .     S
C32    N64     1.158   .     T
C33    H55     1.110   .     S
C33    N65     1.448   .     S
C33    H53     1.111   .     S
C33    H54     1.110   .     S
C34    C35     1.425   .     A
C34    C36     1.426   .     A
C35    C849    1.425   .     S
C36    C847    1.406   .     S
C37    C38     1.418   .     A
C37    C846    1.406   1_554 S
C38    N65     1.433   .     S
C38    C39     1.414   .     A
C39    N63     1.426   .     S
C39    C845    1.425   1_554 S
H40    C284    1.086   .     S
H41    C206    1.112   1_455 S
H43    N69     1.031   .     S
H45    C297    1.110   .     S
H47    N71     1.031   .     S
H52    N65     1.028   .     S
H57    N63     1.030   .     S
H58    C112    1.110   .     S
H61    N68     1.032   .     S
N68    C101    1.427   .     S
N69    C553    1.432   1_545 S
N73    C841    1.158   1_554 S
O74    Zn89    1.929   .     S
O74    Zn87    1.956   .     S
O74    Zn90    1.933   .     S
O74    Zn88    1.947   .     S
O75    Zn88    1.917   .     S
O76    Zn90    1.928   .     S
O77    Zn89    1.926   .     S
O78    Zn87    1.916   .     S
O79    Zn87    1.929   .     S
O80    Zn90    1.929   .     S
O81    Zn88    1.936   .     S
O82    Zn89    1.946   .     S
O83    Zn90    1.943   .     S
O84    Zn87    1.933   .     S
O85    Zn88    1.934   .     S
O86    Zn89    1.931   .     S
C91    O171    1.271   .     A
C91    C101    1.438   .     S
C91    O173    1.261   .     A
C92    C126    1.411   .     A
C92    C93     1.397   .     A
C92    H146    1.078   .     S
C93    C120    1.447   .     S
C93    C905    1.424   .     S
C94    O174    1.270   .     A
C94    C100    1.460   .     S
C94    O172    1.282   .     A
C95    C96     1.426   .     A
C95    C97     1.431   .     A
C95    C903    1.424   1_554 S
C96    C99     1.416   .     A
C96    C127    1.426   .     A
C97    C98     1.410   .     A
C97    C114    1.449   .     S
C98    C110    1.406   .     A
C98    N161    1.428   .     S
C99    C110    1.397   .     A
C99    C118    1.454   .     S
C100   C191    1.355   .     S
C100   C205    1.452   .     S
C102   C122    1.452   .     S
C102   C111    1.412   .     A
C102   C109    1.413   .     A
C103   C106    1.456   .     S
C103   C374    1.340   .     S
C103   N429    1.432   .     S
C104   C105    1.436   .     S
C104   C643    1.340   1_545 S
C104   H670    1.086   1_545 S
C105   O169    1.279   .     A
C105   O175    1.275   .     A
C106   O176    1.266   .     A
C106   O170    1.273   .     A
C107   C110    1.466   .     S
C107   O167    1.277   .     A
C107   O165    1.277   .     A
C108   C109    1.490   .     S
C108   O168    1.292   .     A
C108   O166    1.285   .     A
C109   C113    1.395   .     A
C111   C121    1.454   .     S
C111   C125    1.430   .     A
C112   H150    1.111   .     S
C112   N153    1.446   .     S
C112   H149    1.109   .     S
C113   H141    1.075   .     S
C113   C124    1.408   .     A
C114   N156    1.158   .     T
C115   N157    1.157   .     T
C116   N158    1.446   .     S
C116   H152    1.111   .     S
C116   H132    1.109   .     S
C116   H221    1.112   .     S
C117   H134    1.111   .     S
C117   N159    1.446   .     S
C117   H136    1.110   .     S
C117   H675    1.110   1_545 S
C118   N160    1.157   .     T
C119   H139    1.111   .     S
C119   H140    1.111   .     S
C119   H138    1.110   .     S
C119   N161    1.446   .     S
C120   N162    1.158   .     T
C121   N973    1.158   .     S
C122   N154    1.158   .     T
C123   H145    1.110   .     S
C123   N155    1.448   .     S
C123   H143    1.111   .     S
C123   H144    1.110   .     S
C124   C125    1.425   .     A
C124   C126    1.426   .     A
C125   C939    1.425   .     S
C126   C937    1.406   .     S
C127   C128    1.418   .     A
C127   C936    1.406   1_554 S
C128   N155    1.433   .     S
C128   C129    1.414   .     A
C129   N153    1.426   .     S
C129   C935    1.425   1_554 S
H130   C374    1.086   .     S
H133   N159    1.031   .     S
H135   C387    1.110   .     S
H137   N161    1.031   .     S
H142   N155    1.028   .     S
H147   N153    1.030   .     S
H148   C202    1.110   .     S
H151   N158    1.032   .     S
N158   C191    1.427   .     S
N159   C643    1.432   1_545 S
N163   C931    1.158   1_554 S
O164   Zn179   1.929   .     S
O164   Zn177   1.956   .     S
O164   Zn180   1.933   .     S
O164   Zn178   1.947   .     S
O165   Zn178   1.917   .     S
O166   Zn180   1.928   .     S
O167   Zn179   1.926   .     S
O168   Zn177   1.916   .     S
O169   Zn177   1.929   .     S
O170   Zn180   1.929   .     S
O171   Zn178   1.936   .     S
O172   Zn179   1.946   .     S
O173   Zn180   1.943   .     S
O174   Zn177   1.933   .     S
O175   Zn178   1.934   .     S
O176   Zn179   1.931   .     S
C181   O261    1.271   .     A
C181   C191    1.438   .     S
C181   O263    1.261   .     A
C182   C216    1.411   .     A
C182   C183    1.397   .     A
C182   H236    1.078   .     S
C183   C210    1.447   .     S
C183   C995    1.424   .     S
C184   O264    1.270   .     A
C184   C190    1.460   .     S
C184   O262    1.282   .     A
C185   C186    1.426   .     A
C185   C187    1.431   .     A
C185   C993    1.424   1_554 S
C186   C189    1.416   .     A
C186   C217    1.426   .     A
C187   C188    1.410   .     A
C187   C204    1.449   .     S
C188   C200    1.406   .     A
C188   N251    1.428   .     S
C189   C200    1.397   .     A
C189   C208    1.454   .     S
C190   C11     1.355   1_655 S
C190   C25     1.452   1_655 S
C192   C212    1.452   .     S
C192   C201    1.412   .     A
C192   C199    1.413   .     A
C193   C196    1.456   .     S
C193   C464    1.340   .     S
C193   N519    1.432   .     S
C194   C195    1.436   .     S
C194   C733    1.340   1_545 S
C194   H760    1.086   1_545 S
C195   O259    1.279   .     A
C195   O265    1.275   .     A
C196   O266    1.266   .     A
C196   O260    1.273   .     A
C197   C200    1.466   .     S
C197   O257    1.277   .     A
C197   O255    1.277   .     A
C198   C199    1.490   .     S
C198   O258    1.292   .     A
C198   O256    1.285   .     A
C199   C203    1.395   .     A
C201   C211    1.454   .     S
C201   C215    1.430   .     A
C202   H240    1.111   .     S
C202   N243    1.446   .     S
C202   H239    1.109   .     S
C203   H231    1.075   .     S
C203   C214    1.408   .     A
C204   N246    1.158   .     T
C205   N247    1.157   .     T
C206   N248    1.446   .     S
C206   H242    1.111   .     S
C206   H222    1.109   .     S
C206   H41     1.112   1_655 S
C207   H224    1.111   .     S
C207   N249    1.446   .     S
C207   H226    1.110   .     S
C207   H765    1.110   1_545 S
C208   N250    1.157   .     T
C209   H229    1.111   .     S
C209   H230    1.111   .     S
C209   H228    1.110   .     S
C209   N251    1.446   .     S
C210   N252    1.158   .     T
C211   N1063   1.158   .     S
C212   N244    1.158   .     T
C213   H235    1.110   .     S
C213   N245    1.448   .     S
C213   H233    1.111   .     S
C213   H234    1.110   .     S
C214   C215    1.425   .     A
C214   C216    1.426   .     A
C215   C1029   1.425   .     S
C216   C1027   1.406   .     S
C217   C218    1.418   .     A
C217   C1026   1.406   1_554 S
C218   N245    1.433   .     S
C218   C219    1.414   .     A
C219   N243    1.426   .     S
C219   C1025   1.425   1_554 S
H220   C464    1.086   .     S
H223   N249    1.031   .     S
H225   C477    1.110   .     S
H227   N251    1.031   .     S
H232   N245    1.028   .     S
H237   N243    1.030   .     S
H238   C22     1.110   1_655 S
H241   N248    1.032   .     S
N248   C11     1.427   1_655 S
N249   C733    1.432   1_545 S
N253   C1021   1.158   1_554 S
O254   Zn269   1.929   .     S
O254   Zn267   1.956   .     S
O254   Zn270   1.933   .     S
O254   Zn268   1.947   .     S
O255   Zn268   1.917   .     S
O256   Zn270   1.928   .     S
O257   Zn269   1.926   .     S
O258   Zn267   1.916   .     S
O259   Zn267   1.929   .     S
O260   Zn270   1.929   .     S
O261   Zn268   1.936   .     S
O262   Zn269   1.946   .     S
O263   Zn270   1.943   .     S
O264   Zn267   1.933   .     S
O265   Zn268   1.934   .     S
O266   Zn269   1.931   .     S
C271   O351    1.271   .     A
C271   C281    1.438   .     S
C271   O353    1.261   .     A
C272   C306    1.411   .     A
C272   C273    1.397   .     A
C272   H326    1.078   .     S
C273   C300    1.447   .     S
C273   C1085   1.424   .     S
C274   O354    1.270   .     A
C274   C280    1.460   .     S
C274   O352    1.282   .     A
C275   C276    1.426   .     A
C275   C277    1.431   .     A
C275   C1083   1.424   1_554 S
C276   C279    1.416   .     A
C276   C307    1.426   .     A
C277   C278    1.410   .     A
C277   C294    1.449   .     S
C278   C290    1.406   .     A
C278   N341    1.428   .     S
C279   C290    1.397   .     A
C279   C298    1.454   .     S
C280   C371    1.355   .     S
C280   C385    1.452   .     S
C281   C460    1.355   1_455 S
C281   N518    1.427   1_455 S
C282   C302    1.452   .     S
C282   C291    1.412   .     A
C282   C289    1.413   .     A
C283   C286    1.456   .     S
C283   C554    1.340   .     S
C283   N609    1.432   .     S
C284   C285    1.436   .     S
C285   O349    1.279   .     A
C285   O355    1.275   .     A
C286   O356    1.266   .     A
C286   O350    1.273   .     A
C287   C290    1.466   .     S
C287   O347    1.277   .     A
C287   O345    1.277   .     A
C288   C289    1.490   .     S
C288   O348    1.292   .     A
C288   O346    1.285   .     A
C289   C293    1.395   .     A
C291   C301    1.454   .     S
C291   C305    1.430   .     A
C292   H330    1.111   .     S
C292   N333    1.446   .     S
C292   H329    1.109   .     S
C292   H508    1.110   1_455 S
C293   H321    1.075   .     S
C293   C304    1.408   .     A
C294   N336    1.158   .     T
C295   N337    1.157   .     T
C295   C460    1.452   1_455 S
C296   N338    1.446   .     S
C296   H332    1.111   .     S
C296   H312    1.109   .     S
C296   H401    1.112   .     S
C297   H314    1.111   .     S
C297   N339    1.446   .     S
C297   H316    1.110   .     S
C298   N340    1.157   .     T
C299   H319    1.111   .     S
C299   H320    1.111   .     S
C299   H318    1.110   .     S
C299   N341    1.446   .     S
C300   N342    1.158   .     T
C301   N1153   1.158   .     S
C302   N334    1.158   .     T
C303   H325    1.110   .     S
C303   N335    1.448   .     S
C303   H323    1.111   .     S
C303   H324    1.110   .     S
C304   C305    1.425   .     A
C304   C306    1.426   .     A
C305   C1119   1.425   .     S
C306   C1117   1.406   .     S
C307   C308    1.418   .     A
C307   C1116   1.406   1_554 S
C308   N335    1.433   .     S
C308   C309    1.414   .     A
C309   N333    1.426   .     S
C309   C1115   1.425   1_554 S
H310   C554    1.086   .     S
H311   C476    1.112   1_455 S
H313   N339    1.031   .     S
H315   C567    1.110   .     S
H317   N341    1.031   .     S
H322   N335    1.028   .     S
H327   N333    1.030   .     S
H328   C382    1.110   .     S
H331   N338    1.032   .     S
N338   C371    1.427   .     S
N343   C1111   1.158   1_554 S
O344   Zn359   1.929   .     S
O344   Zn357   1.956   .     S
O344   Zn360   1.933   .     S
O344   Zn358   1.947   .     S
O345   Zn358   1.917   .     S
O346   Zn360   1.928   .     S
O347   Zn359   1.926   .     S
O348   Zn357   1.916   .     S
O349   Zn357   1.929   .     S
O350   Zn360   1.929   .     S
O351   Zn358   1.936   .     S
O352   Zn359   1.946   .     S
O353   Zn360   1.943   .     S
O354   Zn357   1.933   .     S
O355   Zn358   1.934   .     S
O356   Zn359   1.931   .     S
C361   O441    1.271   .     A
C361   C371    1.438   .     S
C361   O443    1.261   .     A
C362   C396    1.411   .     A
C362   C363    1.397   .     A
C362   H416    1.078   .     S
C363   C390    1.447   .     S
C363   C1175   1.424   .     S
C364   O444    1.270   .     A
C364   C370    1.460   .     S
C364   O442    1.282   .     A
C365   C366    1.426   .     A
C365   C367    1.431   .     A
C365   C1173   1.424   1_554 S
C366   C369    1.416   .     A
C366   C397    1.426   .     A
C367   C368    1.410   .     A
C367   C384    1.449   .     S
C368   C380    1.406   .     A
C368   N431    1.428   .     S
C369   C380    1.397   .     A
C369   C388    1.454   .     S
C370   C461    1.355   .     S
C370   C475    1.452   .     S
C372   C392    1.452   .     S
C372   C381    1.412   .     A
C372   C379    1.413   .     A
C373   C376    1.456   .     S
C373   C644    1.340   .     S
C373   N699    1.432   .     S
C374   C375    1.436   .     S
C375   O439    1.279   .     A
C375   O445    1.275   .     A
C376   O446    1.266   .     A
C376   O440    1.273   .     A
C377   C380    1.466   .     S
C377   O437    1.277   .     A
C377   O435    1.277   .     A
C378   C379    1.490   .     S
C378   O438    1.292   .     A
C378   O436    1.285   .     A
C379   C383    1.395   .     A
C381   C391    1.454   .     S
C381   C395    1.430   .     A
C382   H420    1.111   .     S
C382   N423    1.446   .     S
C382   H419    1.109   .     S
C383   H411    1.075   .     S
C383   C394    1.408   .     A
C384   N426    1.158   .     T
C385   N427    1.157   .     T
C386   N428    1.446   .     S
C386   H422    1.111   .     S
C386   H402    1.109   .     S
C386   H491    1.112   .     S
C387   H404    1.111   .     S
C387   N429    1.446   .     S
C387   H406    1.110   .     S
C388   N430    1.157   .     T
C389   H409    1.111   .     S
C389   H410    1.111   .     S
C389   H408    1.110   .     S
C389   N431    1.446   .     S
C390   N432    1.158   .     T
C391   N1243   1.158   .     S
C392   N424    1.158   .     T
C393   H415    1.110   .     S
C393   N425    1.448   .     S
C393   H413    1.111   .     S
C393   H414    1.110   .     S
C394   C395    1.425   .     A
C394   C396    1.426   .     A
C395   C1209   1.425   .     S
C396   C1207   1.406   .     S
C397   C398    1.418   .     A
C397   C1206   1.406   1_554 S
C398   N425    1.433   .     S
C398   C399    1.414   .     A
C399   N423    1.426   .     S
C399   C1205   1.425   1_554 S
H400   C644    1.086   .     S
H403   N429    1.031   .     S
H405   C657    1.110   .     S
H407   N431    1.031   .     S
H412   N425    1.028   .     S
H417   N423    1.030   .     S
H418   C472    1.110   .     S
H421   N428    1.032   .     S
N428   C461    1.427   .     S
N433   C1201   1.158   1_554 S
O434   Zn449   1.929   .     S
O434   Zn447   1.956   .     S
O434   Zn450   1.933   .     S
O434   Zn448   1.947   .     S
O435   Zn448   1.917   .     S
O436   Zn450   1.928   .     S
O437   Zn449   1.926   .     S
O438   Zn447   1.916   .     S
O439   Zn447   1.929   .     S
O440   Zn450   1.929   .     S
O441   Zn448   1.936   .     S
O442   Zn449   1.946   .     S
O443   Zn450   1.943   .     S
O444   Zn447   1.933   .     S
O445   Zn448   1.934   .     S
O446   Zn449   1.931   .     S
C451   O531    1.271   .     A
C451   C461    1.438   .     S
C451   O533    1.261   .     A
C452   C486    1.411   .     A
C452   C453    1.397   .     A
C452   H506    1.078   .     S
C453   C480    1.447   .     S
C453   C1265   1.424   .     S
C454   O534    1.270   .     A
C454   C460    1.460   .     S
C454   O532    1.282   .     A
C455   C456    1.426   .     A
C455   C457    1.431   .     A
C455   C1263   1.424   1_554 S
C456   C459    1.416   .     A
C456   C487    1.426   .     A
C457   C458    1.410   .     A
C457   C474    1.449   .     S
C458   C470    1.406   .     A
C458   N521    1.428   .     S
C459   C470    1.397   .     A
C459   C478    1.454   .     S
C460   C281    1.355   1_655 S
C460   C295    1.452   1_655 S
C462   C482    1.452   .     S
C462   C471    1.412   .     A
C462   C469    1.413   .     A
C463   C466    1.456   .     S
C463   C734    1.340   .     S
C463   N789    1.432   .     S
C464   C465    1.436   .     S
C465   O529    1.279   .     A
C465   O535    1.275   .     A
C466   O536    1.266   .     A
C466   O530    1.273   .     A
C467   C470    1.466   .     S
C467   O527    1.277   .     A
C467   O525    1.277   .     A
C468   C469    1.490   .     S
C468   O528    1.292   .     A
C468   O526    1.285   .     A
C469   C473    1.395   .     A
C471   C481    1.454   .     S
C471   C485    1.430   .     A
C472   H510    1.111   .     S
C472   N513    1.446   .     S
C472   H509    1.109   .     S
C473   H501    1.075   .     S
C473   C484    1.408   .     A
C474   N516    1.158   .     T
C475   N517    1.157   .     T
C476   N518    1.446   .     S
C476   H512    1.111   .     S
C476   H492    1.109   .     S
C476   H311    1.112   1_655 S
C477   H494    1.111   .     S
C477   N519    1.446   .     S
C477   H496    1.110   .     S
C478   N520    1.157   .     T
C479   H499    1.111   .     S
C479   H500    1.111   .     S
C479   H498    1.110   .     S
C479   N521    1.446   .     S
C480   N522    1.158   .     T
C481   N1333   1.158   .     S
C482   N514    1.158   .     T
C483   H505    1.110   .     S
C483   N515    1.448   .     S
C483   H503    1.111   .     S
C483   H504    1.110   .     S
C484   C485    1.425   .     A
C484   C486    1.426   .     A
C485   C1299   1.425   .     S
C486   C1297   1.406   .     S
C487   C488    1.418   .     A
C487   C1296   1.406   1_554 S
C488   N515    1.433   .     S
C488   C489    1.414   .     A
C489   N513    1.426   .     S
C489   C1295   1.425   1_554 S
H490   C734    1.086   .     S
H493   N519    1.031   .     S
H495   C747    1.110   .     S
H497   N521    1.031   .     S
H502   N515    1.028   .     S
H507   N513    1.030   .     S
H508   C292    1.110   1_655 S
H511   N518    1.032   .     S
N518   C281    1.427   1_655 S
N523   C1291   1.158   1_554 S
O524   Zn539   1.929   .     S
O524   Zn537   1.956   .     S
O524   Zn540   1.933   .     S
O524   Zn538   1.947   .     S
O525   Zn538   1.917   .     S
O526   Zn540   1.928   .     S
O527   Zn539   1.926   .     S
O528   Zn537   1.916   .     S
O529   Zn537   1.929   .     S
O530   Zn540   1.929   .     S
O531   Zn538   1.936   .     S
O532   Zn539   1.946   .     S
O533   Zn540   1.943   .     S
O534   Zn537   1.933   .     S
O535   Zn538   1.934   .     S
O536   Zn539   1.931   .     S
C541   O621    1.271   .     A
C541   C551    1.438   .     S
C541   O623    1.261   .     A
C542   C576    1.411   .     A
C542   C543    1.397   .     A
C542   H596    1.078   .     S
C543   C570    1.447   .     S
C543   C1355   1.424   .     S
C544   O624    1.270   .     A
C544   C550    1.460   .     S
C544   O622    1.282   .     A
C545   C546    1.426   .     A
C545   C547    1.431   .     A
C545   C1353   1.424   1_554 S
C546   C549    1.416   .     A
C546   C577    1.426   .     A
C547   C548    1.410   .     A
C547   C564    1.449   .     S
C548   C560    1.406   .     A
C548   N611    1.428   .     S
C549   C560    1.397   .     A
C549   C568    1.454   .     S
C550   C641    1.355   .     S
C550   C655    1.452   .     S
C551   C730    1.355   1_455 S
C551   N788    1.427   1_455 S
C552   C572    1.452   .     S
C552   C561    1.412   .     A
C552   C559    1.413   .     A
C553   C556    1.456   .     S
C553   C14     1.340   1_565 S
C553   N69     1.432   1_565 S
C554   C555    1.436   .     S
C555   O619    1.279   .     A
C555   O625    1.275   .     A
C556   O626    1.266   .     A
C556   O620    1.273   .     A
C557   C560    1.466   .     S
C557   O617    1.277   .     A
C557   O615    1.277   .     A
C558   C559    1.490   .     S
C558   O618    1.292   .     A
C558   O616    1.285   .     A
C559   C563    1.395   .     A
C561   C571    1.454   .     S
C561   C575    1.430   .     A
C562   H600    1.111   .     S
C562   N603    1.446   .     S
C562   H599    1.109   .     S
C562   H778    1.110   1_455 S
C563   H591    1.075   .     S
C563   C574    1.408   .     A
C564   N606    1.158   .     T
C565   N607    1.157   .     T
C565   C730    1.452   1_455 S
C566   N608    1.446   .     S
C566   H602    1.111   .     S
C566   H582    1.109   .     S
C566   H671    1.112   .     S
C567   H584    1.111   .     S
C567   N609    1.446   .     S
C567   H586    1.110   .     S
C568   N610    1.157   .     T
C569   H589    1.111   .     S
C569   H590    1.111   .     S
C569   H588    1.110   .     S
C569   N611    1.446   .     S
C570   N612    1.158   .     T
C571   N1423   1.158   .     S
C572   N604    1.158   .     T
C573   H595    1.110   .     S
C573   N605    1.448   .     S
C573   H593    1.111   .     S
C573   H594    1.110   .     S
C574   C575    1.425   .     A
C574   C576    1.426   .     A
C575   C1389   1.425   .     S
C576   C1387   1.406   .     S
C577   C578    1.418   .     A
C577   C1386   1.406   1_554 S
C578   N605    1.433   .     S
C578   C579    1.414   .     A
C579   N603    1.426   .     S
C579   C1385   1.425   1_554 S
H580   C14     1.086   1_565 S
H581   C746    1.112   1_455 S
H583   N609    1.031   .     S
H585   C27     1.110   1_565 S
H587   N611    1.031   .     S
H592   N605    1.028   .     S
H597   N603    1.030   .     S
H598   C652    1.110   .     S
H601   N608    1.032   .     S
N608   C641    1.427   .     S
N613   C1381   1.158   1_554 S
O614   Zn629   1.929   .     S
O614   Zn627   1.956   .     S
O614   Zn630   1.933   .     S
O614   Zn628   1.947   .     S
O615   Zn628   1.917   .     S
O616   Zn630   1.928   .     S
O617   Zn629   1.926   .     S
O618   Zn627   1.916   .     S
O619   Zn627   1.929   .     S
O620   Zn630   1.929   .     S
O621   Zn628   1.936   .     S
O622   Zn629   1.946   .     S
O623   Zn630   1.943   .     S
O624   Zn627   1.933   .     S
O625   Zn628   1.934   .     S
O626   Zn629   1.931   .     S
C631   O711    1.271   .     A
C631   C641    1.438   .     S
C631   O713    1.261   .     A
C632   C666    1.411   .     A
C632   C633    1.397   .     A
C632   H686    1.078   .     S
C633   C660    1.447   .     S
C633   C1445   1.424   .     S
C634   O714    1.270   .     A
C634   C640    1.460   .     S
C634   O712    1.282   .     A
C635   C636    1.426   .     A
C635   C637    1.431   .     A
C635   C1443   1.424   1_554 S
C636   C639    1.416   .     A
C636   C667    1.426   .     A
C637   C638    1.410   .     A
C637   C654    1.449   .     S
C638   C650    1.406   .     A
C638   N701    1.428   .     S
C639   C650    1.397   .     A
C639   C658    1.454   .     S
C640   C731    1.355   .     S
C640   C745    1.452   .     S
C642   C662    1.452   .     S
C642   C651    1.412   .     A
C642   C649    1.413   .     A
C643   C646    1.456   .     S
C643   C104    1.340   1_565 S
C643   N159    1.432   1_565 S
C644   C645    1.436   .     S
C645   O709    1.279   .     A
C645   O715    1.275   .     A
C646   O716    1.266   .     A
C646   O710    1.273   .     A
C647   C650    1.466   .     S
C647   O707    1.277   .     A
C647   O705    1.277   .     A
C648   C649    1.490   .     S
C648   O708    1.292   .     A
C648   O706    1.285   .     A
C649   C653    1.395   .     A
C651   C661    1.454   .     S
C651   C665    1.430   .     A
C652   H690    1.111   .     S
C652   N693    1.446   .     S
C652   H689    1.109   .     S
C653   H681    1.075   .     S
C653   C664    1.408   .     A
C654   N696    1.158   .     T
C655   N697    1.157   .     T
C656   N698    1.446   .     S
C656   H692    1.111   .     S
C656   H672    1.109   .     S
C656   H761    1.112   .     S
C657   H674    1.111   .     S
C657   N699    1.446   .     S
C657   H676    1.110   .     S
C658   N700    1.157   .     T
C659   H679    1.111   .     S
C659   H680    1.111   .     S
C659   H678    1.110   .     S
C659   N701    1.446   .     S
C660   N702    1.158   .     T
C661   N1513   1.158   .     S
C662   N694    1.158   .     T
C663   H685    1.110   .     S
C663   N695    1.448   .     S
C663   H683    1.111   .     S
C663   H684    1.110   .     S
C664   C665    1.425   .     A
C664   C666    1.426   .     A
C665   C1479   1.425   .     S
C666   C1477   1.406   .     S
C667   C668    1.418   .     A
C667   C1476   1.406   1_554 S
C668   N695    1.433   .     S
C668   C669    1.414   .     A
C669   N693    1.426   .     S
C669   C1475   1.425   1_554 S
H670   C104    1.086   1_565 S
H673   N699    1.031   .     S
H675   C117    1.110   1_565 S
H677   N701    1.031   .     S
H682   N695    1.028   .     S
H687   N693    1.030   .     S
H688   C742    1.110   .     S
H691   N698    1.032   .     S
N698   C731    1.427   .     S
N703   C1471   1.158   1_554 S
O704   Zn719   1.929   .     S
O704   Zn717   1.956   .     S
O704   Zn720   1.933   .     S
O704   Zn718   1.947   .     S
O705   Zn718   1.917   .     S
O706   Zn720   1.928   .     S
O707   Zn719   1.926   .     S
O708   Zn717   1.916   .     S
O709   Zn717   1.929   .     S
O710   Zn720   1.929   .     S
O711   Zn718   1.936   .     S
O712   Zn719   1.946   .     S
O713   Zn720   1.943   .     S
O714   Zn717   1.933   .     S
O715   Zn718   1.934   .     S
O716   Zn719   1.931   .     S
C721   O801    1.271   .     A
C721   C731    1.438   .     S
C721   O803    1.261   .     A
C722   C756    1.411   .     A
C722   C723    1.397   .     A
C722   H776    1.078   .     S
C723   C750    1.447   .     S
C723   C1535   1.424   .     S
C724   O804    1.270   .     A
C724   C730    1.460   .     S
C724   O802    1.282   .     A
C725   C726    1.426   .     A
C725   C727    1.431   .     A
C725   C1533   1.424   1_554 S
C726   C729    1.416   .     A
C726   C757    1.426   .     A
C727   C728    1.410   .     A
C727   C744    1.449   .     S
C728   C740    1.406   .     A
C728   N791    1.428   .     S
C729   C740    1.397   .     A
C729   C748    1.454   .     S
C730   C551    1.355   1_655 S
C730   C565    1.452   1_655 S
C732   C752    1.452   .     S
C732   C741    1.412   .     A
C732   C739    1.413   .     A
C733   C736    1.456   .     S
C733   C194    1.340   1_565 S
C733   N249    1.432   1_565 S
C734   C735    1.436   .     S
C735   O799    1.279   .     A
C735   O805    1.275   .     A
C736   O806    1.266   .     A
C736   O800    1.273   .     A
C737   C740    1.466   .     S
C737   O797    1.277   .     A
C737   O795    1.277   .     A
C738   C739    1.490   .     S
C738   O798    1.292   .     A
C738   O796    1.285   .     A
C739   C743    1.395   .     A
C741   C751    1.454   .     S
C741   C755    1.430   .     A
C742   H780    1.111   .     S
C742   N783    1.446   .     S
C742   H779    1.109   .     S
C743   H771    1.075   .     S
C743   C754    1.408   .     A
C744   N786    1.158   .     T
C745   N787    1.157   .     T
C746   N788    1.446   .     S
C746   H782    1.111   .     S
C746   H762    1.109   .     S
C746   H581    1.112   1_655 S
C747   H764    1.111   .     S
C747   N789    1.446   .     S
C747   H766    1.110   .     S
C748   N790    1.157   .     T
C749   H769    1.111   .     S
C749   H770    1.111   .     S
C749   H768    1.110   .     S
C749   N791    1.446   .     S
C750   N792    1.158   .     T
C751   N1603   1.158   .     S
C752   N784    1.158   .     T
C753   H775    1.110   .     S
C753   N785    1.448   .     S
C753   H773    1.111   .     S
C753   H774    1.110   .     S
C754   C755    1.425   .     A
C754   C756    1.426   .     A
C755   C1569   1.425   .     S
C756   C1567   1.406   .     S
C757   C758    1.418   .     A
C757   C1566   1.406   1_554 S
C758   N785    1.433   .     S
C758   C759    1.414   .     A
C759   N783    1.426   .     S
C759   C1565   1.425   1_554 S
H760   C194    1.086   1_565 S
H763   N789    1.031   .     S
H765   C207    1.110   1_565 S
H767   N791    1.031   .     S
H772   N785    1.028   .     S
H777   N783    1.030   .     S
H778   C562    1.110   1_655 S
H781   N788    1.032   .     S
N788   C551    1.427   1_655 S
N793   C1561   1.158   1_554 S
O794   Zn809   1.929   .     S
O794   Zn807   1.956   .     S
O794   Zn810   1.933   .     S
O794   Zn808   1.947   .     S
O795   Zn808   1.917   .     S
O796   Zn810   1.928   .     S
O797   Zn809   1.926   .     S
O798   Zn807   1.916   .     S
O799   Zn807   1.929   .     S
O800   Zn810   1.929   .     S
O801   Zn808   1.936   .     S
O802   Zn809   1.946   .     S
O803   Zn810   1.943   .     S
O804   Zn807   1.933   .     S
O805   Zn808   1.934   .     S
O806   Zn809   1.931   .     S
C811   O891    1.271   .     A
C811   C821    1.438   .     S
C811   O893    1.261   .     A
C812   C846    1.411   .     A
C812   C813    1.397   .     A
C812   H866    1.078   .     S
C813   C840    1.447   .     S
C813   C5      1.424   1_556 S
C814   O894    1.270   .     A
C814   C820    1.460   .     S
C814   O892    1.282   .     A
C815   C816    1.426   .     A
C815   C817    1.431   .     A
C816   C819    1.416   .     A
C816   C847    1.426   .     A
C817   C818    1.410   .     A
C817   C834    1.449   .     S
C818   C830    1.406   .     A
C818   N881    1.428   .     S
C819   C830    1.397   .     A
C819   C838    1.454   .     S
C820   C911    1.355   .     S
C820   C925    1.452   .     S
C821   C1000   1.355   1_455 S
C821   N1058   1.427   1_455 S
C822   C842    1.452   .     S
C822   C831    1.412   .     A
C822   C829    1.413   .     A
C823   C826    1.456   .     S
C823   C1094   1.340   .     S
C823   N1149   1.432   .     S
C824   C825    1.436   .     S
C824   C1363   1.340   1_545 S
C824   H1390   1.086   1_545 S
C825   O889    1.279   .     A
C825   O895    1.275   .     A
C826   O896    1.266   .     A
C826   O890    1.273   .     A
C827   C830    1.466   .     S
C827   O887    1.277   .     A
C827   O885    1.277   .     A
C828   C829    1.490   .     S
C828   O888    1.292   .     A
C828   O886    1.285   .     A
C829   C833    1.395   .     A
C831   C841    1.454   .     S
C831   C845    1.430   .     A
C832   H870    1.111   .     S
C832   N873    1.446   .     S
C832   H869    1.109   .     S
C832   H1048   1.110   1_455 S
C833   H861    1.075   .     S
C833   C844    1.408   .     A
C834   N876    1.158   .     T
C835   N877    1.157   .     T
C835   C1000   1.452   1_455 S
C836   N878    1.446   .     S
C836   H872    1.111   .     S
C836   H852    1.109   .     S
C836   H941    1.112   .     S
C837   H854    1.111   .     S
C837   N879    1.446   .     S
C837   H856    1.110   .     S
C837   H1395   1.110   1_545 S
C838   N880    1.157   .     T
C839   H859    1.111   .     S
C839   H860    1.111   .     S
C839   H858    1.110   .     S
C839   N881    1.446   .     S
C840   N882    1.158   .     T
C841   N73     1.158   1_556 S
C842   N874    1.158   .     T
C843   H865    1.110   .     S
C843   N875    1.448   .     S
C843   H863    1.111   .     S
C843   H864    1.110   .     S
C844   C845    1.425   .     A
C844   C846    1.426   .     A
C845   C39     1.425   1_556 S
C846   C37     1.406   1_556 S
C847   C848    1.418   .     A
C848   N875    1.433   .     S
C848   C849    1.414   .     A
C849   N873    1.426   .     S
H850   C1094   1.086   .     S
H851   C1016   1.112   1_455 S
H853   N879    1.031   .     S
H855   C1107   1.110   .     S
H857   N881    1.031   .     S
H862   N875    1.028   .     S
H867   N873    1.030   .     S
H868   C922    1.110   .     S
H871   N878    1.032   .     S
N878   C911    1.427   .     S
N879   C1363   1.432   1_545 S
O884   Zn899   1.929   .     S
O884   Zn897   1.956   .     S
O884   Zn900   1.933   .     S
O884   Zn898   1.947   .     S
O885   Zn898   1.917   .     S
O886   Zn900   1.928   .     S
O887   Zn899   1.926   .     S
O888   Zn897   1.916   .     S
O889   Zn897   1.929   .     S
O890   Zn900   1.929   .     S
O891   Zn898   1.936   .     S
O892   Zn899   1.946   .     S
O893   Zn900   1.943   .     S
O894   Zn897   1.933   .     S
O895   Zn898   1.934   .     S
O896   Zn899   1.931   .     S
C901   O981    1.271   .     A
C901   C911    1.438   .     S
C901   O983    1.261   .     A
C902   C936    1.411   .     A
C902   C903    1.397   .     A
C902   H956    1.078   .     S
C903   C930    1.447   .     S
C903   C95     1.424   1_556 S
C904   O984    1.270   .     A
C904   C910    1.460   .     S
C904   O982    1.282   .     A
C905   C906    1.426   .     A
C905   C907    1.431   .     A
C906   C909    1.416   .     A
C906   C937    1.426   .     A
C907   C908    1.410   .     A
C907   C924    1.449   .     S
C908   C920    1.406   .     A
C908   N971    1.428   .     S
C909   C920    1.397   .     A
C909   C928    1.454   .     S
C910   C1001   1.355   .     S
C910   C1015   1.452   .     S
C912   C932    1.452   .     S
C912   C921    1.412   .     A
C912   C919    1.413   .     A
C913   C916    1.456   .     S
C913   C1184   1.340   .     S
C913   N1239   1.432   .     S
C914   C915    1.436   .     S
C914   C1453   1.340   1_545 S
C914   H1480   1.086   1_545 S
C915   O979    1.279   .     A
C915   O985    1.275   .     A
C916   O986    1.266   .     A
C916   O980    1.273   .     A
C917   C920    1.466   .     S
C917   O977    1.277   .     A
C917   O975    1.277   .     A
C918   C919    1.490   .     S
C918   O978    1.292   .     A
C918   O976    1.285   .     A
C919   C923    1.395   .     A
C921   C931    1.454   .     S
C921   C935    1.430   .     A
C922   H960    1.111   .     S
C922   N963    1.446   .     S
C922   H959    1.109   .     S
C923   H951    1.075   .     S
C923   C934    1.408   .     A
C924   N966    1.158   .     T
C925   N967    1.157   .     T
C926   N968    1.446   .     S
C926   H962    1.111   .     S
C926   H942    1.109   .     S
C926   H1031   1.112   .     S
C927   H944    1.111   .     S
C927   N969    1.446   .     S
C927   H946    1.110   .     S
C927   H1485   1.110   1_545 S
C928   N970    1.157   .     T
C929   H949    1.111   .     S
C929   H950    1.111   .     S
C929   H948    1.110   .     S
C929   N971    1.446   .     S
C930   N972    1.158   .     T
C931   N163    1.158   1_556 S
C932   N964    1.158   .     T
C933   H955    1.110   .     S
C933   N965    1.448   .     S
C933   H953    1.111   .     S
C933   H954    1.110   .     S
C934   C935    1.425   .     A
C934   C936    1.426   .     A
C935   C129    1.425   1_556 S
C936   C127    1.406   1_556 S
C937   C938    1.418   .     A
C938   N965    1.433   .     S
C938   C939    1.414   .     A
C939   N963    1.426   .     S
H940   C1184   1.086   .     S
H943   N969    1.031   .     S
H945   C1197   1.110   .     S
H947   N971    1.031   .     S
H952   N965    1.028   .     S
H957   N963    1.030   .     S
H958   C1012   1.110   .     S
H961   N968    1.032   .     S
N968   C1001   1.427   .     S
N969   C1453   1.432   1_545 S
O974   Zn989   1.929   .     S
O974   Zn987   1.956   .     S
O974   Zn990   1.933   .     S
O974   Zn988   1.947   .     S
O975   Zn988   1.917   .     S
O976   Zn990   1.928   .     S
O977   Zn989   1.926   .     S
O978   Zn987   1.916   .     S
O979   Zn987   1.929   .     S
O980   Zn990   1.929   .     S
O981   Zn988   1.936   .     S
O982   Zn989   1.946   .     S
O983   Zn990   1.943   .     S
O984   Zn987   1.933   .     S
O985   Zn988   1.934   .     S
O986   Zn989   1.931   .     S
C991   O1071   1.271   .     A
C991   C1001   1.438   .     S
C991   O1073   1.261   .     A
C992   C1026   1.411   .     A
C992   C993    1.397   .     A
C992   H1046   1.078   .     S
C993   C1020   1.447   .     S
C993   C185    1.424   1_556 S
C994   O1074   1.270   .     A
C994   C1000   1.460   .     S
C994   O1072   1.282   .     A
C995   C996    1.426   .     A
C995   C997    1.431   .     A
C996   C999    1.416   .     A
C996   C1027   1.426   .     A
C997   C998    1.410   .     A
C997   C1014   1.449   .     S
C998   C1010   1.406   .     A
C998   N1061   1.428   .     S
C999   C1010   1.397   .     A
C999   C1018   1.454   .     S
C1000  C821    1.355   1_655 S
C1000  C835    1.452   1_655 S
C1002  C1022   1.452   .     S
C1002  C1011   1.412   .     A
C1002  C1009   1.413   .     A
C1003  C1006   1.456   .     S
C1003  C1274   1.340   .     S
C1003  N1329   1.432   .     S
C1004  C1005   1.436   .     S
C1004  C1543   1.340   1_545 S
C1004  H1570   1.086   1_545 S
C1005  O1069   1.279   .     A
C1005  O1075   1.275   .     A
C1006  O1076   1.266   .     A
C1006  O1070   1.273   .     A
C1007  C1010   1.466   .     S
C1007  O1067   1.277   .     A
C1007  O1065   1.277   .     A
C1008  C1009   1.490   .     S
C1008  O1068   1.292   .     A
C1008  O1066   1.285   .     A
C1009  C1013   1.395   .     A
C1011  C1021   1.454   .     S
C1011  C1025   1.430   .     A
C1012  H1050   1.111   .     S
C1012  N1053   1.446   .     S
C1012  H1049   1.109   .     S
C1013  H1041   1.075   .     S
C1013  C1024   1.408   .     A
C1014  N1056   1.158   .     T
C1015  N1057   1.157   .     T
C1016  N1058   1.446   .     S
C1016  H1052   1.111   .     S
C1016  H1032   1.109   .     S
C1016  H851    1.112   1_655 S
C1017  H1034   1.111   .     S
C1017  N1059   1.446   .     S
C1017  H1036   1.110   .     S
C1017  H1575   1.110   1_545 S
C1018  N1060   1.157   .     T
C1019  H1039   1.111   .     S
C1019  H1040   1.111   .     S
C1019  H1038   1.110   .     S
C1019  N1061   1.446   .     S
C1020  N1062   1.158   .     T
C1021  N253    1.158   1_556 S
C1022  N1054   1.158   .     T
C1023  H1045   1.110   .     S
C1023  N1055   1.448   .     S
C1023  H1043   1.111   .     S
C1023  H1044   1.110   .     S
C1024  C1025   1.425   .     A
C1024  C1026   1.426   .     A
C1025  C219    1.425   1_556 S
C1026  C217    1.406   1_556 S
C1027  C1028   1.418   .     A
C1028  N1055   1.433   .     S
C1028  C1029   1.414   .     A
C1029  N1053   1.426   .     S
H1030  C1274   1.086   .     S
H1033  N1059   1.031   .     S
H1035  C1287   1.110   .     S
H1037  N1061   1.031   .     S
H1042  N1055   1.028   .     S
H1047  N1053   1.030   .     S
H1048  C832    1.110   1_655 S
H1051  N1058   1.032   .     S
N1058  C821    1.427   1_655 S
N1059  C1543   1.432   1_545 S
O1064  Zn1079  1.929   .     S
O1064  Zn1077  1.956   .     S
O1064  Zn1080  1.933   .     S
O1064  Zn1078  1.947   .     S
O1065  Zn1078  1.917   .     S
O1066  Zn1080  1.928   .     S
O1067  Zn1079  1.926   .     S
O1068  Zn1077  1.916   .     S
O1069  Zn1077  1.929   .     S
O1070  Zn1080  1.929   .     S
O1071  Zn1078  1.936   .     S
O1072  Zn1079  1.946   .     S
O1073  Zn1080  1.943   .     S
O1074  Zn1077  1.933   .     S
O1075  Zn1078  1.934   .     S
O1076  Zn1079  1.931   .     S
C1081  O1161   1.271   .     A
C1081  C1091   1.438   .     S
C1081  O1163   1.261   .     A
C1082  C1116   1.411   .     A
C1082  C1083   1.397   .     A
C1082  H1136   1.078   .     S
C1083  C1110   1.447   .     S
C1083  C275    1.424   1_556 S
C1084  O1164   1.270   .     A
C1084  C1090   1.460   .     S
C1084  O1162   1.282   .     A
C1085  C1086   1.426   .     A
C1085  C1087   1.431   .     A
C1086  C1089   1.416   .     A
C1086  C1117   1.426   .     A
C1087  C1088   1.410   .     A
C1087  C1104   1.449   .     S
C1088  C1100   1.406   .     A
C1088  N1151   1.428   .     S
C1089  C1100   1.397   .     A
C1089  C1108   1.454   .     S
C1090  C1181   1.355   .     S
C1090  C1195   1.452   .     S
C1091  C1270   1.355   1_455 S
C1091  N1328   1.427   1_455 S
C1092  C1112   1.452   .     S
C1092  C1101   1.412   .     A
C1092  C1099   1.413   .     A
C1093  C1096   1.456   .     S
C1093  C1364   1.340   .     S
C1093  N1419   1.432   .     S
C1094  C1095   1.436   .     S
C1095  O1159   1.279   .     A
C1095  O1165   1.275   .     A
C1096  O1166   1.266   .     A
C1096  O1160   1.273   .     A
C1097  C1100   1.466   .     S
C1097  O1157   1.277   .     A
C1097  O1155   1.277   .     A
C1098  C1099   1.490   .     S
C1098  O1158   1.292   .     A
C1098  O1156   1.285   .     A
C1099  C1103   1.395   .     A
C1101  C1111   1.454   .     S
C1101  C1115   1.430   .     A
C1102  H1140   1.111   .     S
C1102  N1143   1.446   .     S
C1102  H1139   1.109   .     S
C1102  H1318   1.110   1_455 S
C1103  H1131   1.075   .     S
C1103  C1114   1.408   .     A
C1104  N1146   1.158   .     T
C1105  N1147   1.157   .     T
C1105  C1270   1.452   1_455 S
C1106  N1148   1.446   .     S
C1106  H1142   1.111   .     S
C1106  H1122   1.109   .     S
C1106  H1211   1.112   .     S
C1107  H1124   1.111   .     S
C1107  N1149   1.446   .     S
C1107  H1126   1.110   .     S
C1108  N1150   1.157   .     T
C1109  H1129   1.111   .     S
C1109  H1130   1.111   .     S
C1109  H1128   1.110   .     S
C1109  N1151   1.446   .     S
C1110  N1152   1.158   .     T
C1111  N343    1.158   1_556 S
C1112  N1144   1.158   .     T
C1113  H1135   1.110   .     S
C1113  N1145   1.448   .     S
C1113  H1133   1.111   .     S
C1113  H1134   1.110   .     S
C1114  C1115   1.425   .     A
C1114  C1116   1.426   .     A
C1115  C309    1.425   1_556 S
C1116  C307    1.406   1_556 S
C1117  C1118   1.418   .     A
C1118  N1145   1.433   .     S
C1118  C1119   1.414   .     A
C1119  N1143   1.426   .     S
H1120  C1364   1.086   .     S
H1121  C1286   1.112   1_455 S
H1123  N1149   1.031   .     S
H1125  C1377   1.110   .     S
H1127  N1151   1.031   .     S
H1132  N1145   1.028   .     S
H1137  N1143   1.030   .     S
H1138  C1192   1.110   .     S
H1141  N1148   1.032   .     S
N1148  C1181   1.427   .     S
O1154  Zn1169  1.929   .     S
O1154  Zn1167  1.956   .     S
O1154  Zn1170  1.933   .     S
O1154  Zn1168  1.947   .     S
O1155  Zn1168  1.917   .     S
O1156  Zn1170  1.928   .     S
O1157  Zn1169  1.926   .     S
O1158  Zn1167  1.916   .     S
O1159  Zn1167  1.929   .     S
O1160  Zn1170  1.929   .     S
O1161  Zn1168  1.936   .     S
O1162  Zn1169  1.946   .     S
O1163  Zn1170  1.943   .     S
O1164  Zn1167  1.933   .     S
O1165  Zn1168  1.934   .     S
O1166  Zn1169  1.931   .     S
C1171  O1251   1.271   .     A
C1171  C1181   1.438   .     S
C1171  O1253   1.261   .     A
C1172  C1206   1.411   .     A
C1172  C1173   1.397   .     A
C1172  H1226   1.078   .     S
C1173  C1200   1.447   .     S
C1173  C365    1.424   1_556 S
C1174  O1254   1.270   .     A
C1174  C1180   1.460   .     S
C1174  O1252   1.282   .     A
C1175  C1176   1.426   .     A
C1175  C1177   1.431   .     A
C1176  C1179   1.416   .     A
C1176  C1207   1.426   .     A
C1177  C1178   1.410   .     A
C1177  C1194   1.449   .     S
C1178  C1190   1.406   .     A
C1178  N1241   1.428   .     S
C1179  C1190   1.397   .     A
C1179  C1198   1.454   .     S
C1180  C1271   1.355   .     S
C1180  C1285   1.452   .     S
C1182  C1202   1.452   .     S
C1182  C1191   1.412   .     A
C1182  C1189   1.413   .     A
C1183  C1186   1.456   .     S
C1183  C1454   1.340   .     S
C1183  N1509   1.432   .     S
C1184  C1185   1.436   .     S
C1185  O1249   1.279   .     A
C1185  O1255   1.275   .     A
C1186  O1256   1.266   .     A
C1186  O1250   1.273   .     A
C1187  C1190   1.466   .     S
C1187  O1247   1.277   .     A
C1187  O1245   1.277   .     A
C1188  C1189   1.490   .     S
C1188  O1248   1.292   .     A
C1188  O1246   1.285   .     A
C1189  C1193   1.395   .     A
C1191  C1201   1.454   .     S
C1191  C1205   1.430   .     A
C1192  H1230   1.111   .     S
C1192  N1233   1.446   .     S
C1192  H1229   1.109   .     S
C1193  H1221   1.075   .     S
C1193  C1204   1.408   .     A
C1194  N1236   1.158   .     T
C1195  N1237   1.157   .     T
C1196  N1238   1.446   .     S
C1196  H1232   1.111   .     S
C1196  H1212   1.109   .     S
C1196  H1301   1.112   .     S
C1197  H1214   1.111   .     S
C1197  N1239   1.446   .     S
C1197  H1216   1.110   .     S
C1198  N1240   1.157   .     T
C1199  H1219   1.111   .     S
C1199  H1220   1.111   .     S
C1199  H1218   1.110   .     S
C1199  N1241   1.446   .     S
C1200  N1242   1.158   .     T
C1201  N433    1.158   1_556 S
C1202  N1234   1.158   .     T
C1203  H1225   1.110   .     S
C1203  N1235   1.448   .     S
C1203  H1223   1.111   .     S
C1203  H1224   1.110   .     S
C1204  C1205   1.425   .     A
C1204  C1206   1.426   .     A
C1205  C399    1.425   1_556 S
C1206  C397    1.406   1_556 S
C1207  C1208   1.418   .     A
C1208  N1235   1.433   .     S
C1208  C1209   1.414   .     A
C1209  N1233   1.426   .     S
H1210  C1454   1.086   .     S
H1213  N1239   1.031   .     S
H1215  C1467   1.110   .     S
H1217  N1241   1.031   .     S
H1222  N1235   1.028   .     S
H1227  N1233   1.030   .     S
H1228  C1282   1.110   .     S
H1231  N1238   1.032   .     S
N1238  C1271   1.427   .     S
O1244  Zn1259  1.929   .     S
O1244  Zn1257  1.956   .     S
O1244  Zn1260  1.933   .     S
O1244  Zn1258  1.947   .     S
O1245  Zn1258  1.917   .     S
O1246  Zn1260  1.928   .     S
O1247  Zn1259  1.926   .     S
O1248  Zn1257  1.916   .     S
O1249  Zn1257  1.929   .     S
O1250  Zn1260  1.929   .     S
O1251  Zn1258  1.936   .     S
O1252  Zn1259  1.946   .     S
O1253  Zn1260  1.943   .     S
O1254  Zn1257  1.933   .     S
O1255  Zn1258  1.934   .     S
O1256  Zn1259  1.931   .     S
C1261  O1341   1.271   .     A
C1261  C1271   1.438   .     S
C1261  O1343   1.261   .     A
C1262  C1296   1.411   .     A
C1262  C1263   1.397   .     A
C1262  H1316   1.078   .     S
C1263  C1290   1.447   .     S
C1263  C455    1.424   1_556 S
C1264  O1344   1.270   .     A
C1264  C1270   1.460   .     S
C1264  O1342   1.282   .     A
C1265  C1266   1.426   .     A
C1265  C1267   1.431   .     A
C1266  C1269   1.416   .     A
C1266  C1297   1.426   .     A
C1267  C1268   1.410   .     A
C1267  C1284   1.449   .     S
C1268  C1280   1.406   .     A
C1268  N1331   1.428   .     S
C1269  C1280   1.397   .     A
C1269  C1288   1.454   .     S
C1270  C1091   1.355   1_655 S
C1270  C1105   1.452   1_655 S
C1272  C1292   1.452   .     S
C1272  C1281   1.412   .     A
C1272  C1279   1.413   .     A
C1273  C1276   1.456   .     S
C1273  C1544   1.340   .     S
C1273  N1599   1.432   .     S
C1274  C1275   1.436   .     S
C1275  O1339   1.279   .     A
C1275  O1345   1.275   .     A
C1276  O1346   1.266   .     A
C1276  O1340   1.273   .     A
C1277  C1280   1.466   .     S
C1277  O1337   1.277   .     A
C1277  O1335   1.277   .     A
C1278  C1279   1.490   .     S
C1278  O1338   1.292   .     A
C1278  O1336   1.285   .     A
C1279  C1283   1.395   .     A
C1281  C1291   1.454   .     S
C1281  C1295   1.430   .     A
C1282  H1320   1.111   .     S
C1282  N1323   1.446   .     S
C1282  H1319   1.109   .     S
C1283  H1311   1.075   .     S
C1283  C1294   1.408   .     A
C1284  N1326   1.158   .     T
C1285  N1327   1.157   .     T
C1286  N1328   1.446   .     S
C1286  H1322   1.111   .     S
C1286  H1302   1.109   .     S
C1286  H1121   1.112   1_655 S
C1287  H1304   1.111   .     S
C1287  N1329   1.446   .     S
C1287  H1306   1.110   .     S
C1288  N1330   1.157   .     T
C1289  H1309   1.111   .     S
C1289  H1310   1.111   .     S
C1289  H1308   1.110   .     S
C1289  N1331   1.446   .     S
C1290  N1332   1.158   .     T
C1291  N523    1.158   1_556 S
C1292  N1324   1.158   .     T
C1293  H1315   1.110   .     S
C1293  N1325   1.448   .     S
C1293  H1313   1.111   .     S
C1293  H1314   1.110   .     S
C1294  C1295   1.425   .     A
C1294  C1296   1.426   .     A
C1295  C489    1.425   1_556 S
C1296  C487    1.406   1_556 S
C1297  C1298   1.418   .     A
C1298  N1325   1.433   .     S
C1298  C1299   1.414   .     A
C1299  N1323   1.426   .     S
H1300  C1544   1.086   .     S
H1303  N1329   1.031   .     S
H1305  C1557   1.110   .     S
H1307  N1331   1.031   .     S
H1312  N1325   1.028   .     S
H1317  N1323   1.030   .     S
H1318  C1102   1.110   1_655 S
H1321  N1328   1.032   .     S
N1328  C1091   1.427   1_655 S
O1334  Zn1349  1.929   .     S
O1334  Zn1347  1.956   .     S
O1334  Zn1350  1.933   .     S
O1334  Zn1348  1.947   .     S
O1335  Zn1348  1.917   .     S
O1336  Zn1350  1.928   .     S
O1337  Zn1349  1.926   .     S
O1338  Zn1347  1.916   .     S
O1339  Zn1347  1.929   .     S
O1340  Zn1350  1.929   .     S
O1341  Zn1348  1.936   .     S
O1342  Zn1349  1.946   .     S
O1343  Zn1350  1.943   .     S
O1344  Zn1347  1.933   .     S
O1345  Zn1348  1.934   .     S
O1346  Zn1349  1.931   .     S
C1351  O1431   1.271   .     A
C1351  C1361   1.438   .     S
C1351  O1433   1.261   .     A
C1352  C1386   1.411   .     A
C1352  C1353   1.397   .     A
C1352  H1406   1.078   .     S
C1353  C1380   1.447   .     S
C1353  C545    1.424   1_556 S
C1354  O1434   1.270   .     A
C1354  C1360   1.460   .     S
C1354  O1432   1.282   .     A
C1355  C1356   1.426   .     A
C1355  C1357   1.431   .     A
C1356  C1359   1.416   .     A
C1356  C1387   1.426   .     A
C1357  C1358   1.410   .     A
C1357  C1374   1.449   .     S
C1358  C1370   1.406   .     A
C1358  N1421   1.428   .     S
C1359  C1370   1.397   .     A
C1359  C1378   1.454   .     S
C1360  C1451   1.355   .     S
C1360  C1465   1.452   .     S
C1361  C1540   1.355   1_455 S
C1361  N1598   1.427   1_455 S
C1362  C1382   1.452   .     S
C1362  C1371   1.412   .     A
C1362  C1369   1.413   .     A
C1363  C1366   1.456   .     S
C1363  C824    1.340   1_565 S
C1363  N879    1.432   1_565 S
C1364  C1365   1.436   .     S
C1365  O1429   1.279   .     A
C1365  O1435   1.275   .     A
C1366  O1436   1.266   .     A
C1366  O1430   1.273   .     A
C1367  C1370   1.466   .     S
C1367  O1427   1.277   .     A
C1367  O1425   1.277   .     A
C1368  C1369   1.490   .     S
C1368  O1428   1.292   .     A
C1368  O1426   1.285   .     A
C1369  C1373   1.395   .     A
C1371  C1381   1.454   .     S
C1371  C1385   1.430   .     A
C1372  H1410   1.111   .     S
C1372  N1413   1.446   .     S
C1372  H1409   1.109   .     S
C1372  H1588   1.110   1_455 S
C1373  H1401   1.075   .     S
C1373  C1384   1.408   .     A
C1374  N1416   1.158   .     T
C1375  N1417   1.157   .     T
C1375  C1540   1.452   1_455 S
C1376  N1418   1.446   .     S
C1376  H1412   1.111   .     S
C1376  H1392   1.109   .     S
C1376  H1481   1.112   .     S
C1377  H1394   1.111   .     S
C1377  N1419   1.446   .     S
C1377  H1396   1.110   .     S
C1378  N1420   1.157   .     T
C1379  H1399   1.111   .     S
C1379  H1400   1.111   .     S
C1379  H1398   1.110   .     S
C1379  N1421   1.446   .     S
C1380  N1422   1.158   .     T
C1381  N613    1.158   1_556 S
C1382  N1414   1.158   .     T
C1383  H1405   1.110   .     S
C1383  N1415   1.448   .     S
C1383  H1403   1.111   .     S
C1383  H1404   1.110   .     S
C1384  C1385   1.425   .     A
C1384  C1386   1.426   .     A
C1385  C579    1.425   1_556 S
C1386  C577    1.406   1_556 S
C1387  C1388   1.418   .     A
C1388  N1415   1.433   .     S
C1388  C1389   1.414   .     A
C1389  N1413   1.426   .     S
H1390  C824    1.086   1_565 S
H1391  C1556   1.112   1_455 S
H1393  N1419   1.031   .     S
H1395  C837    1.110   1_565 S
H1397  N1421   1.031   .     S
H1402  N1415   1.028   .     S
H1407  N1413   1.030   .     S
H1408  C1462   1.110   .     S
H1411  N1418   1.032   .     S
N1418  C1451   1.427   .     S
O1424  Zn1439  1.929   .     S
O1424  Zn1437  1.956   .     S
O1424  Zn1440  1.933   .     S
O1424  Zn1438  1.947   .     S
O1425  Zn1438  1.917   .     S
O1426  Zn1440  1.928   .     S
O1427  Zn1439  1.926   .     S
O1428  Zn1437  1.916   .     S
O1429  Zn1437  1.929   .     S
O1430  Zn1440  1.929   .     S
O1431  Zn1438  1.936   .     S
O1432  Zn1439  1.946   .     S
O1433  Zn1440  1.943   .     S
O1434  Zn1437  1.933   .     S
O1435  Zn1438  1.934   .     S
O1436  Zn1439  1.931   .     S
C1441  O1521   1.271   .     A
C1441  C1451   1.438   .     S
C1441  O1523   1.261   .     A
C1442  C1476   1.411   .     A
C1442  C1443   1.397   .     A
C1442  H1496   1.078   .     S
C1443  C1470   1.447   .     S
C1443  C635    1.424   1_556 S
C1444  O1524   1.270   .     A
C1444  C1450   1.460   .     S
C1444  O1522   1.282   .     A
C1445  C1446   1.426   .     A
C1445  C1447   1.431   .     A
C1446  C1449   1.416   .     A
C1446  C1477   1.426   .     A
C1447  C1448   1.410   .     A
C1447  C1464   1.449   .     S
C1448  C1460   1.406   .     A
C1448  N1511   1.428   .     S
C1449  C1460   1.397   .     A
C1449  C1468   1.454   .     S
C1450  C1541   1.355   .     S
C1450  C1555   1.452   .     S
C1452  C1472   1.452   .     S
C1452  C1461   1.412   .     A
C1452  C1459   1.413   .     A
C1453  C1456   1.456   .     S
C1453  C914    1.340   1_565 S
C1453  N969    1.432   1_565 S
C1454  C1455   1.436   .     S
C1455  O1519   1.279   .     A
C1455  O1525   1.275   .     A
C1456  O1526   1.266   .     A
C1456  O1520   1.273   .     A
C1457  C1460   1.466   .     S
C1457  O1517   1.277   .     A
C1457  O1515   1.277   .     A
C1458  C1459   1.490   .     S
C1458  O1518   1.292   .     A
C1458  O1516   1.285   .     A
C1459  C1463   1.395   .     A
C1461  C1471   1.454   .     S
C1461  C1475   1.430   .     A
C1462  H1500   1.111   .     S
C1462  N1503   1.446   .     S
C1462  H1499   1.109   .     S
C1463  H1491   1.075   .     S
C1463  C1474   1.408   .     A
C1464  N1506   1.158   .     T
C1465  N1507   1.157   .     T
C1466  N1508   1.446   .     S
C1466  H1502   1.111   .     S
C1466  H1482   1.109   .     S
C1466  H1571   1.112   .     S
C1467  H1484   1.111   .     S
C1467  N1509   1.446   .     S
C1467  H1486   1.110   .     S
C1468  N1510   1.157   .     T
C1469  H1489   1.111   .     S
C1469  H1490   1.111   .     S
C1469  H1488   1.110   .     S
C1469  N1511   1.446   .     S
C1470  N1512   1.158   .     T
C1471  N703    1.158   1_556 S
C1472  N1504   1.158   .     T
C1473  H1495   1.110   .     S
C1473  N1505   1.448   .     S
C1473  H1493   1.111   .     S
C1473  H1494   1.110   .     S
C1474  C1475   1.425   .     A
C1474  C1476   1.426   .     A
C1475  C669    1.425   1_556 S
C1476  C667    1.406   1_556 S
C1477  C1478   1.418   .     A
C1478  N1505   1.433   .     S
C1478  C1479   1.414   .     A
C1479  N1503   1.426   .     S
H1480  C914    1.086   1_565 S
H1483  N1509   1.031   .     S
H1485  C927    1.110   1_565 S
H1487  N1511   1.031   .     S
H1492  N1505   1.028   .     S
H1497  N1503   1.030   .     S
H1498  C1552   1.110   .     S
H1501  N1508   1.032   .     S
N1508  C1541   1.427   .     S
O1514  Zn1529  1.929   .     S
O1514  Zn1527  1.956   .     S
O1514  Zn1530  1.933   .     S
O1514  Zn1528  1.947   .     S
O1515  Zn1528  1.917   .     S
O1516  Zn1530  1.928   .     S
O1517  Zn1529  1.926   .     S
O1518  Zn1527  1.916   .     S
O1519  Zn1527  1.929   .     S
O1520  Zn1530  1.929   .     S
O1521  Zn1528  1.936   .     S
O1522  Zn1529  1.946   .     S
O1523  Zn1530  1.943   .     S
O1524  Zn1527  1.933   .     S
O1525  Zn1528  1.934   .     S
O1526  Zn1529  1.931   .     S
C1531  O1611   1.271   .     A
C1531  C1541   1.438   .     S
C1531  O1613   1.261   .     A
C1532  C1566   1.411   .     A
C1532  C1533   1.397   .     A
C1532  H1586   1.078   .     S
C1533  C1560   1.447   .     S
C1533  C725    1.424   1_556 S
C1534  O1614   1.270   .     A
C1534  C1540   1.460   .     S
C1534  O1612   1.282   .     A
C1535  C1536   1.426   .     A
C1535  C1537   1.431   .     A
C1536  C1539   1.416   .     A
C1536  C1567   1.426   .     A
C1537  C1538   1.410   .     A
C1537  C1554   1.449   .     S
C1538  C1550   1.406   .     A
C1538  N1601   1.428   .     S
C1539  C1550   1.397   .     A
C1539  C1558   1.454   .     S
C1540  C1361   1.355   1_655 S
C1540  C1375   1.452   1_655 S
C1542  C1562   1.452   .     S
C1542  C1551   1.412   .     A
C1542  C1549   1.413   .     A
C1543  C1546   1.456   .     S
C1543  C1004   1.340   1_565 S
C1543  N1059   1.432   1_565 S
C1544  C1545   1.436   .     S
C1545  O1609   1.279   .     A
C1545  O1615   1.275   .     A
C1546  O1616   1.266   .     A
C1546  O1610   1.273   .     A
C1547  C1550   1.466   .     S
C1547  O1607   1.277   .     A
C1547  O1605   1.277   .     A
C1548  C1549   1.490   .     S
C1548  O1608   1.292   .     A
C1548  O1606   1.285   .     A
C1549  C1553   1.395   .     A
C1551  C1561   1.454   .     S
C1551  C1565   1.430   .     A
C1552  H1590   1.111   .     S
C1552  N1593   1.446   .     S
C1552  H1589   1.109   .     S
C1553  H1581   1.075   .     S
C1553  C1564   1.408   .     A
C1554  N1596   1.158   .     T
C1555  N1597   1.157   .     T
C1556  N1598   1.446   .     S
C1556  H1592   1.111   .     S
C1556  H1572   1.109   .     S
C1556  H1391   1.112   1_655 S
C1557  H1574   1.111   .     S
C1557  N1599   1.446   .     S
C1557  H1576   1.110   .     S
C1558  N1600   1.157   .     T
C1559  H1579   1.111   .     S
C1559  H1580   1.111   .     S
C1559  H1578   1.110   .     S
C1559  N1601   1.446   .     S
C1560  N1602   1.158   .     T
C1561  N793    1.158   1_556 S
C1562  N1594   1.158   .     T
C1563  H1585   1.110   .     S
C1563  N1595   1.448   .     S
C1563  H1583   1.111   .     S
C1563  H1584   1.110   .     S
C1564  C1565   1.425   .     A
C1564  C1566   1.426   .     A
C1565  C759    1.425   1_556 S
C1566  C757    1.406   1_556 S
C1567  C1568   1.418   .     A
C1568  N1595   1.433   .     S
C1568  C1569   1.414   .     A
C1569  N1593   1.426   .     S
H1570  C1004   1.086   1_565 S
H1573  N1599   1.031   .     S
H1575  C1017   1.110   1_565 S
H1577  N1601   1.031   .     S
H1582  N1595   1.028   .     S
H1587  N1593   1.030   .     S
H1588  C1372   1.110   1_655 S
H1591  N1598   1.032   .     S
N1598  C1361   1.427   1_655 S
O1604  Zn1619  1.929   .     S
O1604  Zn1617  1.956   .     S
O1604  Zn1620  1.933   .     S
O1604  Zn1618  1.947   .     S
O1605  Zn1618  1.917   .     S
O1606  Zn1620  1.928   .     S
O1607  Zn1619  1.926   .     S
O1608  Zn1617  1.916   .     S
O1609  Zn1617  1.929   .     S
O1610  Zn1620  1.929   .     S
O1611  Zn1618  1.936   .     S
O1612  Zn1619  1.946   .     S
O1613  Zn1620  1.943   .     S
O1614  Zn1617  1.933   .     S
O1615  Zn1618  1.934   .     S
O1616  Zn1619  1.931   .     S
