data_str_m1_o10_o16_pcu_sym.229
_audit_creation_date              2020-01-03
_audit_creation_method            'Materials Studio'
_symmetry_space_group_name_H-M    'P1'
_symmetry_Int_Tables_number       1
_symmetry_cell_setting            triclinic
loop_
_symmetry_equiv_pos_as_xyz
  x,y,z
_cell_length_a                    32.5003
_cell_length_b                    32.7033
_cell_length_c                    31.0500
_cell_angle_alpha                 97.0485
_cell_angle_beta                  74.7430
_cell_angle_gamma                 98.4161
loop_
_atom_site_label
_atom_site_type_symbol
_atom_site_fract_x
_atom_site_fract_y
_atom_site_fract_z
_atom_site_U_iso_or_equiv
_atom_site_adp_type
_atom_site_occupancy
C1     C     0.05260   0.15916   0.26071   0.00000  Uiso   1.00
C2     C     0.18012   0.16733   0.05725   0.00000  Uiso   1.00
C3     C     0.19702   0.09866   0.06257   0.00000  Uiso   1.00
C4     C     0.28081   0.17404   0.24009   0.00000  Uiso   1.00
C5     C     0.14324   0.19460   0.41958   0.00000  Uiso   1.00
C6     C     0.32708   0.17736   0.23608   0.00000  Uiso   1.00
C7     C     0.00749   0.15722   0.26366   0.00000  Uiso   1.00
C8     C     0.17798   0.32223   0.23789   0.00000  Uiso   1.00
C9     C     0.14983   0.01275   0.26604   0.00000  Uiso   1.00
C10    C     0.15685   0.05607   0.25944   0.00000  Uiso   1.00
C11    C     0.17606   0.27785   0.24053   0.00000  Uiso   1.00
C12    C     0.13815   0.24869   0.48079   0.00000  Uiso   1.00
C13    C     0.18502   0.14798   0.12942   0.00000  Uiso   1.00
C14    C     0.14808   0.18431   0.37104   0.00000  Uiso   1.00
C15    C     0.19125   0.08604   0.02005   0.00000  Uiso   1.00
C16    C     0.19077   0.13899   0.08142   0.00000  Uiso   1.00
C17    C     0.13493   0.23488   0.43760   0.00000  Uiso   1.00
C18    C     0.11282   0.33082   0.30463   0.00000  Uiso   1.00
C19    C     0.08633   0.03147   0.33234   0.00000  Uiso   1.00
C20    C     0.05034   0.01351   0.37003   0.00000  Uiso   1.00
C21    C     0.15083   0.22310   0.00634   0.00000  Uiso   1.00
C22    C     0.15872   0.18189   0.48981   0.00000  Uiso   1.00
C23    C     0.15226   0.16692   0.44677   0.00000  Uiso   1.00
C24    C     0.17256   0.15493   0.01455   0.00000  Uiso   1.00
C25    C     0.17795   0.11333   0.49646   0.00000  Uiso   1.00
C26    C     0.16809   0.09856   0.45597   0.00000  Uiso   1.00
C27    C     0.15449   0.12459   0.43204   0.00000  Uiso   1.00
H28    H     0.20441   0.07638   0.08172   0.00000  Uiso   1.00
H29    H     0.14490   0.11067   0.40225   0.00000  Uiso   1.00
H30    H     0.02813   0.32304   0.35603   0.00000  Uiso   1.00
H31    H     0.06390   0.33255   0.39309   0.00000  Uiso   1.00
H32    H     0.03187   0.03868   0.38940   0.00000  Uiso   1.00
H33    H     0.10742   0.05567   0.34746   0.00000  Uiso   1.00
H34    H     0.07183   0.04620   0.31037   0.00000  Uiso   1.00
H35    H     0.09050   0.30710   0.29061   0.00000  Uiso   1.00
H36    H     0.12625   0.31668   0.32797   0.00000  Uiso   1.00
H37    H     0.00828   0.21946   0.18844   0.00000  Uiso   1.00
H38    H     0.03979   0.18127   0.17800   0.00000  Uiso   1.00
H39    H     0.31888   0.13849   0.28856   0.00000  Uiso   1.00
H40    H     0.20363   0.00289   0.21179   0.00000  Uiso   1.00
H41    H     0.17023   0.06640   0.44300   0.00000  Uiso   1.00
H42    H     0.19525   0.05430   0.00645   0.00000  Uiso   1.00
H43    H     0.17523   0.19773   0.07400   0.00000  Uiso   1.00
H44    H     0.12762   0.25643   0.41759   0.00000  Uiso   1.00
H45    H     0.15380   0.23654   0.03895   0.00000  Uiso   1.00
H46    H     0.13217   0.28006   0.49408   0.00000  Uiso   1.00
N47    N     0.02408   0.20183   0.20342   0.00000  Uiso   1.00
O48    O     0.16667   0.16667   0.25000   0.00000  Uiso   1.00
O49    O     0.15451   0.12637   0.15459   0.00000  Uiso   1.00
O50    O     0.12940   0.20391   0.34968   0.00000  Uiso   1.00
O51    O     0.20824   0.17759   0.14606   0.00000  Uiso   1.00
O52    O     0.17451   0.15880   0.34968   0.00000  Uiso   1.00
O53    O     0.17930   0.08019   0.28214   0.00000  Uiso   1.00
O54    O     0.14632   0.26085   0.27014   0.00000  Uiso   1.00
O55    O     0.07412   0.13291   0.23413   0.00000  Uiso   1.00
O56    O     0.26693   0.19272   0.21361   0.00000  Uiso   1.00
O57    O     0.07071   0.18878   0.28213   0.00000  Uiso   1.00
O58    O     0.25491   0.15226   0.27014   0.00000  Uiso   1.00
O59    O     0.13760   0.06944   0.23413   0.00000  Uiso   1.00
O60    O     0.20345   0.25620   0.21361   0.00000  Uiso   1.00
Zn61   Zn    0.19338   0.13994   0.28734   0.00000  Uiso   1.00
Zn62   Zn    0.13379   0.12458   0.21876   0.00000  Uiso   1.00
Zn63   Zn    0.21056   0.19775   0.20657   0.00000  Uiso   1.00
Zn64   Zn    0.12893   0.20439   0.28734   0.00000  Uiso   1.00
C65    C     0.38593   0.15916   0.26071   0.00000  Uiso   1.00
C66    C     0.51346   0.16733   0.05725   0.00000  Uiso   1.00
C67    C     0.53035   0.09866   0.06257   0.00000  Uiso   1.00
C68    C     0.61414   0.17404   0.24009   0.00000  Uiso   1.00
C69    C     0.47658   0.19460   0.41958   0.00000  Uiso   1.00
C70    C     0.66041   0.17736   0.23608   0.00000  Uiso   1.00
C71    C     0.34082   0.15722   0.26366   0.00000  Uiso   1.00
C72    C     0.51131   0.32223   0.23789   0.00000  Uiso   1.00
C73    C     0.48317   0.01275   0.26604   0.00000  Uiso   1.00
C74    C     0.49018   0.05607   0.25944   0.00000  Uiso   1.00
C75    C     0.50939   0.27785   0.24053   0.00000  Uiso   1.00
C76    C     0.47148   0.24869   0.48079   0.00000  Uiso   1.00
C77    C     0.51835   0.14798   0.12942   0.00000  Uiso   1.00
C78    C     0.48141   0.18431   0.37104   0.00000  Uiso   1.00
C79    C     0.52458   0.08604   0.02005   0.00000  Uiso   1.00
C80    C     0.52410   0.13899   0.08142   0.00000  Uiso   1.00
C81    C     0.46826   0.23488   0.43760   0.00000  Uiso   1.00
C82    C     0.44615   0.33082   0.30463   0.00000  Uiso   1.00
C83    C     0.41966   0.03147   0.33234   0.00000  Uiso   1.00
C84    C     0.38368   0.01351   0.37003   0.00000  Uiso   1.00
C85    C     0.48416   0.22310   0.00634   0.00000  Uiso   1.00
C86    C     0.49205   0.18189   0.48981   0.00000  Uiso   1.00
C87    C     0.48559   0.16692   0.44677   0.00000  Uiso   1.00
C88    C     0.50590   0.15493   0.01455   0.00000  Uiso   1.00
C89    C     0.51128   0.11333   0.49646   0.00000  Uiso   1.00
C90    C     0.50142   0.09856   0.45597   0.00000  Uiso   1.00
C91    C     0.48782   0.12459   0.43204   0.00000  Uiso   1.00
H92    H     0.53774   0.07638   0.08172   0.00000  Uiso   1.00
H93    H     0.47823   0.11067   0.40225   0.00000  Uiso   1.00
H94    H     0.36146   0.32304   0.35603   0.00000  Uiso   1.00
H95    H     0.39723   0.33255   0.39309   0.00000  Uiso   1.00
H96    H     0.36520   0.03868   0.38940   0.00000  Uiso   1.00
H97    H     0.44076   0.05567   0.34746   0.00000  Uiso   1.00
H98    H     0.40516   0.04620   0.31037   0.00000  Uiso   1.00
H99    H     0.42383   0.30710   0.29061   0.00000  Uiso   1.00
H100   H     0.45959   0.31668   0.32797   0.00000  Uiso   1.00
H101   H     0.34161   0.21946   0.18844   0.00000  Uiso   1.00
H102   H     0.37312   0.18127   0.17800   0.00000  Uiso   1.00
H103   H     0.65221   0.13849   0.28856   0.00000  Uiso   1.00
H104   H     0.53697   0.00289   0.21179   0.00000  Uiso   1.00
H105   H     0.50356   0.06640   0.44300   0.00000  Uiso   1.00
H106   H     0.52858   0.05430   0.00645   0.00000  Uiso   1.00
H107   H     0.50856   0.19773   0.07400   0.00000  Uiso   1.00
H108   H     0.46095   0.25643   0.41759   0.00000  Uiso   1.00
H109   H     0.48713   0.23654   0.03895   0.00000  Uiso   1.00
H110   H     0.46550   0.28006   0.49408   0.00000  Uiso   1.00
N111   N     0.35741   0.20183   0.20342   0.00000  Uiso   1.00
O112   O     0.50000   0.16667   0.25000   0.00000  Uiso   1.00
O113   O     0.48784   0.12637   0.15459   0.00000  Uiso   1.00
O114   O     0.46274   0.20391   0.34968   0.00000  Uiso   1.00
O115   O     0.54157   0.17759   0.14606   0.00000  Uiso   1.00
O116   O     0.50785   0.15880   0.34968   0.00000  Uiso   1.00
O117   O     0.51264   0.08019   0.28214   0.00000  Uiso   1.00
O118   O     0.47965   0.26085   0.27014   0.00000  Uiso   1.00
O119   O     0.40745   0.13291   0.23413   0.00000  Uiso   1.00
O120   O     0.60026   0.19272   0.21361   0.00000  Uiso   1.00
O121   O     0.40405   0.18878   0.28213   0.00000  Uiso   1.00
O122   O     0.58824   0.15226   0.27014   0.00000  Uiso   1.00
O123   O     0.47093   0.06944   0.23413   0.00000  Uiso   1.00
O124   O     0.53678   0.25620   0.21361   0.00000  Uiso   1.00
Zn125  Zn    0.52672   0.13994   0.28734   0.00000  Uiso   1.00
Zn126  Zn    0.46713   0.12458   0.21876   0.00000  Uiso   1.00
Zn127  Zn    0.54389   0.19775   0.20657   0.00000  Uiso   1.00
Zn128  Zn    0.46226   0.20439   0.28734   0.00000  Uiso   1.00
C129   C     0.71927   0.15916   0.26071   0.00000  Uiso   1.00
C130   C     0.84679   0.16733   0.05725   0.00000  Uiso   1.00
C131   C     0.86369   0.09866   0.06257   0.00000  Uiso   1.00
C132   C     0.94748   0.17404   0.24009   0.00000  Uiso   1.00
C133   C     0.80991   0.19460   0.41958   0.00000  Uiso   1.00
C134   C     0.99374   0.17736   0.23608   0.00000  Uiso   1.00
C135   C     0.67416   0.15722   0.26366   0.00000  Uiso   1.00
C136   C     0.84464   0.32223   0.23789   0.00000  Uiso   1.00
C137   C     0.81650   0.01275   0.26604   0.00000  Uiso   1.00
C138   C     0.82352   0.05607   0.25944   0.00000  Uiso   1.00
C139   C     0.84272   0.27785   0.24053   0.00000  Uiso   1.00
C140   C     0.80481   0.24869   0.48079   0.00000  Uiso   1.00
C141   C     0.85168   0.14798   0.12942   0.00000  Uiso   1.00
C142   C     0.81474   0.18431   0.37104   0.00000  Uiso   1.00
C143   C     0.85791   0.08604   0.02005   0.00000  Uiso   1.00
C144   C     0.85743   0.13899   0.08142   0.00000  Uiso   1.00
C145   C     0.80160   0.23488   0.43760   0.00000  Uiso   1.00
C146   C     0.77949   0.33082   0.30463   0.00000  Uiso   1.00
C147   C     0.75300   0.03147   0.33234   0.00000  Uiso   1.00
C148   C     0.71701   0.01351   0.37003   0.00000  Uiso   1.00
C149   C     0.81749   0.22310   0.00634   0.00000  Uiso   1.00
C150   C     0.82538   0.18189   0.48981   0.00000  Uiso   1.00
C151   C     0.81892   0.16692   0.44677   0.00000  Uiso   1.00
C152   C     0.83923   0.15493   0.01455   0.00000  Uiso   1.00
C153   C     0.84461   0.11333   0.49646   0.00000  Uiso   1.00
C154   C     0.83476   0.09856   0.45597   0.00000  Uiso   1.00
C155   C     0.82116   0.12459   0.43204   0.00000  Uiso   1.00
H156   H     0.87107   0.07638   0.08172   0.00000  Uiso   1.00
H157   H     0.81156   0.11067   0.40225   0.00000  Uiso   1.00
H158   H     0.69480   0.32304   0.35603   0.00000  Uiso   1.00
H159   H     0.73056   0.33255   0.39309   0.00000  Uiso   1.00
H160   H     0.69854   0.03868   0.38940   0.00000  Uiso   1.00
H161   H     0.77409   0.05567   0.34746   0.00000  Uiso   1.00
H162   H     0.73849   0.04620   0.31037   0.00000  Uiso   1.00
H163   H     0.75716   0.30710   0.29061   0.00000  Uiso   1.00
H164   H     0.79292   0.31668   0.32797   0.00000  Uiso   1.00
H165   H     0.67494   0.21946   0.18844   0.00000  Uiso   1.00
H166   H     0.70645   0.18127   0.17800   0.00000  Uiso   1.00
H167   H     0.98554   0.13849   0.28856   0.00000  Uiso   1.00
H168   H     0.87030   0.00289   0.21179   0.00000  Uiso   1.00
H169   H     0.83690   0.06640   0.44300   0.00000  Uiso   1.00
H170   H     0.86192   0.05430   0.00645   0.00000  Uiso   1.00
H171   H     0.84189   0.19773   0.07400   0.00000  Uiso   1.00
H172   H     0.79429   0.25643   0.41759   0.00000  Uiso   1.00
H173   H     0.82046   0.23654   0.03895   0.00000  Uiso   1.00
H174   H     0.79884   0.28006   0.49408   0.00000  Uiso   1.00
N175   N     0.69074   0.20183   0.20342   0.00000  Uiso   1.00
O176   O     0.83333   0.16667   0.25000   0.00000  Uiso   1.00
O177   O     0.82118   0.12637   0.15459   0.00000  Uiso   1.00
O178   O     0.79607   0.20391   0.34968   0.00000  Uiso   1.00
O179   O     0.87491   0.17759   0.14606   0.00000  Uiso   1.00
O180   O     0.84118   0.15880   0.34968   0.00000  Uiso   1.00
O181   O     0.84597   0.08019   0.28214   0.00000  Uiso   1.00
O182   O     0.81298   0.26085   0.27014   0.00000  Uiso   1.00
O183   O     0.74078   0.13291   0.23413   0.00000  Uiso   1.00
O184   O     0.93360   0.19272   0.21361   0.00000  Uiso   1.00
O185   O     0.73738   0.18878   0.28213   0.00000  Uiso   1.00
O186   O     0.92158   0.15226   0.27014   0.00000  Uiso   1.00
O187   O     0.80426   0.06944   0.23413   0.00000  Uiso   1.00
O188   O     0.87012   0.25620   0.21361   0.00000  Uiso   1.00
Zn189  Zn    0.86005   0.13994   0.28734   0.00000  Uiso   1.00
Zn190  Zn    0.80046   0.12458   0.21876   0.00000  Uiso   1.00
Zn191  Zn    0.87723   0.19775   0.20657   0.00000  Uiso   1.00
Zn192  Zn    0.79560   0.20439   0.28734   0.00000  Uiso   1.00
C193   C     0.05260   0.49249   0.26071   0.00000  Uiso   1.00
C194   C     0.18012   0.50066   0.05725   0.00000  Uiso   1.00
C195   C     0.19702   0.43199   0.06257   0.00000  Uiso   1.00
C196   C     0.28081   0.50738   0.24009   0.00000  Uiso   1.00
C197   C     0.14324   0.52793   0.41958   0.00000  Uiso   1.00
C198   C     0.32708   0.51070   0.23608   0.00000  Uiso   1.00
C199   C     0.00749   0.49056   0.26366   0.00000  Uiso   1.00
C200   C     0.17798   0.65556   0.23789   0.00000  Uiso   1.00
C201   C     0.14983   0.34609   0.26604   0.00000  Uiso   1.00
C202   C     0.15685   0.38940   0.25944   0.00000  Uiso   1.00
C203   C     0.17606   0.61118   0.24053   0.00000  Uiso   1.00
C204   C     0.13815   0.58203   0.48079   0.00000  Uiso   1.00
C205   C     0.18502   0.48132   0.12942   0.00000  Uiso   1.00
C206   C     0.14808   0.51764   0.37104   0.00000  Uiso   1.00
C207   C     0.19125   0.41937   0.02005   0.00000  Uiso   1.00
C208   C     0.19077   0.47232   0.08142   0.00000  Uiso   1.00
C209   C     0.13493   0.56821   0.43760   0.00000  Uiso   1.00
C210   C     0.11282   0.66415   0.30463   0.00000  Uiso   1.00
C211   C     0.08633   0.36481   0.33234   0.00000  Uiso   1.00
C212   C     0.05034   0.34684   0.37003   0.00000  Uiso   1.00
C213   C     0.15083   0.55643   0.00634   0.00000  Uiso   1.00
C214   C     0.15872   0.51522   0.48981   0.00000  Uiso   1.00
C215   C     0.15226   0.50026   0.44677   0.00000  Uiso   1.00
C216   C     0.17256   0.48826   0.01455   0.00000  Uiso   1.00
C217   C     0.17795   0.44666   0.49646   0.00000  Uiso   1.00
C218   C     0.16809   0.43190   0.45597   0.00000  Uiso   1.00
C219   C     0.15449   0.45793   0.43204   0.00000  Uiso   1.00
H220   H     0.20441   0.40971   0.08172   0.00000  Uiso   1.00
H221   H     0.14490   0.44400   0.40225   0.00000  Uiso   1.00
H222   H     0.02813   0.65638   0.35603   0.00000  Uiso   1.00
H223   H     0.06390   0.66589   0.39309   0.00000  Uiso   1.00
H224   H     0.03187   0.37201   0.38940   0.00000  Uiso   1.00
H225   H     0.10742   0.38900   0.34746   0.00000  Uiso   1.00
H226   H     0.07183   0.37953   0.31037   0.00000  Uiso   1.00
H227   H     0.09050   0.64043   0.29061   0.00000  Uiso   1.00
H228   H     0.12625   0.65002   0.32797   0.00000  Uiso   1.00
H229   H     0.00828   0.55279   0.18844   0.00000  Uiso   1.00
H230   H     0.03979   0.51460   0.17800   0.00000  Uiso   1.00
H231   H     0.31888   0.47182   0.28856   0.00000  Uiso   1.00
H232   H     0.20363   0.33623   0.21179   0.00000  Uiso   1.00
H233   H     0.17023   0.39974   0.44300   0.00000  Uiso   1.00
H234   H     0.19525   0.38763   0.00645   0.00000  Uiso   1.00
H235   H     0.17523   0.53107   0.07400   0.00000  Uiso   1.00
H236   H     0.12762   0.58977   0.41759   0.00000  Uiso   1.00
H237   H     0.15380   0.56988   0.03895   0.00000  Uiso   1.00
H238   H     0.13217   0.61339   0.49408   0.00000  Uiso   1.00
N239   N     0.02408   0.53516   0.20342   0.00000  Uiso   1.00
O240   O     0.16667   0.50000   0.25000   0.00000  Uiso   1.00
O241   O     0.15451   0.45970   0.15459   0.00000  Uiso   1.00
O242   O     0.12940   0.53724   0.34968   0.00000  Uiso   1.00
O243   O     0.20824   0.51092   0.14606   0.00000  Uiso   1.00
O244   O     0.17451   0.49213   0.34968   0.00000  Uiso   1.00
O245   O     0.17930   0.41352   0.28214   0.00000  Uiso   1.00
O246   O     0.14632   0.59418   0.27014   0.00000  Uiso   1.00
O247   O     0.07412   0.46625   0.23413   0.00000  Uiso   1.00
O248   O     0.26693   0.52605   0.21361   0.00000  Uiso   1.00
O249   O     0.07071   0.52211   0.28213   0.00000  Uiso   1.00
O250   O     0.25491   0.48559   0.27014   0.00000  Uiso   1.00
O251   O     0.13760   0.40277   0.23413   0.00000  Uiso   1.00
O252   O     0.20345   0.58953   0.21361   0.00000  Uiso   1.00
Zn253  Zn    0.19338   0.47327   0.28734   0.00000  Uiso   1.00
Zn254  Zn    0.13379   0.45791   0.21876   0.00000  Uiso   1.00
Zn255  Zn    0.21056   0.53109   0.20657   0.00000  Uiso   1.00
Zn256  Zn    0.12893   0.53773   0.28734   0.00000  Uiso   1.00
C257   C     0.38593   0.49249   0.26071   0.00000  Uiso   1.00
C258   C     0.51346   0.50066   0.05725   0.00000  Uiso   1.00
C259   C     0.53035   0.43199   0.06257   0.00000  Uiso   1.00
C260   C     0.61414   0.50738   0.24009   0.00000  Uiso   1.00
C261   C     0.47658   0.52793   0.41958   0.00000  Uiso   1.00
C262   C     0.66041   0.51070   0.23608   0.00000  Uiso   1.00
C263   C     0.34082   0.49056   0.26366   0.00000  Uiso   1.00
C264   C     0.51131   0.65556   0.23789   0.00000  Uiso   1.00
C265   C     0.48317   0.34609   0.26604   0.00000  Uiso   1.00
C266   C     0.49018   0.38940   0.25944   0.00000  Uiso   1.00
C267   C     0.50939   0.61118   0.24053   0.00000  Uiso   1.00
C268   C     0.47148   0.58203   0.48079   0.00000  Uiso   1.00
C269   C     0.51835   0.48132   0.12942   0.00000  Uiso   1.00
C270   C     0.48141   0.51764   0.37104   0.00000  Uiso   1.00
C271   C     0.52458   0.41937   0.02005   0.00000  Uiso   1.00
C272   C     0.52410   0.47232   0.08142   0.00000  Uiso   1.00
C273   C     0.46826   0.56821   0.43760   0.00000  Uiso   1.00
C274   C     0.44615   0.66415   0.30463   0.00000  Uiso   1.00
C275   C     0.41966   0.36481   0.33234   0.00000  Uiso   1.00
C276   C     0.38368   0.34684   0.37003   0.00000  Uiso   1.00
C277   C     0.48416   0.55643   0.00634   0.00000  Uiso   1.00
C278   C     0.49205   0.51522   0.48981   0.00000  Uiso   1.00
C279   C     0.48559   0.50026   0.44677   0.00000  Uiso   1.00
C280   C     0.50590   0.48826   0.01455   0.00000  Uiso   1.00
C281   C     0.51128   0.44666   0.49646   0.00000  Uiso   1.00
C282   C     0.50142   0.43190   0.45597   0.00000  Uiso   1.00
C283   C     0.48782   0.45793   0.43204   0.00000  Uiso   1.00
H284   H     0.53774   0.40971   0.08172   0.00000  Uiso   1.00
H285   H     0.47823   0.44400   0.40225   0.00000  Uiso   1.00
H286   H     0.36146   0.65638   0.35603   0.00000  Uiso   1.00
H287   H     0.39723   0.66589   0.39309   0.00000  Uiso   1.00
H288   H     0.36520   0.37201   0.38940   0.00000  Uiso   1.00
H289   H     0.44076   0.38900   0.34746   0.00000  Uiso   1.00
H290   H     0.40516   0.37953   0.31037   0.00000  Uiso   1.00
H291   H     0.42383   0.64043   0.29061   0.00000  Uiso   1.00
H292   H     0.45959   0.65002   0.32797   0.00000  Uiso   1.00
H293   H     0.34161   0.55279   0.18844   0.00000  Uiso   1.00
H294   H     0.37312   0.51460   0.17800   0.00000  Uiso   1.00
H295   H     0.65221   0.47182   0.28856   0.00000  Uiso   1.00
H296   H     0.53697   0.33623   0.21179   0.00000  Uiso   1.00
H297   H     0.50356   0.39974   0.44300   0.00000  Uiso   1.00
H298   H     0.52858   0.38763   0.00645   0.00000  Uiso   1.00
H299   H     0.50856   0.53107   0.07400   0.00000  Uiso   1.00
H300   H     0.46095   0.58977   0.41759   0.00000  Uiso   1.00
H301   H     0.48713   0.56988   0.03895   0.00000  Uiso   1.00
H302   H     0.46550   0.61339   0.49408   0.00000  Uiso   1.00
N303   N     0.35741   0.53516   0.20342   0.00000  Uiso   1.00
O304   O     0.50000   0.50000   0.25000   0.00000  Uiso   1.00
O305   O     0.48784   0.45970   0.15459   0.00000  Uiso   1.00
O306   O     0.46274   0.53724   0.34968   0.00000  Uiso   1.00
O307   O     0.54157   0.51092   0.14606   0.00000  Uiso   1.00
O308   O     0.50785   0.49213   0.34968   0.00000  Uiso   1.00
O309   O     0.51264   0.41352   0.28214   0.00000  Uiso   1.00
O310   O     0.47965   0.59418   0.27014   0.00000  Uiso   1.00
O311   O     0.40745   0.46625   0.23413   0.00000  Uiso   1.00
O312   O     0.60026   0.52605   0.21361   0.00000  Uiso   1.00
O313   O     0.40405   0.52211   0.28213   0.00000  Uiso   1.00
O314   O     0.58824   0.48559   0.27014   0.00000  Uiso   1.00
O315   O     0.47093   0.40277   0.23413   0.00000  Uiso   1.00
O316   O     0.53678   0.58953   0.21361   0.00000  Uiso   1.00
Zn317  Zn    0.52672   0.47327   0.28734   0.00000  Uiso   1.00
Zn318  Zn    0.46713   0.45791   0.21876   0.00000  Uiso   1.00
Zn319  Zn    0.54389   0.53109   0.20657   0.00000  Uiso   1.00
Zn320  Zn    0.46226   0.53773   0.28734   0.00000  Uiso   1.00
C321   C     0.71927   0.49249   0.26071   0.00000  Uiso   1.00
C322   C     0.84679   0.50066   0.05725   0.00000  Uiso   1.00
C323   C     0.86369   0.43199   0.06257   0.00000  Uiso   1.00
C324   C     0.94748   0.50738   0.24009   0.00000  Uiso   1.00
C325   C     0.80991   0.52793   0.41958   0.00000  Uiso   1.00
C326   C     0.99374   0.51070   0.23608   0.00000  Uiso   1.00
C327   C     0.67416   0.49056   0.26366   0.00000  Uiso   1.00
C328   C     0.84464   0.65556   0.23789   0.00000  Uiso   1.00
C329   C     0.81650   0.34609   0.26604   0.00000  Uiso   1.00
C330   C     0.82352   0.38940   0.25944   0.00000  Uiso   1.00
C331   C     0.84272   0.61118   0.24053   0.00000  Uiso   1.00
C332   C     0.80481   0.58203   0.48079   0.00000  Uiso   1.00
C333   C     0.85168   0.48132   0.12942   0.00000  Uiso   1.00
C334   C     0.81474   0.51764   0.37104   0.00000  Uiso   1.00
C335   C     0.85791   0.41937   0.02005   0.00000  Uiso   1.00
C336   C     0.85743   0.47232   0.08142   0.00000  Uiso   1.00
C337   C     0.80160   0.56821   0.43760   0.00000  Uiso   1.00
C338   C     0.77949   0.66415   0.30463   0.00000  Uiso   1.00
C339   C     0.75300   0.36481   0.33234   0.00000  Uiso   1.00
C340   C     0.71701   0.34684   0.37003   0.00000  Uiso   1.00
C341   C     0.81749   0.55643   0.00634   0.00000  Uiso   1.00
C342   C     0.82538   0.51522   0.48981   0.00000  Uiso   1.00
C343   C     0.81892   0.50026   0.44677   0.00000  Uiso   1.00
C344   C     0.83923   0.48826   0.01455   0.00000  Uiso   1.00
C345   C     0.84461   0.44666   0.49646   0.00000  Uiso   1.00
C346   C     0.83476   0.43190   0.45597   0.00000  Uiso   1.00
C347   C     0.82116   0.45793   0.43204   0.00000  Uiso   1.00
H348   H     0.87107   0.40971   0.08172   0.00000  Uiso   1.00
H349   H     0.81156   0.44400   0.40225   0.00000  Uiso   1.00
H350   H     0.69480   0.65638   0.35603   0.00000  Uiso   1.00
H351   H     0.73056   0.66589   0.39309   0.00000  Uiso   1.00
H352   H     0.69854   0.37201   0.38940   0.00000  Uiso   1.00
H353   H     0.77409   0.38900   0.34746   0.00000  Uiso   1.00
H354   H     0.73849   0.37953   0.31037   0.00000  Uiso   1.00
H355   H     0.75716   0.64043   0.29061   0.00000  Uiso   1.00
H356   H     0.79292   0.65002   0.32797   0.00000  Uiso   1.00
H357   H     0.67494   0.55279   0.18844   0.00000  Uiso   1.00
H358   H     0.70645   0.51460   0.17800   0.00000  Uiso   1.00
H359   H     0.98554   0.47182   0.28856   0.00000  Uiso   1.00
H360   H     0.87030   0.33623   0.21179   0.00000  Uiso   1.00
H361   H     0.83690   0.39974   0.44300   0.00000  Uiso   1.00
H362   H     0.86192   0.38763   0.00645   0.00000  Uiso   1.00
H363   H     0.84189   0.53107   0.07400   0.00000  Uiso   1.00
H364   H     0.79429   0.58977   0.41759   0.00000  Uiso   1.00
H365   H     0.82046   0.56988   0.03895   0.00000  Uiso   1.00
H366   H     0.79884   0.61339   0.49408   0.00000  Uiso   1.00
N367   N     0.69074   0.53516   0.20342   0.00000  Uiso   1.00
O368   O     0.83333   0.50000   0.25000   0.00000  Uiso   1.00
O369   O     0.82118   0.45970   0.15459   0.00000  Uiso   1.00
O370   O     0.79607   0.53724   0.34968   0.00000  Uiso   1.00
O371   O     0.87491   0.51092   0.14606   0.00000  Uiso   1.00
O372   O     0.84118   0.49213   0.34968   0.00000  Uiso   1.00
O373   O     0.84597   0.41352   0.28214   0.00000  Uiso   1.00
O374   O     0.81298   0.59418   0.27014   0.00000  Uiso   1.00
O375   O     0.74078   0.46625   0.23413   0.00000  Uiso   1.00
O376   O     0.93360   0.52605   0.21361   0.00000  Uiso   1.00
O377   O     0.73738   0.52211   0.28213   0.00000  Uiso   1.00
O378   O     0.92158   0.48559   0.27014   0.00000  Uiso   1.00
O379   O     0.80426   0.40277   0.23413   0.00000  Uiso   1.00
O380   O     0.87012   0.58953   0.21361   0.00000  Uiso   1.00
Zn381  Zn    0.86005   0.47327   0.28734   0.00000  Uiso   1.00
Zn382  Zn    0.80046   0.45791   0.21876   0.00000  Uiso   1.00
Zn383  Zn    0.87723   0.53109   0.20657   0.00000  Uiso   1.00
Zn384  Zn    0.79560   0.53773   0.28734   0.00000  Uiso   1.00
C385   C     0.05260   0.82582   0.26071   0.00000  Uiso   1.00
C386   C     0.18012   0.83399   0.05725   0.00000  Uiso   1.00
C387   C     0.19702   0.76533   0.06257   0.00000  Uiso   1.00
C388   C     0.28081   0.84071   0.24009   0.00000  Uiso   1.00
C389   C     0.14324   0.86127   0.41958   0.00000  Uiso   1.00
C390   C     0.32708   0.84403   0.23608   0.00000  Uiso   1.00
C391   C     0.00749   0.82389   0.26366   0.00000  Uiso   1.00
C392   C     0.17798   0.98889   0.23789   0.00000  Uiso   1.00
C393   C     0.14983   0.67942   0.26604   0.00000  Uiso   1.00
C394   C     0.15685   0.72274   0.25944   0.00000  Uiso   1.00
C395   C     0.17606   0.94452   0.24053   0.00000  Uiso   1.00
C396   C     0.13815   0.91536   0.48079   0.00000  Uiso   1.00
C397   C     0.18502   0.81465   0.12942   0.00000  Uiso   1.00
C398   C     0.14808   0.85097   0.37104   0.00000  Uiso   1.00
C399   C     0.19125   0.75270   0.02005   0.00000  Uiso   1.00
C400   C     0.19077   0.80566   0.08142   0.00000  Uiso   1.00
C401   C     0.13493   0.90154   0.43760   0.00000  Uiso   1.00
C402   C     0.11282   0.99748   0.30463   0.00000  Uiso   1.00
C403   C     0.08633   0.69814   0.33234   0.00000  Uiso   1.00
C404   C     0.05034   0.68018   0.37003   0.00000  Uiso   1.00
C405   C     0.15083   0.88977   0.00634   0.00000  Uiso   1.00
C406   C     0.15872   0.84856   0.48981   0.00000  Uiso   1.00
C407   C     0.15226   0.83359   0.44677   0.00000  Uiso   1.00
C408   C     0.17256   0.82160   0.01455   0.00000  Uiso   1.00
C409   C     0.17795   0.77999   0.49646   0.00000  Uiso   1.00
C410   C     0.16809   0.76523   0.45597   0.00000  Uiso   1.00
C411   C     0.15449   0.79126   0.43204   0.00000  Uiso   1.00
H412   H     0.20441   0.74305   0.08172   0.00000  Uiso   1.00
H413   H     0.14490   0.77733   0.40225   0.00000  Uiso   1.00
H414   H     0.02813   0.98971   0.35603   0.00000  Uiso   1.00
H415   H     0.06390   0.99922   0.39309   0.00000  Uiso   1.00
H416   H     0.03187   0.70534   0.38940   0.00000  Uiso   1.00
H417   H     0.10742   0.72233   0.34746   0.00000  Uiso   1.00
H418   H     0.07183   0.71287   0.31037   0.00000  Uiso   1.00
H419   H     0.09050   0.97377   0.29061   0.00000  Uiso   1.00
H420   H     0.12625   0.98335   0.32797   0.00000  Uiso   1.00
H421   H     0.00828   0.88612   0.18844   0.00000  Uiso   1.00
H422   H     0.03979   0.84794   0.17800   0.00000  Uiso   1.00
H423   H     0.31888   0.80516   0.28856   0.00000  Uiso   1.00
H424   H     0.20363   0.66956   0.21179   0.00000  Uiso   1.00
H425   H     0.17023   0.73307   0.44300   0.00000  Uiso   1.00
H426   H     0.19525   0.72097   0.00645   0.00000  Uiso   1.00
H427   H     0.17523   0.86440   0.07400   0.00000  Uiso   1.00
H428   H     0.12762   0.92310   0.41759   0.00000  Uiso   1.00
H429   H     0.15380   0.90321   0.03895   0.00000  Uiso   1.00
H430   H     0.13217   0.94673   0.49408   0.00000  Uiso   1.00
N431   N     0.02408   0.86849   0.20342   0.00000  Uiso   1.00
O432   O     0.16667   0.83333   0.25000   0.00000  Uiso   1.00
O433   O     0.15451   0.79304   0.15459   0.00000  Uiso   1.00
O434   O     0.12940   0.87058   0.34968   0.00000  Uiso   1.00
O435   O     0.20824   0.84425   0.14606   0.00000  Uiso   1.00
O436   O     0.17451   0.82546   0.34968   0.00000  Uiso   1.00
O437   O     0.17930   0.74686   0.28214   0.00000  Uiso   1.00
O438   O     0.14632   0.92751   0.27014   0.00000  Uiso   1.00
O439   O     0.07412   0.79958   0.23413   0.00000  Uiso   1.00
O440   O     0.26693   0.85939   0.21361   0.00000  Uiso   1.00
O441   O     0.07071   0.85544   0.28213   0.00000  Uiso   1.00
O442   O     0.25491   0.81892   0.27014   0.00000  Uiso   1.00
O443   O     0.13760   0.73610   0.23413   0.00000  Uiso   1.00
O444   O     0.20345   0.92286   0.21361   0.00000  Uiso   1.00
Zn445  Zn    0.19338   0.80661   0.28734   0.00000  Uiso   1.00
Zn446  Zn    0.13379   0.79124   0.21876   0.00000  Uiso   1.00
Zn447  Zn    0.21056   0.86442   0.20657   0.00000  Uiso   1.00
Zn448  Zn    0.12893   0.87106   0.28734   0.00000  Uiso   1.00
C449   C     0.38593   0.82582   0.26071   0.00000  Uiso   1.00
C450   C     0.51346   0.83399   0.05725   0.00000  Uiso   1.00
C451   C     0.53035   0.76533   0.06257   0.00000  Uiso   1.00
C452   C     0.61414   0.84071   0.24009   0.00000  Uiso   1.00
C453   C     0.47658   0.86127   0.41958   0.00000  Uiso   1.00
C454   C     0.66041   0.84403   0.23608   0.00000  Uiso   1.00
C455   C     0.34082   0.82389   0.26366   0.00000  Uiso   1.00
C456   C     0.51131   0.98889   0.23789   0.00000  Uiso   1.00
C457   C     0.48317   0.67942   0.26604   0.00000  Uiso   1.00
C458   C     0.49018   0.72274   0.25944   0.00000  Uiso   1.00
C459   C     0.50939   0.94452   0.24053   0.00000  Uiso   1.00
C460   C     0.47148   0.91536   0.48079   0.00000  Uiso   1.00
C461   C     0.51835   0.81465   0.12942   0.00000  Uiso   1.00
C462   C     0.48141   0.85097   0.37104   0.00000  Uiso   1.00
C463   C     0.52458   0.75270   0.02005   0.00000  Uiso   1.00
C464   C     0.52410   0.80566   0.08142   0.00000  Uiso   1.00
C465   C     0.46826   0.90154   0.43760   0.00000  Uiso   1.00
C466   C     0.44615   0.99748   0.30463   0.00000  Uiso   1.00
C467   C     0.41966   0.69814   0.33234   0.00000  Uiso   1.00
C468   C     0.38368   0.68018   0.37003   0.00000  Uiso   1.00
C469   C     0.48416   0.88977   0.00634   0.00000  Uiso   1.00
C470   C     0.49205   0.84856   0.48981   0.00000  Uiso   1.00
C471   C     0.48559   0.83359   0.44677   0.00000  Uiso   1.00
C472   C     0.50590   0.82160   0.01455   0.00000  Uiso   1.00
C473   C     0.51128   0.77999   0.49646   0.00000  Uiso   1.00
C474   C     0.50142   0.76523   0.45597   0.00000  Uiso   1.00
C475   C     0.48782   0.79126   0.43204   0.00000  Uiso   1.00
H476   H     0.53774   0.74305   0.08172   0.00000  Uiso   1.00
H477   H     0.47823   0.77733   0.40225   0.00000  Uiso   1.00
H478   H     0.36146   0.98971   0.35603   0.00000  Uiso   1.00
H479   H     0.39723   0.99922   0.39309   0.00000  Uiso   1.00
H480   H     0.36520   0.70534   0.38940   0.00000  Uiso   1.00
H481   H     0.44076   0.72233   0.34746   0.00000  Uiso   1.00
H482   H     0.40516   0.71287   0.31037   0.00000  Uiso   1.00
H483   H     0.42383   0.97377   0.29061   0.00000  Uiso   1.00
H484   H     0.45959   0.98335   0.32797   0.00000  Uiso   1.00
H485   H     0.34161   0.88612   0.18844   0.00000  Uiso   1.00
H486   H     0.37312   0.84794   0.17800   0.00000  Uiso   1.00
H487   H     0.65221   0.80516   0.28856   0.00000  Uiso   1.00
H488   H     0.53697   0.66956   0.21179   0.00000  Uiso   1.00
H489   H     0.50356   0.73307   0.44300   0.00000  Uiso   1.00
H490   H     0.52858   0.72097   0.00645   0.00000  Uiso   1.00
H491   H     0.50856   0.86440   0.07400   0.00000  Uiso   1.00
H492   H     0.46095   0.92310   0.41759   0.00000  Uiso   1.00
H493   H     0.48713   0.90321   0.03895   0.00000  Uiso   1.00
H494   H     0.46550   0.94673   0.49408   0.00000  Uiso   1.00
N495   N     0.35741   0.86849   0.20342   0.00000  Uiso   1.00
O496   O     0.50000   0.83333   0.25000   0.00000  Uiso   1.00
O497   O     0.48784   0.79304   0.15459   0.00000  Uiso   1.00
O498   O     0.46274   0.87058   0.34968   0.00000  Uiso   1.00
O499   O     0.54157   0.84425   0.14606   0.00000  Uiso   1.00
O500   O     0.50785   0.82546   0.34968   0.00000  Uiso   1.00
O501   O     0.51264   0.74686   0.28214   0.00000  Uiso   1.00
O502   O     0.47965   0.92751   0.27014   0.00000  Uiso   1.00
O503   O     0.40745   0.79958   0.23413   0.00000  Uiso   1.00
O504   O     0.60026   0.85939   0.21361   0.00000  Uiso   1.00
O505   O     0.40405   0.85544   0.28213   0.00000  Uiso   1.00
O506   O     0.58824   0.81892   0.27014   0.00000  Uiso   1.00
O507   O     0.47093   0.73610   0.23413   0.00000  Uiso   1.00
O508   O     0.53678   0.92286   0.21361   0.00000  Uiso   1.00
Zn509  Zn    0.52672   0.80661   0.28734   0.00000  Uiso   1.00
Zn510  Zn    0.46713   0.79124   0.21876   0.00000  Uiso   1.00
Zn511  Zn    0.54389   0.86442   0.20657   0.00000  Uiso   1.00
Zn512  Zn    0.46226   0.87106   0.28734   0.00000  Uiso   1.00
C513   C     0.71927   0.82582   0.26071   0.00000  Uiso   1.00
C514   C     0.84679   0.83399   0.05725   0.00000  Uiso   1.00
C515   C     0.86369   0.76533   0.06257   0.00000  Uiso   1.00
C516   C     0.94748   0.84071   0.24009   0.00000  Uiso   1.00
C517   C     0.80991   0.86127   0.41958   0.00000  Uiso   1.00
C518   C     0.99374   0.84403   0.23608   0.00000  Uiso   1.00
C519   C     0.67416   0.82389   0.26366   0.00000  Uiso   1.00
C520   C     0.84464   0.98889   0.23789   0.00000  Uiso   1.00
C521   C     0.81650   0.67942   0.26604   0.00000  Uiso   1.00
C522   C     0.82352   0.72274   0.25944   0.00000  Uiso   1.00
C523   C     0.84272   0.94452   0.24053   0.00000  Uiso   1.00
C524   C     0.80481   0.91536   0.48079   0.00000  Uiso   1.00
C525   C     0.85168   0.81465   0.12942   0.00000  Uiso   1.00
C526   C     0.81474   0.85097   0.37104   0.00000  Uiso   1.00
C527   C     0.85791   0.75270   0.02005   0.00000  Uiso   1.00
C528   C     0.85743   0.80566   0.08142   0.00000  Uiso   1.00
C529   C     0.80160   0.90154   0.43760   0.00000  Uiso   1.00
C530   C     0.77949   0.99748   0.30463   0.00000  Uiso   1.00
C531   C     0.75300   0.69814   0.33234   0.00000  Uiso   1.00
C532   C     0.71701   0.68018   0.37003   0.00000  Uiso   1.00
C533   C     0.81749   0.88977   0.00634   0.00000  Uiso   1.00
C534   C     0.82538   0.84856   0.48981   0.00000  Uiso   1.00
C535   C     0.81892   0.83359   0.44677   0.00000  Uiso   1.00
C536   C     0.83923   0.82160   0.01455   0.00000  Uiso   1.00
C537   C     0.84461   0.77999   0.49646   0.00000  Uiso   1.00
C538   C     0.83476   0.76523   0.45597   0.00000  Uiso   1.00
C539   C     0.82116   0.79126   0.43204   0.00000  Uiso   1.00
H540   H     0.87107   0.74305   0.08172   0.00000  Uiso   1.00
H541   H     0.81156   0.77733   0.40225   0.00000  Uiso   1.00
H542   H     0.69480   0.98971   0.35603   0.00000  Uiso   1.00
H543   H     0.73056   0.99922   0.39309   0.00000  Uiso   1.00
H544   H     0.69854   0.70534   0.38940   0.00000  Uiso   1.00
H545   H     0.77409   0.72233   0.34746   0.00000  Uiso   1.00
H546   H     0.73849   0.71287   0.31037   0.00000  Uiso   1.00
H547   H     0.75716   0.97377   0.29061   0.00000  Uiso   1.00
H548   H     0.79292   0.98335   0.32797   0.00000  Uiso   1.00
H549   H     0.67494   0.88612   0.18844   0.00000  Uiso   1.00
H550   H     0.70645   0.84794   0.17800   0.00000  Uiso   1.00
H551   H     0.98554   0.80516   0.28856   0.00000  Uiso   1.00
H552   H     0.87030   0.66956   0.21179   0.00000  Uiso   1.00
H553   H     0.83690   0.73307   0.44300   0.00000  Uiso   1.00
H554   H     0.86192   0.72097   0.00645   0.00000  Uiso   1.00
H555   H     0.84189   0.86440   0.07400   0.00000  Uiso   1.00
H556   H     0.79429   0.92310   0.41759   0.00000  Uiso   1.00
H557   H     0.82046   0.90321   0.03895   0.00000  Uiso   1.00
H558   H     0.79884   0.94673   0.49408   0.00000  Uiso   1.00
N559   N     0.69074   0.86849   0.20342   0.00000  Uiso   1.00
O560   O     0.83333   0.83333   0.25000   0.00000  Uiso   1.00
O561   O     0.82118   0.79304   0.15459   0.00000  Uiso   1.00
O562   O     0.79607   0.87058   0.34968   0.00000  Uiso   1.00
O563   O     0.87491   0.84425   0.14606   0.00000  Uiso   1.00
O564   O     0.84118   0.82546   0.34968   0.00000  Uiso   1.00
O565   O     0.84597   0.74686   0.28214   0.00000  Uiso   1.00
O566   O     0.81298   0.92751   0.27014   0.00000  Uiso   1.00
O567   O     0.74078   0.79958   0.23413   0.00000  Uiso   1.00
O568   O     0.93360   0.85939   0.21361   0.00000  Uiso   1.00
O569   O     0.73738   0.85544   0.28213   0.00000  Uiso   1.00
O570   O     0.92158   0.81892   0.27014   0.00000  Uiso   1.00
O571   O     0.80426   0.73610   0.23413   0.00000  Uiso   1.00
O572   O     0.87012   0.92286   0.21361   0.00000  Uiso   1.00
Zn573  Zn    0.86005   0.80661   0.28734   0.00000  Uiso   1.00
Zn574  Zn    0.80046   0.79124   0.21876   0.00000  Uiso   1.00
Zn575  Zn    0.87723   0.86442   0.20657   0.00000  Uiso   1.00
Zn576  Zn    0.79560   0.87106   0.28734   0.00000  Uiso   1.00
C577   C     0.05260   0.15916   0.76071   0.00000  Uiso   1.00
C578   C     0.18012   0.16733   0.55725   0.00000  Uiso   1.00
C579   C     0.19702   0.09866   0.56257   0.00000  Uiso   1.00
C580   C     0.28081   0.17404   0.74009   0.00000  Uiso   1.00
C581   C     0.14324   0.19460   0.91958   0.00000  Uiso   1.00
C582   C     0.32708   0.17736   0.73608   0.00000  Uiso   1.00
C583   C     0.00749   0.15722   0.76366   0.00000  Uiso   1.00
C584   C     0.17798   0.32223   0.73789   0.00000  Uiso   1.00
C585   C     0.14983   0.01275   0.76604   0.00000  Uiso   1.00
C586   C     0.15685   0.05607   0.75944   0.00000  Uiso   1.00
C587   C     0.17606   0.27785   0.74053   0.00000  Uiso   1.00
C588   C     0.13815   0.24869   0.98079   0.00000  Uiso   1.00
C589   C     0.18502   0.14798   0.62942   0.00000  Uiso   1.00
C590   C     0.14808   0.18431   0.87104   0.00000  Uiso   1.00
C591   C     0.19125   0.08604   0.52005   0.00000  Uiso   1.00
C592   C     0.19077   0.13899   0.58142   0.00000  Uiso   1.00
C593   C     0.13493   0.23488   0.93760   0.00000  Uiso   1.00
C594   C     0.11282   0.33082   0.80463   0.00000  Uiso   1.00
C595   C     0.08633   0.03147   0.83234   0.00000  Uiso   1.00
C596   C     0.05034   0.01351   0.87003   0.00000  Uiso   1.00
C597   C     0.15083   0.22310   0.50634   0.00000  Uiso   1.00
C598   C     0.15872   0.18189   0.98981   0.00000  Uiso   1.00
C599   C     0.15226   0.16692   0.94677   0.00000  Uiso   1.00
C600   C     0.17256   0.15493   0.51455   0.00000  Uiso   1.00
C601   C     0.17795   0.11333   0.99646   0.00000  Uiso   1.00
C602   C     0.16809   0.09856   0.95597   0.00000  Uiso   1.00
C603   C     0.15449   0.12459   0.93204   0.00000  Uiso   1.00
H604   H     0.20441   0.07638   0.58172   0.00000  Uiso   1.00
H605   H     0.14490   0.11067   0.90225   0.00000  Uiso   1.00
H606   H     0.02813   0.32304   0.85603   0.00000  Uiso   1.00
H607   H     0.06390   0.33255   0.89309   0.00000  Uiso   1.00
H608   H     0.03187   0.03868   0.88940   0.00000  Uiso   1.00
H609   H     0.10742   0.05567   0.84746   0.00000  Uiso   1.00
H610   H     0.07183   0.04620   0.81037   0.00000  Uiso   1.00
H611   H     0.09050   0.30710   0.79061   0.00000  Uiso   1.00
H612   H     0.12625   0.31668   0.82797   0.00000  Uiso   1.00
H613   H     0.00828   0.21946   0.68844   0.00000  Uiso   1.00
H614   H     0.03979   0.18127   0.67800   0.00000  Uiso   1.00
H615   H     0.31888   0.13849   0.78856   0.00000  Uiso   1.00
H616   H     0.20363   0.00289   0.71179   0.00000  Uiso   1.00
H617   H     0.17023   0.06640   0.94300   0.00000  Uiso   1.00
H618   H     0.19525   0.05430   0.50645   0.00000  Uiso   1.00
H619   H     0.17523   0.19773   0.57400   0.00000  Uiso   1.00
H620   H     0.12762   0.25643   0.91759   0.00000  Uiso   1.00
H621   H     0.15380   0.23654   0.53895   0.00000  Uiso   1.00
H622   H     0.13217   0.28006   0.99408   0.00000  Uiso   1.00
N623   N     0.02408   0.20183   0.70342   0.00000  Uiso   1.00
O624   O     0.16667   0.16667   0.75000   0.00000  Uiso   1.00
O625   O     0.15451   0.12637   0.65459   0.00000  Uiso   1.00
O626   O     0.12940   0.20391   0.84968   0.00000  Uiso   1.00
O627   O     0.20824   0.17759   0.64606   0.00000  Uiso   1.00
O628   O     0.17451   0.15880   0.84968   0.00000  Uiso   1.00
O629   O     0.17930   0.08019   0.78214   0.00000  Uiso   1.00
O630   O     0.14632   0.26085   0.77014   0.00000  Uiso   1.00
O631   O     0.07412   0.13291   0.73413   0.00000  Uiso   1.00
O632   O     0.26693   0.19272   0.71361   0.00000  Uiso   1.00
O633   O     0.07071   0.18878   0.78213   0.00000  Uiso   1.00
O634   O     0.25491   0.15226   0.77014   0.00000  Uiso   1.00
O635   O     0.13760   0.06944   0.73413   0.00000  Uiso   1.00
O636   O     0.20345   0.25620   0.71361   0.00000  Uiso   1.00
Zn637  Zn    0.19338   0.13994   0.78734   0.00000  Uiso   1.00
Zn638  Zn    0.13379   0.12458   0.71876   0.00000  Uiso   1.00
Zn639  Zn    0.21056   0.19775   0.70657   0.00000  Uiso   1.00
Zn640  Zn    0.12893   0.20439   0.78734   0.00000  Uiso   1.00
C641   C     0.38593   0.15916   0.76071   0.00000  Uiso   1.00
C642   C     0.51346   0.16733   0.55725   0.00000  Uiso   1.00
C643   C     0.53035   0.09866   0.56257   0.00000  Uiso   1.00
C644   C     0.61414   0.17404   0.74009   0.00000  Uiso   1.00
C645   C     0.47658   0.19460   0.91958   0.00000  Uiso   1.00
C646   C     0.66041   0.17736   0.73608   0.00000  Uiso   1.00
C647   C     0.34082   0.15722   0.76366   0.00000  Uiso   1.00
C648   C     0.51131   0.32223   0.73789   0.00000  Uiso   1.00
C649   C     0.48317   0.01275   0.76604   0.00000  Uiso   1.00
C650   C     0.49018   0.05607   0.75944   0.00000  Uiso   1.00
C651   C     0.50939   0.27785   0.74053   0.00000  Uiso   1.00
C652   C     0.47148   0.24869   0.98079   0.00000  Uiso   1.00
C653   C     0.51835   0.14798   0.62942   0.00000  Uiso   1.00
C654   C     0.48141   0.18431   0.87104   0.00000  Uiso   1.00
C655   C     0.52458   0.08604   0.52005   0.00000  Uiso   1.00
C656   C     0.52410   0.13899   0.58142   0.00000  Uiso   1.00
C657   C     0.46826   0.23488   0.93760   0.00000  Uiso   1.00
C658   C     0.44615   0.33082   0.80463   0.00000  Uiso   1.00
C659   C     0.41966   0.03147   0.83234   0.00000  Uiso   1.00
C660   C     0.38368   0.01351   0.87003   0.00000  Uiso   1.00
C661   C     0.48416   0.22310   0.50634   0.00000  Uiso   1.00
C662   C     0.49205   0.18189   0.98981   0.00000  Uiso   1.00
C663   C     0.48559   0.16692   0.94677   0.00000  Uiso   1.00
C664   C     0.50590   0.15493   0.51455   0.00000  Uiso   1.00
C665   C     0.51128   0.11333   0.99646   0.00000  Uiso   1.00
C666   C     0.50142   0.09856   0.95597   0.00000  Uiso   1.00
C667   C     0.48782   0.12459   0.93204   0.00000  Uiso   1.00
H668   H     0.53774   0.07638   0.58172   0.00000  Uiso   1.00
H669   H     0.47823   0.11067   0.90225   0.00000  Uiso   1.00
H670   H     0.36146   0.32304   0.85603   0.00000  Uiso   1.00
H671   H     0.39723   0.33255   0.89309   0.00000  Uiso   1.00
H672   H     0.36520   0.03868   0.88940   0.00000  Uiso   1.00
H673   H     0.44076   0.05567   0.84746   0.00000  Uiso   1.00
H674   H     0.40516   0.04620   0.81037   0.00000  Uiso   1.00
H675   H     0.42383   0.30710   0.79061   0.00000  Uiso   1.00
H676   H     0.45959   0.31668   0.82797   0.00000  Uiso   1.00
H677   H     0.34161   0.21946   0.68844   0.00000  Uiso   1.00
H678   H     0.37312   0.18127   0.67800   0.00000  Uiso   1.00
H679   H     0.65221   0.13849   0.78856   0.00000  Uiso   1.00
H680   H     0.53697   0.00289   0.71179   0.00000  Uiso   1.00
H681   H     0.50356   0.06640   0.94300   0.00000  Uiso   1.00
H682   H     0.52858   0.05430   0.50645   0.00000  Uiso   1.00
H683   H     0.50856   0.19773   0.57400   0.00000  Uiso   1.00
H684   H     0.46095   0.25643   0.91759   0.00000  Uiso   1.00
H685   H     0.48713   0.23654   0.53895   0.00000  Uiso   1.00
H686   H     0.46550   0.28006   0.99408   0.00000  Uiso   1.00
N687   N     0.35741   0.20183   0.70342   0.00000  Uiso   1.00
O688   O     0.50000   0.16667   0.75000   0.00000  Uiso   1.00
O689   O     0.48784   0.12637   0.65459   0.00000  Uiso   1.00
O690   O     0.46274   0.20391   0.84968   0.00000  Uiso   1.00
O691   O     0.54157   0.17759   0.64606   0.00000  Uiso   1.00
O692   O     0.50785   0.15880   0.84968   0.00000  Uiso   1.00
O693   O     0.51264   0.08019   0.78214   0.00000  Uiso   1.00
O694   O     0.47965   0.26085   0.77014   0.00000  Uiso   1.00
O695   O     0.40745   0.13291   0.73413   0.00000  Uiso   1.00
O696   O     0.60026   0.19272   0.71361   0.00000  Uiso   1.00
O697   O     0.40405   0.18878   0.78213   0.00000  Uiso   1.00
O698   O     0.58824   0.15226   0.77014   0.00000  Uiso   1.00
O699   O     0.47093   0.06944   0.73413   0.00000  Uiso   1.00
O700   O     0.53678   0.25620   0.71361   0.00000  Uiso   1.00
Zn701  Zn    0.52672   0.13994   0.78734   0.00000  Uiso   1.00
Zn702  Zn    0.46713   0.12458   0.71876   0.00000  Uiso   1.00
Zn703  Zn    0.54389   0.19775   0.70657   0.00000  Uiso   1.00
Zn704  Zn    0.46226   0.20439   0.78734   0.00000  Uiso   1.00
C705   C     0.71927   0.15916   0.76071   0.00000  Uiso   1.00
C706   C     0.84679   0.16733   0.55725   0.00000  Uiso   1.00
C707   C     0.86369   0.09866   0.56257   0.00000  Uiso   1.00
C708   C     0.94748   0.17404   0.74009   0.00000  Uiso   1.00
C709   C     0.80991   0.19460   0.91958   0.00000  Uiso   1.00
C710   C     0.99374   0.17736   0.73608   0.00000  Uiso   1.00
C711   C     0.67416   0.15722   0.76366   0.00000  Uiso   1.00
C712   C     0.84464   0.32223   0.73789   0.00000  Uiso   1.00
C713   C     0.81650   0.01275   0.76604   0.00000  Uiso   1.00
C714   C     0.82352   0.05607   0.75944   0.00000  Uiso   1.00
C715   C     0.84272   0.27785   0.74053   0.00000  Uiso   1.00
C716   C     0.80481   0.24869   0.98079   0.00000  Uiso   1.00
C717   C     0.85168   0.14798   0.62942   0.00000  Uiso   1.00
C718   C     0.81474   0.18431   0.87104   0.00000  Uiso   1.00
C719   C     0.85791   0.08604   0.52005   0.00000  Uiso   1.00
C720   C     0.85743   0.13899   0.58142   0.00000  Uiso   1.00
C721   C     0.80160   0.23488   0.93760   0.00000  Uiso   1.00
C722   C     0.77949   0.33082   0.80463   0.00000  Uiso   1.00
C723   C     0.75300   0.03147   0.83234   0.00000  Uiso   1.00
C724   C     0.71701   0.01351   0.87003   0.00000  Uiso   1.00
C725   C     0.81749   0.22310   0.50634   0.00000  Uiso   1.00
C726   C     0.82538   0.18189   0.98981   0.00000  Uiso   1.00
C727   C     0.81892   0.16692   0.94677   0.00000  Uiso   1.00
C728   C     0.83923   0.15493   0.51455   0.00000  Uiso   1.00
C729   C     0.84461   0.11333   0.99646   0.00000  Uiso   1.00
C730   C     0.83476   0.09856   0.95597   0.00000  Uiso   1.00
C731   C     0.82116   0.12459   0.93204   0.00000  Uiso   1.00
H732   H     0.87107   0.07638   0.58172   0.00000  Uiso   1.00
H733   H     0.81156   0.11067   0.90225   0.00000  Uiso   1.00
H734   H     0.69480   0.32304   0.85603   0.00000  Uiso   1.00
H735   H     0.73056   0.33255   0.89309   0.00000  Uiso   1.00
H736   H     0.69854   0.03868   0.88940   0.00000  Uiso   1.00
H737   H     0.77409   0.05567   0.84746   0.00000  Uiso   1.00
H738   H     0.73849   0.04620   0.81037   0.00000  Uiso   1.00
H739   H     0.75716   0.30710   0.79061   0.00000  Uiso   1.00
H740   H     0.79292   0.31668   0.82797   0.00000  Uiso   1.00
H741   H     0.67494   0.21946   0.68844   0.00000  Uiso   1.00
H742   H     0.70645   0.18127   0.67800   0.00000  Uiso   1.00
H743   H     0.98554   0.13849   0.78856   0.00000  Uiso   1.00
H744   H     0.87030   0.00289   0.71179   0.00000  Uiso   1.00
H745   H     0.83690   0.06640   0.94300   0.00000  Uiso   1.00
H746   H     0.86192   0.05430   0.50645   0.00000  Uiso   1.00
H747   H     0.84189   0.19773   0.57400   0.00000  Uiso   1.00
H748   H     0.79429   0.25643   0.91759   0.00000  Uiso   1.00
H749   H     0.82046   0.23654   0.53895   0.00000  Uiso   1.00
H750   H     0.79884   0.28006   0.99408   0.00000  Uiso   1.00
N751   N     0.69074   0.20183   0.70342   0.00000  Uiso   1.00
O752   O     0.83333   0.16667   0.75000   0.00000  Uiso   1.00
O753   O     0.82118   0.12637   0.65459   0.00000  Uiso   1.00
O754   O     0.79607   0.20391   0.84968   0.00000  Uiso   1.00
O755   O     0.87491   0.17759   0.64606   0.00000  Uiso   1.00
O756   O     0.84118   0.15880   0.84968   0.00000  Uiso   1.00
O757   O     0.84597   0.08019   0.78214   0.00000  Uiso   1.00
O758   O     0.81298   0.26085   0.77014   0.00000  Uiso   1.00
O759   O     0.74078   0.13291   0.73413   0.00000  Uiso   1.00
O760   O     0.93360   0.19272   0.71361   0.00000  Uiso   1.00
O761   O     0.73738   0.18878   0.78213   0.00000  Uiso   1.00
O762   O     0.92158   0.15226   0.77014   0.00000  Uiso   1.00
O763   O     0.80426   0.06944   0.73413   0.00000  Uiso   1.00
O764   O     0.87012   0.25620   0.71361   0.00000  Uiso   1.00
Zn765  Zn    0.86005   0.13994   0.78734   0.00000  Uiso   1.00
Zn766  Zn    0.80046   0.12458   0.71876   0.00000  Uiso   1.00
Zn767  Zn    0.87723   0.19775   0.70657   0.00000  Uiso   1.00
Zn768  Zn    0.79560   0.20439   0.78734   0.00000  Uiso   1.00
C769   C     0.05260   0.49249   0.76071   0.00000  Uiso   1.00
C770   C     0.18012   0.50066   0.55725   0.00000  Uiso   1.00
C771   C     0.19702   0.43199   0.56257   0.00000  Uiso   1.00
C772   C     0.28081   0.50738   0.74009   0.00000  Uiso   1.00
C773   C     0.14324   0.52793   0.91958   0.00000  Uiso   1.00
C774   C     0.32708   0.51070   0.73608   0.00000  Uiso   1.00
C775   C     0.00749   0.49056   0.76366   0.00000  Uiso   1.00
C776   C     0.17798   0.65556   0.73789   0.00000  Uiso   1.00
C777   C     0.14983   0.34609   0.76604   0.00000  Uiso   1.00
C778   C     0.15685   0.38940   0.75944   0.00000  Uiso   1.00
C779   C     0.17606   0.61118   0.74053   0.00000  Uiso   1.00
C780   C     0.13815   0.58203   0.98079   0.00000  Uiso   1.00
C781   C     0.18502   0.48132   0.62942   0.00000  Uiso   1.00
C782   C     0.14808   0.51764   0.87104   0.00000  Uiso   1.00
C783   C     0.19125   0.41937   0.52005   0.00000  Uiso   1.00
C784   C     0.19077   0.47232   0.58142   0.00000  Uiso   1.00
C785   C     0.13493   0.56821   0.93760   0.00000  Uiso   1.00
C786   C     0.11282   0.66415   0.80463   0.00000  Uiso   1.00
C787   C     0.08633   0.36481   0.83234   0.00000  Uiso   1.00
C788   C     0.05034   0.34684   0.87003   0.00000  Uiso   1.00
C789   C     0.15083   0.55643   0.50634   0.00000  Uiso   1.00
C790   C     0.15872   0.51522   0.98981   0.00000  Uiso   1.00
C791   C     0.15226   0.50026   0.94677   0.00000  Uiso   1.00
C792   C     0.17256   0.48826   0.51455   0.00000  Uiso   1.00
C793   C     0.17795   0.44666   0.99646   0.00000  Uiso   1.00
C794   C     0.16809   0.43190   0.95597   0.00000  Uiso   1.00
C795   C     0.15449   0.45793   0.93204   0.00000  Uiso   1.00
H796   H     0.20441   0.40971   0.58172   0.00000  Uiso   1.00
H797   H     0.14490   0.44400   0.90225   0.00000  Uiso   1.00
H798   H     0.02813   0.65638   0.85603   0.00000  Uiso   1.00
H799   H     0.06390   0.66589   0.89309   0.00000  Uiso   1.00
H800   H     0.03187   0.37201   0.88940   0.00000  Uiso   1.00
H801   H     0.10742   0.38900   0.84746   0.00000  Uiso   1.00
H802   H     0.07183   0.37953   0.81037   0.00000  Uiso   1.00
H803   H     0.09050   0.64043   0.79061   0.00000  Uiso   1.00
H804   H     0.12625   0.65002   0.82797   0.00000  Uiso   1.00
H805   H     0.00828   0.55279   0.68844   0.00000  Uiso   1.00
H806   H     0.03979   0.51460   0.67800   0.00000  Uiso   1.00
H807   H     0.31888   0.47182   0.78856   0.00000  Uiso   1.00
H808   H     0.20363   0.33623   0.71179   0.00000  Uiso   1.00
H809   H     0.17023   0.39974   0.94300   0.00000  Uiso   1.00
H810   H     0.19525   0.38763   0.50645   0.00000  Uiso   1.00
H811   H     0.17523   0.53107   0.57400   0.00000  Uiso   1.00
H812   H     0.12762   0.58977   0.91759   0.00000  Uiso   1.00
H813   H     0.15380   0.56988   0.53895   0.00000  Uiso   1.00
H814   H     0.13217   0.61339   0.99408   0.00000  Uiso   1.00
N815   N     0.02408   0.53516   0.70342   0.00000  Uiso   1.00
O816   O     0.16667   0.50000   0.75000   0.00000  Uiso   1.00
O817   O     0.15451   0.45970   0.65459   0.00000  Uiso   1.00
O818   O     0.12940   0.53724   0.84968   0.00000  Uiso   1.00
O819   O     0.20824   0.51092   0.64606   0.00000  Uiso   1.00
O820   O     0.17451   0.49213   0.84968   0.00000  Uiso   1.00
O821   O     0.17930   0.41352   0.78214   0.00000  Uiso   1.00
O822   O     0.14632   0.59418   0.77014   0.00000  Uiso   1.00
O823   O     0.07412   0.46625   0.73413   0.00000  Uiso   1.00
O824   O     0.26693   0.52605   0.71361   0.00000  Uiso   1.00
O825   O     0.07071   0.52211   0.78213   0.00000  Uiso   1.00
O826   O     0.25491   0.48559   0.77014   0.00000  Uiso   1.00
O827   O     0.13760   0.40277   0.73413   0.00000  Uiso   1.00
O828   O     0.20345   0.58953   0.71361   0.00000  Uiso   1.00
Zn829  Zn    0.19338   0.47327   0.78734   0.00000  Uiso   1.00
Zn830  Zn    0.13379   0.45791   0.71876   0.00000  Uiso   1.00
Zn831  Zn    0.21056   0.53109   0.70657   0.00000  Uiso   1.00
Zn832  Zn    0.12893   0.53773   0.78734   0.00000  Uiso   1.00
C833   C     0.38593   0.49249   0.76071   0.00000  Uiso   1.00
C834   C     0.51346   0.50066   0.55725   0.00000  Uiso   1.00
C835   C     0.53035   0.43199   0.56257   0.00000  Uiso   1.00
C836   C     0.61414   0.50738   0.74009   0.00000  Uiso   1.00
C837   C     0.47658   0.52793   0.91958   0.00000  Uiso   1.00
C838   C     0.66041   0.51070   0.73608   0.00000  Uiso   1.00
C839   C     0.34082   0.49056   0.76366   0.00000  Uiso   1.00
C840   C     0.51131   0.65556   0.73789   0.00000  Uiso   1.00
C841   C     0.48317   0.34609   0.76604   0.00000  Uiso   1.00
C842   C     0.49018   0.38940   0.75944   0.00000  Uiso   1.00
C843   C     0.50939   0.61118   0.74053   0.00000  Uiso   1.00
C844   C     0.47148   0.58203   0.98079   0.00000  Uiso   1.00
C845   C     0.51835   0.48132   0.62942   0.00000  Uiso   1.00
C846   C     0.48141   0.51764   0.87104   0.00000  Uiso   1.00
C847   C     0.52458   0.41937   0.52005   0.00000  Uiso   1.00
C848   C     0.52410   0.47232   0.58142   0.00000  Uiso   1.00
C849   C     0.46826   0.56821   0.93760   0.00000  Uiso   1.00
C850   C     0.44615   0.66415   0.80463   0.00000  Uiso   1.00
C851   C     0.41966   0.36481   0.83234   0.00000  Uiso   1.00
C852   C     0.38368   0.34684   0.87003   0.00000  Uiso   1.00
C853   C     0.48416   0.55643   0.50634   0.00000  Uiso   1.00
C854   C     0.49205   0.51522   0.98981   0.00000  Uiso   1.00
C855   C     0.48559   0.50026   0.94677   0.00000  Uiso   1.00
C856   C     0.50590   0.48826   0.51455   0.00000  Uiso   1.00
C857   C     0.51128   0.44666   0.99646   0.00000  Uiso   1.00
C858   C     0.50142   0.43190   0.95597   0.00000  Uiso   1.00
C859   C     0.48782   0.45793   0.93204   0.00000  Uiso   1.00
H860   H     0.53774   0.40971   0.58172   0.00000  Uiso   1.00
H861   H     0.47823   0.44400   0.90225   0.00000  Uiso   1.00
H862   H     0.36146   0.65638   0.85603   0.00000  Uiso   1.00
H863   H     0.39723   0.66589   0.89309   0.00000  Uiso   1.00
H864   H     0.36520   0.37201   0.88940   0.00000  Uiso   1.00
H865   H     0.44076   0.38900   0.84746   0.00000  Uiso   1.00
H866   H     0.40516   0.37953   0.81037   0.00000  Uiso   1.00
H867   H     0.42383   0.64043   0.79061   0.00000  Uiso   1.00
H868   H     0.45959   0.65002   0.82797   0.00000  Uiso   1.00
H869   H     0.34161   0.55279   0.68844   0.00000  Uiso   1.00
H870   H     0.37312   0.51460   0.67800   0.00000  Uiso   1.00
H871   H     0.65221   0.47182   0.78856   0.00000  Uiso   1.00
H872   H     0.53697   0.33623   0.71179   0.00000  Uiso   1.00
H873   H     0.50356   0.39974   0.94300   0.00000  Uiso   1.00
H874   H     0.52858   0.38763   0.50645   0.00000  Uiso   1.00
H875   H     0.50856   0.53107   0.57400   0.00000  Uiso   1.00
H876   H     0.46095   0.58977   0.91759   0.00000  Uiso   1.00
H877   H     0.48713   0.56988   0.53895   0.00000  Uiso   1.00
H878   H     0.46550   0.61339   0.99408   0.00000  Uiso   1.00
N879   N     0.35741   0.53516   0.70342   0.00000  Uiso   1.00
O880   O     0.50000   0.50000   0.75000   0.00000  Uiso   1.00
O881   O     0.48784   0.45970   0.65459   0.00000  Uiso   1.00
O882   O     0.46274   0.53724   0.84968   0.00000  Uiso   1.00
O883   O     0.54157   0.51092   0.64606   0.00000  Uiso   1.00
O884   O     0.50785   0.49213   0.84968   0.00000  Uiso   1.00
O885   O     0.51264   0.41352   0.78214   0.00000  Uiso   1.00
O886   O     0.47965   0.59418   0.77014   0.00000  Uiso   1.00
O887   O     0.40745   0.46625   0.73413   0.00000  Uiso   1.00
O888   O     0.60026   0.52605   0.71361   0.00000  Uiso   1.00
O889   O     0.40405   0.52211   0.78213   0.00000  Uiso   1.00
O890   O     0.58824   0.48559   0.77014   0.00000  Uiso   1.00
O891   O     0.47093   0.40277   0.73413   0.00000  Uiso   1.00
O892   O     0.53678   0.58953   0.71361   0.00000  Uiso   1.00
Zn893  Zn    0.52672   0.47327   0.78734   0.00000  Uiso   1.00
Zn894  Zn    0.46713   0.45791   0.71876   0.00000  Uiso   1.00
Zn895  Zn    0.54389   0.53109   0.70657   0.00000  Uiso   1.00
Zn896  Zn    0.46226   0.53773   0.78734   0.00000  Uiso   1.00
C897   C     0.71927   0.49249   0.76071   0.00000  Uiso   1.00
C898   C     0.84679   0.50066   0.55725   0.00000  Uiso   1.00
C899   C     0.86369   0.43199   0.56257   0.00000  Uiso   1.00
C900   C     0.94748   0.50738   0.74009   0.00000  Uiso   1.00
C901   C     0.80991   0.52793   0.91958   0.00000  Uiso   1.00
C902   C     0.99374   0.51070   0.73608   0.00000  Uiso   1.00
C903   C     0.67416   0.49056   0.76366   0.00000  Uiso   1.00
C904   C     0.84464   0.65556   0.73789   0.00000  Uiso   1.00
C905   C     0.81650   0.34609   0.76604   0.00000  Uiso   1.00
C906   C     0.82352   0.38940   0.75944   0.00000  Uiso   1.00
C907   C     0.84272   0.61118   0.74053   0.00000  Uiso   1.00
C908   C     0.80481   0.58203   0.98079   0.00000  Uiso   1.00
C909   C     0.85168   0.48132   0.62942   0.00000  Uiso   1.00
C910   C     0.81474   0.51764   0.87104   0.00000  Uiso   1.00
C911   C     0.85791   0.41937   0.52005   0.00000  Uiso   1.00
C912   C     0.85743   0.47232   0.58142   0.00000  Uiso   1.00
C913   C     0.80160   0.56821   0.93760   0.00000  Uiso   1.00
C914   C     0.77949   0.66415   0.80463   0.00000  Uiso   1.00
C915   C     0.75300   0.36481   0.83234   0.00000  Uiso   1.00
C916   C     0.71701   0.34684   0.87003   0.00000  Uiso   1.00
C917   C     0.81749   0.55643   0.50634   0.00000  Uiso   1.00
C918   C     0.82538   0.51522   0.98981   0.00000  Uiso   1.00
C919   C     0.81892   0.50026   0.94677   0.00000  Uiso   1.00
C920   C     0.83923   0.48826   0.51455   0.00000  Uiso   1.00
C921   C     0.84461   0.44666   0.99646   0.00000  Uiso   1.00
C922   C     0.83476   0.43190   0.95597   0.00000  Uiso   1.00
C923   C     0.82116   0.45793   0.93204   0.00000  Uiso   1.00
H924   H     0.87107   0.40971   0.58172   0.00000  Uiso   1.00
H925   H     0.81156   0.44400   0.90225   0.00000  Uiso   1.00
H926   H     0.69480   0.65638   0.85603   0.00000  Uiso   1.00
H927   H     0.73056   0.66589   0.89309   0.00000  Uiso   1.00
H928   H     0.69854   0.37201   0.88940   0.00000  Uiso   1.00
H929   H     0.77409   0.38900   0.84746   0.00000  Uiso   1.00
H930   H     0.73849   0.37953   0.81037   0.00000  Uiso   1.00
H931   H     0.75716   0.64043   0.79061   0.00000  Uiso   1.00
H932   H     0.79292   0.65002   0.82797   0.00000  Uiso   1.00
H933   H     0.67494   0.55279   0.68844   0.00000  Uiso   1.00
H934   H     0.70645   0.51460   0.67800   0.00000  Uiso   1.00
H935   H     0.98554   0.47182   0.78856   0.00000  Uiso   1.00
H936   H     0.87030   0.33623   0.71179   0.00000  Uiso   1.00
H937   H     0.83690   0.39974   0.94300   0.00000  Uiso   1.00
H938   H     0.86192   0.38763   0.50645   0.00000  Uiso   1.00
H939   H     0.84189   0.53107   0.57400   0.00000  Uiso   1.00
H940   H     0.79429   0.58977   0.91759   0.00000  Uiso   1.00
H941   H     0.82046   0.56988   0.53895   0.00000  Uiso   1.00
H942   H     0.79884   0.61339   0.99408   0.00000  Uiso   1.00
N943   N     0.69074   0.53516   0.70342   0.00000  Uiso   1.00
O944   O     0.83333   0.50000   0.75000   0.00000  Uiso   1.00
O945   O     0.82118   0.45970   0.65459   0.00000  Uiso   1.00
O946   O     0.79607   0.53724   0.84968   0.00000  Uiso   1.00
O947   O     0.87491   0.51092   0.64606   0.00000  Uiso   1.00
O948   O     0.84118   0.49213   0.84968   0.00000  Uiso   1.00
O949   O     0.84597   0.41352   0.78214   0.00000  Uiso   1.00
O950   O     0.81298   0.59418   0.77014   0.00000  Uiso   1.00
O951   O     0.74078   0.46625   0.73413   0.00000  Uiso   1.00
O952   O     0.93360   0.52605   0.71361   0.00000  Uiso   1.00
O953   O     0.73738   0.52211   0.78213   0.00000  Uiso   1.00
O954   O     0.92158   0.48559   0.77014   0.00000  Uiso   1.00
O955   O     0.80426   0.40277   0.73413   0.00000  Uiso   1.00
O956   O     0.87012   0.58953   0.71361   0.00000  Uiso   1.00
Zn957  Zn    0.86005   0.47327   0.78734   0.00000  Uiso   1.00
Zn958  Zn    0.80046   0.45791   0.71876   0.00000  Uiso   1.00
Zn959  Zn    0.87723   0.53109   0.70657   0.00000  Uiso   1.00
Zn960  Zn    0.79560   0.53773   0.78734   0.00000  Uiso   1.00
C961   C     0.05260   0.82582   0.76071   0.00000  Uiso   1.00
C962   C     0.18012   0.83399   0.55725   0.00000  Uiso   1.00
C963   C     0.19702   0.76533   0.56257   0.00000  Uiso   1.00
C964   C     0.28081   0.84071   0.74009   0.00000  Uiso   1.00
C965   C     0.14324   0.86127   0.91958   0.00000  Uiso   1.00
C966   C     0.32708   0.84403   0.73608   0.00000  Uiso   1.00
C967   C     0.00749   0.82389   0.76366   0.00000  Uiso   1.00
C968   C     0.17798   0.98889   0.73789   0.00000  Uiso   1.00
C969   C     0.14983   0.67942   0.76604   0.00000  Uiso   1.00
C970   C     0.15685   0.72274   0.75944   0.00000  Uiso   1.00
C971   C     0.17606   0.94452   0.74053   0.00000  Uiso   1.00
C972   C     0.13815   0.91536   0.98079   0.00000  Uiso   1.00
C973   C     0.18502   0.81465   0.62942   0.00000  Uiso   1.00
C974   C     0.14808   0.85097   0.87104   0.00000  Uiso   1.00
C975   C     0.19125   0.75270   0.52005   0.00000  Uiso   1.00
C976   C     0.19077   0.80566   0.58142   0.00000  Uiso   1.00
C977   C     0.13493   0.90154   0.93760   0.00000  Uiso   1.00
C978   C     0.11282   0.99748   0.80463   0.00000  Uiso   1.00
C979   C     0.08633   0.69814   0.83234   0.00000  Uiso   1.00
C980   C     0.05034   0.68018   0.87003   0.00000  Uiso   1.00
C981   C     0.15083   0.88977   0.50634   0.00000  Uiso   1.00
C982   C     0.15872   0.84856   0.98981   0.00000  Uiso   1.00
C983   C     0.15226   0.83359   0.94677   0.00000  Uiso   1.00
C984   C     0.17256   0.82160   0.51455   0.00000  Uiso   1.00
C985   C     0.17795   0.77999   0.99646   0.00000  Uiso   1.00
C986   C     0.16809   0.76523   0.95597   0.00000  Uiso   1.00
C987   C     0.15449   0.79126   0.93204   0.00000  Uiso   1.00
H988   H     0.20441   0.74305   0.58172   0.00000  Uiso   1.00
H989   H     0.14490   0.77733   0.90225   0.00000  Uiso   1.00
H990   H     0.02813   0.98971   0.85603   0.00000  Uiso   1.00
H991   H     0.06390   0.99922   0.89309   0.00000  Uiso   1.00
H992   H     0.03187   0.70534   0.88940   0.00000  Uiso   1.00
H993   H     0.10742   0.72233   0.84746   0.00000  Uiso   1.00
H994   H     0.07183   0.71287   0.81037   0.00000  Uiso   1.00
H995   H     0.09050   0.97377   0.79061   0.00000  Uiso   1.00
H996   H     0.12625   0.98335   0.82797   0.00000  Uiso   1.00
H997   H     0.00828   0.88612   0.68844   0.00000  Uiso   1.00
H998   H     0.03979   0.84794   0.67800   0.00000  Uiso   1.00
H999   H     0.31888   0.80516   0.78856   0.00000  Uiso   1.00
H1000  H     0.20363   0.66956   0.71179   0.00000  Uiso   1.00
H1001  H     0.17023   0.73307   0.94300   0.00000  Uiso   1.00
H1002  H     0.19525   0.72097   0.50645   0.00000  Uiso   1.00
H1003  H     0.17523   0.86440   0.57400   0.00000  Uiso   1.00
H1004  H     0.12762   0.92310   0.91759   0.00000  Uiso   1.00
H1005  H     0.15380   0.90321   0.53895   0.00000  Uiso   1.00
H1006  H     0.13217   0.94673   0.99408   0.00000  Uiso   1.00
N1007  N     0.02408   0.86849   0.70342   0.00000  Uiso   1.00
O1008  O     0.16667   0.83333   0.75000   0.00000  Uiso   1.00
O1009  O     0.15451   0.79304   0.65459   0.00000  Uiso   1.00
O1010  O     0.12940   0.87058   0.84968   0.00000  Uiso   1.00
O1011  O     0.20824   0.84425   0.64606   0.00000  Uiso   1.00
O1012  O     0.17451   0.82546   0.84968   0.00000  Uiso   1.00
O1013  O     0.17930   0.74686   0.78214   0.00000  Uiso   1.00
O1014  O     0.14632   0.92751   0.77014   0.00000  Uiso   1.00
O1015  O     0.07412   0.79958   0.73413   0.00000  Uiso   1.00
O1016  O     0.26693   0.85939   0.71361   0.00000  Uiso   1.00
O1017  O     0.07071   0.85544   0.78213   0.00000  Uiso   1.00
O1018  O     0.25491   0.81892   0.77014   0.00000  Uiso   1.00
O1019  O     0.13760   0.73610   0.73413   0.00000  Uiso   1.00
O1020  O     0.20345   0.92286   0.71361   0.00000  Uiso   1.00
Zn1021 Zn    0.19338   0.80661   0.78734   0.00000  Uiso   1.00
Zn1022 Zn    0.13379   0.79124   0.71876   0.00000  Uiso   1.00
Zn1023 Zn    0.21056   0.86442   0.70657   0.00000  Uiso   1.00
Zn1024 Zn    0.12893   0.87106   0.78734   0.00000  Uiso   1.00
C1025  C     0.38593   0.82582   0.76071   0.00000  Uiso   1.00
C1026  C     0.51346   0.83399   0.55725   0.00000  Uiso   1.00
C1027  C     0.53035   0.76533   0.56257   0.00000  Uiso   1.00
C1028  C     0.61414   0.84071   0.74009   0.00000  Uiso   1.00
C1029  C     0.47658   0.86127   0.91958   0.00000  Uiso   1.00
C1030  C     0.66041   0.84403   0.73608   0.00000  Uiso   1.00
C1031  C     0.34082   0.82389   0.76366   0.00000  Uiso   1.00
C1032  C     0.51131   0.98889   0.73789   0.00000  Uiso   1.00
C1033  C     0.48317   0.67942   0.76604   0.00000  Uiso   1.00
C1034  C     0.49018   0.72274   0.75944   0.00000  Uiso   1.00
C1035  C     0.50939   0.94452   0.74053   0.00000  Uiso   1.00
C1036  C     0.47148   0.91536   0.98079   0.00000  Uiso   1.00
C1037  C     0.51835   0.81465   0.62942   0.00000  Uiso   1.00
C1038  C     0.48141   0.85097   0.87104   0.00000  Uiso   1.00
C1039  C     0.52458   0.75270   0.52005   0.00000  Uiso   1.00
C1040  C     0.52410   0.80566   0.58142   0.00000  Uiso   1.00
C1041  C     0.46826   0.90154   0.93760   0.00000  Uiso   1.00
C1042  C     0.44615   0.99748   0.80463   0.00000  Uiso   1.00
C1043  C     0.41966   0.69814   0.83234   0.00000  Uiso   1.00
C1044  C     0.38368   0.68018   0.87003   0.00000  Uiso   1.00
C1045  C     0.48416   0.88977   0.50634   0.00000  Uiso   1.00
C1046  C     0.49205   0.84856   0.98981   0.00000  Uiso   1.00
C1047  C     0.48559   0.83359   0.94677   0.00000  Uiso   1.00
C1048  C     0.50590   0.82160   0.51455   0.00000  Uiso   1.00
C1049  C     0.51128   0.77999   0.99646   0.00000  Uiso   1.00
C1050  C     0.50142   0.76523   0.95597   0.00000  Uiso   1.00
C1051  C     0.48782   0.79126   0.93204   0.00000  Uiso   1.00
H1052  H     0.53774   0.74305   0.58172   0.00000  Uiso   1.00
H1053  H     0.47823   0.77733   0.90225   0.00000  Uiso   1.00
H1054  H     0.36146   0.98971   0.85603   0.00000  Uiso   1.00
H1055  H     0.39723   0.99922   0.89309   0.00000  Uiso   1.00
H1056  H     0.36520   0.70534   0.88940   0.00000  Uiso   1.00
H1057  H     0.44076   0.72233   0.84746   0.00000  Uiso   1.00
H1058  H     0.40516   0.71287   0.81037   0.00000  Uiso   1.00
H1059  H     0.42383   0.97377   0.79061   0.00000  Uiso   1.00
H1060  H     0.45959   0.98335   0.82797   0.00000  Uiso   1.00
H1061  H     0.34161   0.88612   0.68844   0.00000  Uiso   1.00
H1062  H     0.37312   0.84794   0.67800   0.00000  Uiso   1.00
H1063  H     0.65221   0.80516   0.78856   0.00000  Uiso   1.00
H1064  H     0.53697   0.66956   0.71179   0.00000  Uiso   1.00
H1065  H     0.50356   0.73307   0.94300   0.00000  Uiso   1.00
H1066  H     0.52858   0.72097   0.50645   0.00000  Uiso   1.00
H1067  H     0.50856   0.86440   0.57400   0.00000  Uiso   1.00
H1068  H     0.46095   0.92310   0.91759   0.00000  Uiso   1.00
H1069  H     0.48713   0.90321   0.53895   0.00000  Uiso   1.00
H1070  H     0.46550   0.94673   0.99408   0.00000  Uiso   1.00
N1071  N     0.35741   0.86849   0.70342   0.00000  Uiso   1.00
O1072  O     0.50000   0.83333   0.75000   0.00000  Uiso   1.00
O1073  O     0.48784   0.79304   0.65459   0.00000  Uiso   1.00
O1074  O     0.46274   0.87058   0.84968   0.00000  Uiso   1.00
O1075  O     0.54157   0.84425   0.64606   0.00000  Uiso   1.00
O1076  O     0.50785   0.82546   0.84968   0.00000  Uiso   1.00
O1077  O     0.51264   0.74686   0.78214   0.00000  Uiso   1.00
O1078  O     0.47965   0.92751   0.77014   0.00000  Uiso   1.00
O1079  O     0.40745   0.79958   0.73413   0.00000  Uiso   1.00
O1080  O     0.60026   0.85939   0.71361   0.00000  Uiso   1.00
O1081  O     0.40405   0.85544   0.78213   0.00000  Uiso   1.00
O1082  O     0.58824   0.81892   0.77014   0.00000  Uiso   1.00
O1083  O     0.47093   0.73610   0.73413   0.00000  Uiso   1.00
O1084  O     0.53678   0.92286   0.71361   0.00000  Uiso   1.00
Zn1085 Zn    0.52672   0.80661   0.78734   0.00000  Uiso   1.00
Zn1086 Zn    0.46713   0.79124   0.71876   0.00000  Uiso   1.00
Zn1087 Zn    0.54389   0.86442   0.70657   0.00000  Uiso   1.00
Zn1088 Zn    0.46226   0.87106   0.78734   0.00000  Uiso   1.00
C1089  C     0.71927   0.82582   0.76071   0.00000  Uiso   1.00
C1090  C     0.84679   0.83399   0.55725   0.00000  Uiso   1.00
C1091  C     0.86369   0.76533   0.56257   0.00000  Uiso   1.00
C1092  C     0.94748   0.84071   0.74009   0.00000  Uiso   1.00
C1093  C     0.80991   0.86127   0.91958   0.00000  Uiso   1.00
C1094  C     0.99374   0.84403   0.73608   0.00000  Uiso   1.00
C1095  C     0.67416   0.82389   0.76366   0.00000  Uiso   1.00
C1096  C     0.84464   0.98889   0.73789   0.00000  Uiso   1.00
C1097  C     0.81650   0.67942   0.76604   0.00000  Uiso   1.00
C1098  C     0.82352   0.72274   0.75944   0.00000  Uiso   1.00
C1099  C     0.84272   0.94452   0.74053   0.00000  Uiso   1.00
C1100  C     0.80481   0.91536   0.98079   0.00000  Uiso   1.00
C1101  C     0.85168   0.81465   0.62942   0.00000  Uiso   1.00
C1102  C     0.81474   0.85097   0.87104   0.00000  Uiso   1.00
C1103  C     0.85791   0.75270   0.52005   0.00000  Uiso   1.00
C1104  C     0.85743   0.80566   0.58142   0.00000  Uiso   1.00
C1105  C     0.80160   0.90154   0.93760   0.00000  Uiso   1.00
C1106  C     0.77949   0.99748   0.80463   0.00000  Uiso   1.00
C1107  C     0.75300   0.69814   0.83234   0.00000  Uiso   1.00
C1108  C     0.71701   0.68018   0.87003   0.00000  Uiso   1.00
C1109  C     0.81749   0.88977   0.50634   0.00000  Uiso   1.00
C1110  C     0.82538   0.84856   0.98981   0.00000  Uiso   1.00
C1111  C     0.81892   0.83359   0.94677   0.00000  Uiso   1.00
C1112  C     0.83923   0.82160   0.51455   0.00000  Uiso   1.00
C1113  C     0.84461   0.77999   0.99646   0.00000  Uiso   1.00
C1114  C     0.83476   0.76523   0.95597   0.00000  Uiso   1.00
C1115  C     0.82116   0.79126   0.93204   0.00000  Uiso   1.00
H1116  H     0.87107   0.74305   0.58172   0.00000  Uiso   1.00
H1117  H     0.81156   0.77733   0.90225   0.00000  Uiso   1.00
H1118  H     0.69480   0.98971   0.85603   0.00000  Uiso   1.00
H1119  H     0.73056   0.99922   0.89309   0.00000  Uiso   1.00
H1120  H     0.69854   0.70534   0.88940   0.00000  Uiso   1.00
H1121  H     0.77409   0.72233   0.84746   0.00000  Uiso   1.00
H1122  H     0.73849   0.71287   0.81037   0.00000  Uiso   1.00
H1123  H     0.75716   0.97377   0.79061   0.00000  Uiso   1.00
H1124  H     0.79292   0.98335   0.82797   0.00000  Uiso   1.00
H1125  H     0.67494   0.88612   0.68844   0.00000  Uiso   1.00
H1126  H     0.70645   0.84794   0.67800   0.00000  Uiso   1.00
H1127  H     0.98554   0.80516   0.78856   0.00000  Uiso   1.00
H1128  H     0.87030   0.66956   0.71179   0.00000  Uiso   1.00
H1129  H     0.83690   0.73307   0.94300   0.00000  Uiso   1.00
H1130  H     0.86192   0.72097   0.50645   0.00000  Uiso   1.00
H1131  H     0.84189   0.86440   0.57400   0.00000  Uiso   1.00
H1132  H     0.79429   0.92310   0.91759   0.00000  Uiso   1.00
H1133  H     0.82046   0.90321   0.53895   0.00000  Uiso   1.00
H1134  H     0.79884   0.94673   0.99408   0.00000  Uiso   1.00
N1135  N     0.69074   0.86849   0.70342   0.00000  Uiso   1.00
O1136  O     0.83333   0.83333   0.75000   0.00000  Uiso   1.00
O1137  O     0.82118   0.79304   0.65459   0.00000  Uiso   1.00
O1138  O     0.79607   0.87058   0.84968   0.00000  Uiso   1.00
O1139  O     0.87491   0.84425   0.64606   0.00000  Uiso   1.00
O1140  O     0.84118   0.82546   0.84968   0.00000  Uiso   1.00
O1141  O     0.84597   0.74686   0.78214   0.00000  Uiso   1.00
O1142  O     0.81298   0.92751   0.77014   0.00000  Uiso   1.00
O1143  O     0.74078   0.79958   0.73413   0.00000  Uiso   1.00
O1144  O     0.93360   0.85939   0.71361   0.00000  Uiso   1.00
O1145  O     0.73738   0.85544   0.78213   0.00000  Uiso   1.00
O1146  O     0.92158   0.81892   0.77014   0.00000  Uiso   1.00
O1147  O     0.80426   0.73610   0.73413   0.00000  Uiso   1.00
O1148  O     0.87012   0.92286   0.71361   0.00000  Uiso   1.00
Zn1149 Zn    0.86005   0.80661   0.78734   0.00000  Uiso   1.00
Zn1150 Zn    0.80046   0.79124   0.71876   0.00000  Uiso   1.00
Zn1151 Zn    0.87723   0.86442   0.70657   0.00000  Uiso   1.00
Zn1152 Zn    0.79560   0.87106   0.78734   0.00000  Uiso   1.00
loop_
_geom_bond_atom_site_label_1
_geom_bond_atom_site_label_2
_geom_bond_distance
_geom_bond_site_symmetry_2
_ccdc_geom_bond_type
C1     O57     1.268   .     A
C1     O55     1.267   .     A
C1     C7      1.437   .     S
C2     C16     1.394   .     A
C2     H43     1.077   .     S
C2     C24     1.412   .     A
C3     C15     1.387   .     A
C3     H28     1.084   .     S
C3     C16     1.396   .     A
C4     O56     1.285   .     A
C4     C6      1.465   .     S
C4     O58     1.289   .     A
C5     C23     1.419   .     A
C5     C17     1.402   .     A
C5     C14     1.475   .     S
C6     C71     1.339   .     S
C6     N111    1.443   .     S
C7     C134    1.339   1_455 S
C7     H167    1.086   1_455 S
C8     C11     1.455   .     S
C8     C201    1.353   .     S
C8     H232    1.089   .     S
C9     C10     1.433   .     S
C9     C392    1.353   1_545 S
C9     C402    1.531   1_545 S
C10    O59     1.274   .     A
C10    O53     1.272   .     A
C11    O54     1.260   .     A
C11    O60     1.281   .     A
C12    C17     1.387   .     A
C12    H46     1.083   .     S
C12    C597    1.391   .     S
C13    O49     1.271   .     A
C13    C16     1.451   .     S
C13    O51     1.282   .     A
C14    O50     1.284   .     A
C14    O52     1.284   .     A
C15    H42     1.084   .     S
C15    C601    1.400   1_554 S
C17    H44     1.083   .     S
C18    H35     1.112   .     S
C18    H36     1.112   .     S
C18    C201    1.531   .     S
C18    C211    1.540   .     S
C19    C20     1.526   .     S
C19    H34     1.112   .     S
C19    H33     1.112   .     S
C19    C402    1.540   1_545 S
C20    H32     1.110   .     S
C20    H414    1.111   1_545 S
C20    H415    1.111   1_545 S
C21    H45     1.076   .     S
C21    C588    1.391   1_554 S
C21    C598    1.417   1_554 S
C22    C23     1.424   .     A
C22    C597    1.417   .     S
C22    C600    1.426   .     S
C23    C27     1.410   .     A
C24    C598    1.426   1_554 S
C24    C601    1.424   1_554 S
C25    C26     1.391   .     A
C25    C600    1.424   .     S
C25    C591    1.400   .     S
C26    C27     1.382   .     A
C26    H41     1.084   .     S
C27    H29     1.080   .     S
H30    C212    1.111   .     S
H31    C212    1.111   .     S
H37    N47     1.044   .     S
H38    N47     1.046   .     S
H39    C71     1.086   .     S
H40    C392    1.089   1_545 S
N47    C134    1.443   1_455 S
O48    Zn62    1.940   .     S
O48    Zn64    1.927   .     S
O48    Zn61    1.965   .     S
O48    Zn63    1.946   .     S
O49    Zn62    1.933   .     S
O50    Zn64    1.942   .     S
O51    Zn63    1.930   .     S
O52    Zn61    1.923   .     S
O53    Zn61    1.937   .     S
O54    Zn64    1.947   .     S
O55    Zn62    1.923   .     S
O56    Zn63    1.934   .     S
O57    Zn64    1.930   .     S
O58    Zn61    1.924   .     S
O59    Zn62    1.950   .     S
O60    Zn63    1.938   .     S
C65    O121    1.268   .     A
C65    O119    1.267   .     A
C65    C71     1.437   .     S
C66    C80     1.394   .     A
C66    H107    1.077   .     S
C66    C88     1.412   .     A
C67    C79     1.387   .     A
C67    H92     1.084   .     S
C67    C80     1.396   .     A
C68    O120    1.285   .     A
C68    C70     1.465   .     S
C68    O122    1.289   .     A
C69    C87     1.419   .     A
C69    C81     1.402   .     A
C69    C78     1.475   .     S
C70    C135    1.339   .     S
C70    N175    1.443   .     S
C72    C75     1.455   .     S
C72    C265    1.353   .     S
C72    H296    1.089   .     S
C73    C74     1.433   .     S
C73    C456    1.353   1_545 S
C73    C466    1.531   1_545 S
C74    O123    1.274   .     A
C74    O117    1.272   .     A
C75    O118    1.260   .     A
C75    O124    1.281   .     A
C76    C81     1.387   .     A
C76    H110    1.083   .     S
C76    C661    1.391   .     S
C77    O113    1.271   .     A
C77    C80     1.451   .     S
C77    O115    1.282   .     A
C78    O114    1.284   .     A
C78    O116    1.284   .     A
C79    H106    1.084   .     S
C79    C665    1.400   1_554 S
C81    H108    1.083   .     S
C82    H99     1.112   .     S
C82    H100    1.112   .     S
C82    C265    1.531   .     S
C82    C275    1.540   .     S
C83    C84     1.526   .     S
C83    H98     1.112   .     S
C83    H97     1.112   .     S
C83    C466    1.540   1_545 S
C84    H96     1.110   .     S
C84    H478    1.111   1_545 S
C84    H479    1.111   1_545 S
C85    H109    1.076   .     S
C85    C652    1.391   1_554 S
C85    C662    1.417   1_554 S
C86    C87     1.424   .     A
C86    C661    1.417   .     S
C86    C664    1.426   .     S
C87    C91     1.410   .     A
C88    C662    1.426   1_554 S
C88    C665    1.424   1_554 S
C89    C90     1.391   .     A
C89    C664    1.424   .     S
C89    C655    1.400   .     S
C90    C91     1.382   .     A
C90    H105    1.084   .     S
C91    H93     1.080   .     S
H94    C276    1.111   .     S
H95    C276    1.111   .     S
H101   N111    1.044   .     S
H102   N111    1.046   .     S
H103   C135    1.086   .     S
H104   C456    1.089   1_545 S
O112   Zn126   1.940   .     S
O112   Zn128   1.927   .     S
O112   Zn125   1.965   .     S
O112   Zn127   1.946   .     S
O113   Zn126   1.933   .     S
O114   Zn128   1.942   .     S
O115   Zn127   1.930   .     S
O116   Zn125   1.923   .     S
O117   Zn125   1.937   .     S
O118   Zn128   1.947   .     S
O119   Zn126   1.923   .     S
O120   Zn127   1.934   .     S
O121   Zn128   1.930   .     S
O122   Zn125   1.924   .     S
O123   Zn126   1.950   .     S
O124   Zn127   1.938   .     S
C129   O185    1.268   .     A
C129   O183    1.267   .     A
C129   C135    1.437   .     S
C130   C144    1.394   .     A
C130   H171    1.077   .     S
C130   C152    1.412   .     A
C131   C143    1.387   .     A
C131   H156    1.084   .     S
C131   C144    1.396   .     A
C132   O184    1.285   .     A
C132   C134    1.465   .     S
C132   O186    1.289   .     A
C133   C151    1.419   .     A
C133   C145    1.402   .     A
C133   C142    1.475   .     S
C134   C7      1.339   1_655 S
C134   N47     1.443   1_655 S
C136   C139    1.455   .     S
C136   C329    1.353   .     S
C136   H360    1.089   .     S
C137   C138    1.433   .     S
C137   C520    1.353   1_545 S
C137   C530    1.531   1_545 S
C138   O187    1.274   .     A
C138   O181    1.272   .     A
C139   O182    1.260   .     A
C139   O188    1.281   .     A
C140   C145    1.387   .     A
C140   H174    1.083   .     S
C140   C725    1.391   .     S
C141   O177    1.271   .     A
C141   C144    1.451   .     S
C141   O179    1.282   .     A
C142   O178    1.284   .     A
C142   O180    1.284   .     A
C143   H170    1.084   .     S
C143   C729    1.400   1_554 S
C145   H172    1.083   .     S
C146   H163    1.112   .     S
C146   H164    1.112   .     S
C146   C329    1.531   .     S
C146   C339    1.540   .     S
C147   C148    1.526   .     S
C147   H162    1.112   .     S
C147   H161    1.112   .     S
C147   C530    1.540   1_545 S
C148   H160    1.110   .     S
C148   H542    1.111   1_545 S
C148   H543    1.111   1_545 S
C149   H173    1.076   .     S
C149   C716    1.391   1_554 S
C149   C726    1.417   1_554 S
C150   C151    1.424   .     A
C150   C725    1.417   .     S
C150   C728    1.426   .     S
C151   C155    1.410   .     A
C152   C726    1.426   1_554 S
C152   C729    1.424   1_554 S
C153   C154    1.391   .     A
C153   C728    1.424   .     S
C153   C719    1.400   .     S
C154   C155    1.382   .     A
C154   H169    1.084   .     S
C155   H157    1.080   .     S
H158   C340    1.111   .     S
H159   C340    1.111   .     S
H165   N175    1.044   .     S
H166   N175    1.046   .     S
H167   C7      1.086   1_655 S
H168   C520    1.089   1_545 S
O176   Zn190   1.940   .     S
O176   Zn192   1.927   .     S
O176   Zn189   1.965   .     S
O176   Zn191   1.946   .     S
O177   Zn190   1.933   .     S
O178   Zn192   1.942   .     S
O179   Zn191   1.930   .     S
O180   Zn189   1.923   .     S
O181   Zn189   1.937   .     S
O182   Zn192   1.947   .     S
O183   Zn190   1.923   .     S
O184   Zn191   1.934   .     S
O185   Zn192   1.930   .     S
O186   Zn189   1.924   .     S
O187   Zn190   1.950   .     S
O188   Zn191   1.938   .     S
C193   O249    1.268   .     A
C193   O247    1.267   .     A
C193   C199    1.437   .     S
C194   C208    1.394   .     A
C194   H235    1.077   .     S
C194   C216    1.412   .     A
C195   C207    1.387   .     A
C195   H220    1.084   .     S
C195   C208    1.396   .     A
C196   O248    1.285   .     A
C196   C198    1.465   .     S
C196   O250    1.289   .     A
C197   C215    1.419   .     A
C197   C209    1.402   .     A
C197   C206    1.475   .     S
C198   C263    1.339   .     S
C198   N303    1.443   .     S
C199   C326    1.339   1_455 S
C199   H359    1.086   1_455 S
C200   C203    1.455   .     S
C200   C393    1.353   .     S
C200   H424    1.089   .     S
C201   C202    1.433   .     S
C202   O251    1.274   .     A
C202   O245    1.272   .     A
C203   O246    1.260   .     A
C203   O252    1.281   .     A
C204   C209    1.387   .     A
C204   H238    1.083   .     S
C204   C789    1.391   .     S
C205   O241    1.271   .     A
C205   C208    1.451   .     S
C205   O243    1.282   .     A
C206   O242    1.284   .     A
C206   O244    1.284   .     A
C207   H234    1.084   .     S
C207   C793    1.400   1_554 S
C209   H236    1.083   .     S
C210   H227    1.112   .     S
C210   H228    1.112   .     S
C210   C393    1.531   .     S
C210   C403    1.540   .     S
C211   C212    1.526   .     S
C211   H226    1.112   .     S
C211   H225    1.112   .     S
C212   H224    1.110   .     S
C213   H237    1.076   .     S
C213   C780    1.391   1_554 S
C213   C790    1.417   1_554 S
C214   C215    1.424   .     A
C214   C789    1.417   .     S
C214   C792    1.426   .     S
C215   C219    1.410   .     A
C216   C790    1.426   1_554 S
C216   C793    1.424   1_554 S
C217   C218    1.391   .     A
C217   C792    1.424   .     S
C217   C783    1.400   .     S
C218   C219    1.382   .     A
C218   H233    1.084   .     S
C219   H221    1.080   .     S
H222   C404    1.111   .     S
H223   C404    1.111   .     S
H229   N239    1.044   .     S
H230   N239    1.046   .     S
H231   C263    1.086   .     S
N239   C326    1.443   1_455 S
O240   Zn254   1.940   .     S
O240   Zn256   1.927   .     S
O240   Zn253   1.965   .     S
O240   Zn255   1.946   .     S
O241   Zn254   1.933   .     S
O242   Zn256   1.942   .     S
O243   Zn255   1.930   .     S
O244   Zn253   1.923   .     S
O245   Zn253   1.937   .     S
O246   Zn256   1.947   .     S
O247   Zn254   1.923   .     S
O248   Zn255   1.934   .     S
O249   Zn256   1.930   .     S
O250   Zn253   1.924   .     S
O251   Zn254   1.950   .     S
O252   Zn255   1.938   .     S
C257   O313    1.268   .     A
C257   O311    1.267   .     A
C257   C263    1.437   .     S
C258   C272    1.394   .     A
C258   H299    1.077   .     S
C258   C280    1.412   .     A
C259   C271    1.387   .     A
C259   H284    1.084   .     S
C259   C272    1.396   .     A
C260   O312    1.285   .     A
C260   C262    1.465   .     S
C260   O314    1.289   .     A
C261   C279    1.419   .     A
C261   C273    1.402   .     A
C261   C270    1.475   .     S
C262   C327    1.339   .     S
C262   N367    1.443   .     S
C264   C267    1.455   .     S
C264   C457    1.353   .     S
C264   H488    1.089   .     S
C265   C266    1.433   .     S
C266   O315    1.274   .     A
C266   O309    1.272   .     A
C267   O310    1.260   .     A
C267   O316    1.281   .     A
C268   C273    1.387   .     A
C268   H302    1.083   .     S
C268   C853    1.391   .     S
C269   O305    1.271   .     A
C269   C272    1.451   .     S
C269   O307    1.282   .     A
C270   O306    1.284   .     A
C270   O308    1.284   .     A
C271   H298    1.084   .     S
C271   C857    1.400   1_554 S
C273   H300    1.083   .     S
C274   H291    1.112   .     S
C274   H292    1.112   .     S
C274   C457    1.531   .     S
C274   C467    1.540   .     S
C275   C276    1.526   .     S
C275   H290    1.112   .     S
C275   H289    1.112   .     S
C276   H288    1.110   .     S
C277   H301    1.076   .     S
C277   C844    1.391   1_554 S
C277   C854    1.417   1_554 S
C278   C279    1.424   .     A
C278   C853    1.417   .     S
C278   C856    1.426   .     S
C279   C283    1.410   .     A
C280   C854    1.426   1_554 S
C280   C857    1.424   1_554 S
C281   C282    1.391   .     A
C281   C856    1.424   .     S
C281   C847    1.400   .     S
C282   C283    1.382   .     A
C282   H297    1.084   .     S
C283   H285    1.080   .     S
H286   C468    1.111   .     S
H287   C468    1.111   .     S
H293   N303    1.044   .     S
H294   N303    1.046   .     S
H295   C327    1.086   .     S
O304   Zn318   1.940   .     S
O304   Zn320   1.927   .     S
O304   Zn317   1.965   .     S
O304   Zn319   1.946   .     S
O305   Zn318   1.933   .     S
O306   Zn320   1.942   .     S
O307   Zn319   1.930   .     S
O308   Zn317   1.923   .     S
O309   Zn317   1.937   .     S
O310   Zn320   1.947   .     S
O311   Zn318   1.923   .     S
O312   Zn319   1.934   .     S
O313   Zn320   1.930   .     S
O314   Zn317   1.924   .     S
O315   Zn318   1.950   .     S
O316   Zn319   1.938   .     S
C321   O377    1.268   .     A
C321   O375    1.267   .     A
C321   C327    1.437   .     S
C322   C336    1.394   .     A
C322   H363    1.077   .     S
C322   C344    1.412   .     A
C323   C335    1.387   .     A
C323   H348    1.084   .     S
C323   C336    1.396   .     A
C324   O376    1.285   .     A
C324   C326    1.465   .     S
C324   O378    1.289   .     A
C325   C343    1.419   .     A
C325   C337    1.402   .     A
C325   C334    1.475   .     S
C326   C199    1.339   1_655 S
C326   N239    1.443   1_655 S
C328   C331    1.455   .     S
C328   C521    1.353   .     S
C328   H552    1.089   .     S
C329   C330    1.433   .     S
C330   O379    1.274   .     A
C330   O373    1.272   .     A
C331   O374    1.260   .     A
C331   O380    1.281   .     A
C332   C337    1.387   .     A
C332   H366    1.083   .     S
C332   C917    1.391   .     S
C333   O369    1.271   .     A
C333   C336    1.451   .     S
C333   O371    1.282   .     A
C334   O370    1.284   .     A
C334   O372    1.284   .     A
C335   H362    1.084   .     S
C335   C921    1.400   1_554 S
C337   H364    1.083   .     S
C338   H355    1.112   .     S
C338   H356    1.112   .     S
C338   C521    1.531   .     S
C338   C531    1.540   .     S
C339   C340    1.526   .     S
C339   H354    1.112   .     S
C339   H353    1.112   .     S
C340   H352    1.110   .     S
C341   H365    1.076   .     S
C341   C908    1.391   1_554 S
C341   C918    1.417   1_554 S
C342   C343    1.424   .     A
C342   C917    1.417   .     S
C342   C920    1.426   .     S
C343   C347    1.410   .     A
C344   C918    1.426   1_554 S
C344   C921    1.424   1_554 S
C345   C346    1.391   .     A
C345   C920    1.424   .     S
C345   C911    1.400   .     S
C346   C347    1.382   .     A
C346   H361    1.084   .     S
C347   H349    1.080   .     S
H350   C532    1.111   .     S
H351   C532    1.111   .     S
H357   N367    1.044   .     S
H358   N367    1.046   .     S
H359   C199    1.086   1_655 S
O368   Zn382   1.940   .     S
O368   Zn384   1.927   .     S
O368   Zn381   1.965   .     S
O368   Zn383   1.946   .     S
O369   Zn382   1.933   .     S
O370   Zn384   1.942   .     S
O371   Zn383   1.930   .     S
O372   Zn381   1.923   .     S
O373   Zn381   1.937   .     S
O374   Zn384   1.947   .     S
O375   Zn382   1.923   .     S
O376   Zn383   1.934   .     S
O377   Zn384   1.930   .     S
O378   Zn381   1.924   .     S
O379   Zn382   1.950   .     S
O380   Zn383   1.938   .     S
C385   O441    1.268   .     A
C385   O439    1.267   .     A
C385   C391    1.437   .     S
C386   C400    1.394   .     A
C386   H427    1.077   .     S
C386   C408    1.412   .     A
C387   C399    1.387   .     A
C387   H412    1.084   .     S
C387   C400    1.396   .     A
C388   O440    1.285   .     A
C388   C390    1.465   .     S
C388   O442    1.289   .     A
C389   C407    1.419   .     A
C389   C401    1.402   .     A
C389   C398    1.475   .     S
C390   C455    1.339   .     S
C390   N495    1.443   .     S
C391   C518    1.339   1_455 S
C391   H551    1.086   1_455 S
C392   C395    1.455   .     S
C392   C9      1.353   1_565 S
C392   H40     1.089   1_565 S
C393   C394    1.433   .     S
C394   O443    1.274   .     A
C394   O437    1.272   .     A
C395   O438    1.260   .     A
C395   O444    1.281   .     A
C396   C401    1.387   .     A
C396   H430    1.083   .     S
C396   C981    1.391   .     S
C397   O433    1.271   .     A
C397   C400    1.451   .     S
C397   O435    1.282   .     A
C398   O434    1.284   .     A
C398   O436    1.284   .     A
C399   H426    1.084   .     S
C399   C985    1.400   1_554 S
C401   H428    1.083   .     S
C402   H419    1.112   .     S
C402   H420    1.112   .     S
C402   C9      1.531   1_565 S
C402   C19     1.540   1_565 S
C403   C404    1.526   .     S
C403   H418    1.112   .     S
C403   H417    1.112   .     S
C404   H416    1.110   .     S
C405   H429    1.076   .     S
C405   C972    1.391   1_554 S
C405   C982    1.417   1_554 S
C406   C407    1.424   .     A
C406   C981    1.417   .     S
C406   C984    1.426   .     S
C407   C411    1.410   .     A
C408   C982    1.426   1_554 S
C408   C985    1.424   1_554 S
C409   C410    1.391   .     A
C409   C984    1.424   .     S
C409   C975    1.400   .     S
C410   C411    1.382   .     A
C410   H425    1.084   .     S
C411   H413    1.080   .     S
H414   C20     1.111   1_565 S
H415   C20     1.111   1_565 S
H421   N431    1.044   .     S
H422   N431    1.046   .     S
H423   C455    1.086   .     S
N431   C518    1.443   1_455 S
O432   Zn446   1.940   .     S
O432   Zn448   1.927   .     S
O432   Zn445   1.965   .     S
O432   Zn447   1.946   .     S
O433   Zn446   1.933   .     S
O434   Zn448   1.942   .     S
O435   Zn447   1.930   .     S
O436   Zn445   1.923   .     S
O437   Zn445   1.937   .     S
O438   Zn448   1.947   .     S
O439   Zn446   1.923   .     S
O440   Zn447   1.934   .     S
O441   Zn448   1.930   .     S
O442   Zn445   1.924   .     S
O443   Zn446   1.950   .     S
O444   Zn447   1.938   .     S
C449   O505    1.268   .     A
C449   O503    1.267   .     A
C449   C455    1.437   .     S
C450   C464    1.394   .     A
C450   H491    1.077   .     S
C450   C472    1.412   .     A
C451   C463    1.387   .     A
C451   H476    1.084   .     S
C451   C464    1.396   .     A
C452   O504    1.285   .     A
C452   C454    1.465   .     S
C452   O506    1.289   .     A
C453   C471    1.419   .     A
C453   C465    1.402   .     A
C453   C462    1.475   .     S
C454   C519    1.339   .     S
C454   N559    1.443   .     S
C456   C459    1.455   .     S
C456   C73     1.353   1_565 S
C456   H104    1.089   1_565 S
C457   C458    1.433   .     S
C458   O507    1.274   .     A
C458   O501    1.272   .     A
C459   O502    1.260   .     A
C459   O508    1.281   .     A
C460   C465    1.387   .     A
C460   H494    1.083   .     S
C460   C1045   1.391   .     S
C461   O497    1.271   .     A
C461   C464    1.451   .     S
C461   O499    1.282   .     A
C462   O498    1.284   .     A
C462   O500    1.284   .     A
C463   H490    1.084   .     S
C463   C1049   1.400   1_554 S
C465   H492    1.083   .     S
C466   H483    1.112   .     S
C466   H484    1.112   .     S
C466   C73     1.531   1_565 S
C466   C83     1.540   1_565 S
C467   C468    1.526   .     S
C467   H482    1.112   .     S
C467   H481    1.112   .     S
C468   H480    1.110   .     S
C469   H493    1.076   .     S
C469   C1036   1.391   1_554 S
C469   C1046   1.417   1_554 S
C470   C471    1.424   .     A
C470   C1045   1.417   .     S
C470   C1048   1.426   .     S
C471   C475    1.410   .     A
C472   C1046   1.426   1_554 S
C472   C1049   1.424   1_554 S
C473   C474    1.391   .     A
C473   C1048   1.424   .     S
C473   C1039   1.400   .     S
C474   C475    1.382   .     A
C474   H489    1.084   .     S
C475   H477    1.080   .     S
H478   C84     1.111   1_565 S
H479   C84     1.111   1_565 S
H485   N495    1.044   .     S
H486   N495    1.046   .     S
H487   C519    1.086   .     S
O496   Zn510   1.940   .     S
O496   Zn512   1.927   .     S
O496   Zn509   1.965   .     S
O496   Zn511   1.946   .     S
O497   Zn510   1.933   .     S
O498   Zn512   1.942   .     S
O499   Zn511   1.930   .     S
O500   Zn509   1.923   .     S
O501   Zn509   1.937   .     S
O502   Zn512   1.947   .     S
O503   Zn510   1.923   .     S
O504   Zn511   1.934   .     S
O505   Zn512   1.930   .     S
O506   Zn509   1.924   .     S
O507   Zn510   1.950   .     S
O508   Zn511   1.938   .     S
C513   O569    1.268   .     A
C513   O567    1.267   .     A
C513   C519    1.437   .     S
C514   C528    1.394   .     A
C514   H555    1.077   .     S
C514   C536    1.412   .     A
C515   C527    1.387   .     A
C515   H540    1.084   .     S
C515   C528    1.396   .     A
C516   O568    1.285   .     A
C516   C518    1.465   .     S
C516   O570    1.289   .     A
C517   C535    1.419   .     A
C517   C529    1.402   .     A
C517   C526    1.475   .     S
C518   C391    1.339   1_655 S
C518   N431    1.443   1_655 S
C520   C523    1.455   .     S
C520   C137    1.353   1_565 S
C520   H168    1.089   1_565 S
C521   C522    1.433   .     S
C522   O571    1.274   .     A
C522   O565    1.272   .     A
C523   O566    1.260   .     A
C523   O572    1.281   .     A
C524   C529    1.387   .     A
C524   H558    1.083   .     S
C524   C1109   1.391   .     S
C525   O561    1.271   .     A
C525   C528    1.451   .     S
C525   O563    1.282   .     A
C526   O562    1.284   .     A
C526   O564    1.284   .     A
C527   H554    1.084   .     S
C527   C1113   1.400   1_554 S
C529   H556    1.083   .     S
C530   H547    1.112   .     S
C530   H548    1.112   .     S
C530   C137    1.531   1_565 S
C530   C147    1.540   1_565 S
C531   C532    1.526   .     S
C531   H546    1.112   .     S
C531   H545    1.112   .     S
C532   H544    1.110   .     S
C533   H557    1.076   .     S
C533   C1100   1.391   1_554 S
C533   C1110   1.417   1_554 S
C534   C535    1.424   .     A
C534   C1109   1.417   .     S
C534   C1112   1.426   .     S
C535   C539    1.410   .     A
C536   C1110   1.426   1_554 S
C536   C1113   1.424   1_554 S
C537   C538    1.391   .     A
C537   C1112   1.424   .     S
C537   C1103   1.400   .     S
C538   C539    1.382   .     A
C538   H553    1.084   .     S
C539   H541    1.080   .     S
H542   C148    1.111   1_565 S
H543   C148    1.111   1_565 S
H549   N559    1.044   .     S
H550   N559    1.046   .     S
H551   C391    1.086   1_655 S
O560   Zn574   1.940   .     S
O560   Zn576   1.927   .     S
O560   Zn573   1.965   .     S
O560   Zn575   1.946   .     S
O561   Zn574   1.933   .     S
O562   Zn576   1.942   .     S
O563   Zn575   1.930   .     S
O564   Zn573   1.923   .     S
O565   Zn573   1.937   .     S
O566   Zn576   1.947   .     S
O567   Zn574   1.923   .     S
O568   Zn575   1.934   .     S
O569   Zn576   1.930   .     S
O570   Zn573   1.924   .     S
O571   Zn574   1.950   .     S
O572   Zn575   1.938   .     S
C577   O633    1.268   .     A
C577   O631    1.267   .     A
C577   C583    1.437   .     S
C578   C592    1.394   .     A
C578   H619    1.077   .     S
C578   C600    1.412   .     A
C579   C591    1.387   .     A
C579   H604    1.084   .     S
C579   C592    1.396   .     A
C580   O632    1.285   .     A
C580   C582    1.465   .     S
C580   O634    1.289   .     A
C581   C599    1.419   .     A
C581   C593    1.402   .     A
C581   C590    1.475   .     S
C582   C647    1.339   .     S
C582   N687    1.443   .     S
C583   C710    1.339   1_455 S
C583   H743    1.086   1_455 S
C584   C587    1.455   .     S
C584   C777    1.353   .     S
C584   H808    1.089   .     S
C585   C586    1.433   .     S
C585   C968    1.353   1_545 S
C585   C978    1.531   1_545 S
C586   O635    1.274   .     A
C586   O629    1.272   .     A
C587   O630    1.260   .     A
C587   O636    1.281   .     A
C588   C593    1.387   .     A
C588   H622    1.083   .     S
C588   C21     1.391   1_556 S
C589   O625    1.271   .     A
C589   C592    1.451   .     S
C589   O627    1.282   .     A
C590   O626    1.284   .     A
C590   O628    1.284   .     A
C591   H618    1.084   .     S
C593   H620    1.083   .     S
C594   H611    1.112   .     S
C594   H612    1.112   .     S
C594   C777    1.531   .     S
C594   C787    1.540   .     S
C595   C596    1.526   .     S
C595   H610    1.112   .     S
C595   H609    1.112   .     S
C595   C978    1.540   1_545 S
C596   H608    1.110   .     S
C596   H990    1.111   1_545 S
C596   H991    1.111   1_545 S
C597   H621    1.076   .     S
C598   C599    1.424   .     A
C598   C21     1.417   1_556 S
C598   C24     1.426   1_556 S
C599   C603    1.410   .     A
C601   C602    1.391   .     A
C601   C24     1.424   1_556 S
C601   C15     1.400   1_556 S
C602   C603    1.382   .     A
C602   H617    1.084   .     S
C603   H605    1.080   .     S
H606   C788    1.111   .     S
H607   C788    1.111   .     S
H613   N623    1.044   .     S
H614   N623    1.046   .     S
H615   C647    1.086   .     S
H616   C968    1.089   1_545 S
N623   C710    1.443   1_455 S
O624   Zn638   1.940   .     S
O624   Zn640   1.927   .     S
O624   Zn637   1.965   .     S
O624   Zn639   1.946   .     S
O625   Zn638   1.933   .     S
O626   Zn640   1.942   .     S
O627   Zn639   1.930   .     S
O628   Zn637   1.923   .     S
O629   Zn637   1.937   .     S
O630   Zn640   1.947   .     S
O631   Zn638   1.923   .     S
O632   Zn639   1.934   .     S
O633   Zn640   1.930   .     S
O634   Zn637   1.924   .     S
O635   Zn638   1.950   .     S
O636   Zn639   1.938   .     S
C641   O697    1.268   .     A
C641   O695    1.267   .     A
C641   C647    1.437   .     S
C642   C656    1.394   .     A
C642   H683    1.077   .     S
C642   C664    1.412   .     A
C643   C655    1.387   .     A
C643   H668    1.084   .     S
C643   C656    1.396   .     A
C644   O696    1.285   .     A
C644   C646    1.465   .     S
C644   O698    1.289   .     A
C645   C663    1.419   .     A
C645   C657    1.402   .     A
C645   C654    1.475   .     S
C646   C711    1.339   .     S
C646   N751    1.443   .     S
C648   C651    1.455   .     S
C648   C841    1.353   .     S
C648   H872    1.089   .     S
C649   C650    1.433   .     S
C649   C1032   1.353   1_545 S
C649   C1042   1.531   1_545 S
C650   O699    1.274   .     A
C650   O693    1.272   .     A
C651   O694    1.260   .     A
C651   O700    1.281   .     A
C652   C657    1.387   .     A
C652   H686    1.083   .     S
C652   C85     1.391   1_556 S
C653   O689    1.271   .     A
C653   C656    1.451   .     S
C653   O691    1.282   .     A
C654   O690    1.284   .     A
C654   O692    1.284   .     A
C655   H682    1.084   .     S
C657   H684    1.083   .     S
C658   H675    1.112   .     S
C658   H676    1.112   .     S
C658   C841    1.531   .     S
C658   C851    1.540   .     S
C659   C660    1.526   .     S
C659   H674    1.112   .     S
C659   H673    1.112   .     S
C659   C1042   1.540   1_545 S
C660   H672    1.110   .     S
C660   H1054   1.111   1_545 S
C660   H1055   1.111   1_545 S
C661   H685    1.076   .     S
C662   C663    1.424   .     A
C662   C85     1.417   1_556 S
C662   C88     1.426   1_556 S
C663   C667    1.410   .     A
C665   C666    1.391   .     A
C665   C88     1.424   1_556 S
C665   C79     1.400   1_556 S
C666   C667    1.382   .     A
C666   H681    1.084   .     S
C667   H669    1.080   .     S
H670   C852    1.111   .     S
H671   C852    1.111   .     S
H677   N687    1.044   .     S
H678   N687    1.046   .     S
H679   C711    1.086   .     S
H680   C1032   1.089   1_545 S
O688   Zn702   1.940   .     S
O688   Zn704   1.927   .     S
O688   Zn701   1.965   .     S
O688   Zn703   1.946   .     S
O689   Zn702   1.933   .     S
O690   Zn704   1.942   .     S
O691   Zn703   1.930   .     S
O692   Zn701   1.923   .     S
O693   Zn701   1.937   .     S
O694   Zn704   1.947   .     S
O695   Zn702   1.923   .     S
O696   Zn703   1.934   .     S
O697   Zn704   1.930   .     S
O698   Zn701   1.924   .     S
O699   Zn702   1.950   .     S
O700   Zn703   1.938   .     S
C705   O761    1.268   .     A
C705   O759    1.267   .     A
C705   C711    1.437   .     S
C706   C720    1.394   .     A
C706   H747    1.077   .     S
C706   C728    1.412   .     A
C707   C719    1.387   .     A
C707   H732    1.084   .     S
C707   C720    1.396   .     A
C708   O760    1.285   .     A
C708   C710    1.465   .     S
C708   O762    1.289   .     A
C709   C727    1.419   .     A
C709   C721    1.402   .     A
C709   C718    1.475   .     S
C710   C583    1.339   1_655 S
C710   N623    1.443   1_655 S
C712   C715    1.455   .     S
C712   C905    1.353   .     S
C712   H936    1.089   .     S
C713   C714    1.433   .     S
C713   C1096   1.353   1_545 S
C713   C1106   1.531   1_545 S
C714   O763    1.274   .     A
C714   O757    1.272   .     A
C715   O758    1.260   .     A
C715   O764    1.281   .     A
C716   C721    1.387   .     A
C716   H750    1.083   .     S
C716   C149    1.391   1_556 S
C717   O753    1.271   .     A
C717   C720    1.451   .     S
C717   O755    1.282   .     A
C718   O754    1.284   .     A
C718   O756    1.284   .     A
C719   H746    1.084   .     S
C721   H748    1.083   .     S
C722   H739    1.112   .     S
C722   H740    1.112   .     S
C722   C905    1.531   .     S
C722   C915    1.540   .     S
C723   C724    1.526   .     S
C723   H738    1.112   .     S
C723   H737    1.112   .     S
C723   C1106   1.540   1_545 S
C724   H736    1.110   .     S
C724   H1118   1.111   1_545 S
C724   H1119   1.111   1_545 S
C725   H749    1.076   .     S
C726   C727    1.424   .     A
C726   C149    1.417   1_556 S
C726   C152    1.426   1_556 S
C727   C731    1.410   .     A
C729   C730    1.391   .     A
C729   C152    1.424   1_556 S
C729   C143    1.400   1_556 S
C730   C731    1.382   .     A
C730   H745    1.084   .     S
C731   H733    1.080   .     S
H734   C916    1.111   .     S
H735   C916    1.111   .     S
H741   N751    1.044   .     S
H742   N751    1.046   .     S
H743   C583    1.086   1_655 S
H744   C1096   1.089   1_545 S
O752   Zn766   1.940   .     S
O752   Zn768   1.927   .     S
O752   Zn765   1.965   .     S
O752   Zn767   1.946   .     S
O753   Zn766   1.933   .     S
O754   Zn768   1.942   .     S
O755   Zn767   1.930   .     S
O756   Zn765   1.923   .     S
O757   Zn765   1.937   .     S
O758   Zn768   1.947   .     S
O759   Zn766   1.923   .     S
O760   Zn767   1.934   .     S
O761   Zn768   1.930   .     S
O762   Zn765   1.924   .     S
O763   Zn766   1.950   .     S
O764   Zn767   1.938   .     S
C769   O825    1.268   .     A
C769   O823    1.267   .     A
C769   C775    1.437   .     S
C770   C784    1.394   .     A
C770   H811    1.077   .     S
C770   C792    1.412   .     A
C771   C783    1.387   .     A
C771   H796    1.084   .     S
C771   C784    1.396   .     A
C772   O824    1.285   .     A
C772   C774    1.465   .     S
C772   O826    1.289   .     A
C773   C791    1.419   .     A
C773   C785    1.402   .     A
C773   C782    1.475   .     S
C774   C839    1.339   .     S
C774   N879    1.443   .     S
C775   C902    1.339   1_455 S
C775   H935    1.086   1_455 S
C776   C779    1.455   .     S
C776   C969    1.353   .     S
C776   H1000   1.089   .     S
C777   C778    1.433   .     S
C778   O827    1.274   .     A
C778   O821    1.272   .     A
C779   O822    1.260   .     A
C779   O828    1.281   .     A
C780   C785    1.387   .     A
C780   H814    1.083   .     S
C780   C213    1.391   1_556 S
C781   O817    1.271   .     A
C781   C784    1.451   .     S
C781   O819    1.282   .     A
C782   O818    1.284   .     A
C782   O820    1.284   .     A
C783   H810    1.084   .     S
C785   H812    1.083   .     S
C786   H803    1.112   .     S
C786   H804    1.112   .     S
C786   C969    1.531   .     S
C786   C979    1.540   .     S
C787   C788    1.526   .     S
C787   H802    1.112   .     S
C787   H801    1.112   .     S
C788   H800    1.110   .     S
C789   H813    1.076   .     S
C790   C791    1.424   .     A
C790   C213    1.417   1_556 S
C790   C216    1.426   1_556 S
C791   C795    1.410   .     A
C793   C794    1.391   .     A
C793   C216    1.424   1_556 S
C793   C207    1.400   1_556 S
C794   C795    1.382   .     A
C794   H809    1.084   .     S
C795   H797    1.080   .     S
H798   C980    1.111   .     S
H799   C980    1.111   .     S
H805   N815    1.044   .     S
H806   N815    1.046   .     S
H807   C839    1.086   .     S
N815   C902    1.443   1_455 S
O816   Zn830   1.940   .     S
O816   Zn832   1.927   .     S
O816   Zn829   1.965   .     S
O816   Zn831   1.946   .     S
O817   Zn830   1.933   .     S
O818   Zn832   1.942   .     S
O819   Zn831   1.930   .     S
O820   Zn829   1.923   .     S
O821   Zn829   1.937   .     S
O822   Zn832   1.947   .     S
O823   Zn830   1.923   .     S
O824   Zn831   1.934   .     S
O825   Zn832   1.930   .     S
O826   Zn829   1.924   .     S
O827   Zn830   1.950   .     S
O828   Zn831   1.938   .     S
C833   O889    1.268   .     A
C833   O887    1.267   .     A
C833   C839    1.437   .     S
C834   C848    1.394   .     A
C834   H875    1.077   .     S
C834   C856    1.412   .     A
C835   C847    1.387   .     A
C835   H860    1.084   .     S
C835   C848    1.396   .     A
C836   O888    1.285   .     A
C836   C838    1.465   .     S
C836   O890    1.289   .     A
C837   C855    1.419   .     A
C837   C849    1.402   .     A
C837   C846    1.475   .     S
C838   C903    1.339   .     S
C838   N943    1.443   .     S
C840   C843    1.455   .     S
C840   C1033   1.353   .     S
C840   H1064   1.089   .     S
C841   C842    1.433   .     S
C842   O891    1.274   .     A
C842   O885    1.272   .     A
C843   O886    1.260   .     A
C843   O892    1.281   .     A
C844   C849    1.387   .     A
C844   H878    1.083   .     S
C844   C277    1.391   1_556 S
C845   O881    1.271   .     A
C845   C848    1.451   .     S
C845   O883    1.282   .     A
C846   O882    1.284   .     A
C846   O884    1.284   .     A
C847   H874    1.084   .     S
C849   H876    1.083   .     S
C850   H867    1.112   .     S
C850   H868    1.112   .     S
C850   C1033   1.531   .     S
C850   C1043   1.540   .     S
C851   C852    1.526   .     S
C851   H866    1.112   .     S
C851   H865    1.112   .     S
C852   H864    1.110   .     S
C853   H877    1.076   .     S
C854   C855    1.424   .     A
C854   C277    1.417   1_556 S
C854   C280    1.426   1_556 S
C855   C859    1.410   .     A
C857   C858    1.391   .     A
C857   C280    1.424   1_556 S
C857   C271    1.400   1_556 S
C858   C859    1.382   .     A
C858   H873    1.084   .     S
C859   H861    1.080   .     S
H862   C1044   1.111   .     S
H863   C1044   1.111   .     S
H869   N879    1.044   .     S
H870   N879    1.046   .     S
H871   C903    1.086   .     S
O880   Zn894   1.940   .     S
O880   Zn896   1.927   .     S
O880   Zn893   1.965   .     S
O880   Zn895   1.946   .     S
O881   Zn894   1.933   .     S
O882   Zn896   1.942   .     S
O883   Zn895   1.930   .     S
O884   Zn893   1.923   .     S
O885   Zn893   1.937   .     S
O886   Zn896   1.947   .     S
O887   Zn894   1.923   .     S
O888   Zn895   1.934   .     S
O889   Zn896   1.930   .     S
O890   Zn893   1.924   .     S
O891   Zn894   1.950   .     S
O892   Zn895   1.938   .     S
C897   O953    1.268   .     A
C897   O951    1.267   .     A
C897   C903    1.437   .     S
C898   C912    1.394   .     A
C898   H939    1.077   .     S
C898   C920    1.412   .     A
C899   C911    1.387   .     A
C899   H924    1.084   .     S
C899   C912    1.396   .     A
C900   O952    1.285   .     A
C900   C902    1.465   .     S
C900   O954    1.289   .     A
C901   C919    1.419   .     A
C901   C913    1.402   .     A
C901   C910    1.475   .     S
C902   C775    1.339   1_655 S
C902   N815    1.443   1_655 S
C904   C907    1.455   .     S
C904   C1097   1.353   .     S
C904   H1128   1.089   .     S
C905   C906    1.433   .     S
C906   O955    1.274   .     A
C906   O949    1.272   .     A
C907   O950    1.260   .     A
C907   O956    1.281   .     A
C908   C913    1.387   .     A
C908   H942    1.083   .     S
C908   C341    1.391   1_556 S
C909   O945    1.271   .     A
C909   C912    1.451   .     S
C909   O947    1.282   .     A
C910   O946    1.284   .     A
C910   O948    1.284   .     A
C911   H938    1.084   .     S
C913   H940    1.083   .     S
C914   H931    1.112   .     S
C914   H932    1.112   .     S
C914   C1097   1.531   .     S
C914   C1107   1.540   .     S
C915   C916    1.526   .     S
C915   H930    1.112   .     S
C915   H929    1.112   .     S
C916   H928    1.110   .     S
C917   H941    1.076   .     S
C918   C919    1.424   .     A
C918   C341    1.417   1_556 S
C918   C344    1.426   1_556 S
C919   C923    1.410   .     A
C921   C922    1.391   .     A
C921   C344    1.424   1_556 S
C921   C335    1.400   1_556 S
C922   C923    1.382   .     A
C922   H937    1.084   .     S
C923   H925    1.080   .     S
H926   C1108   1.111   .     S
H927   C1108   1.111   .     S
H933   N943    1.044   .     S
H934   N943    1.046   .     S
H935   C775    1.086   1_655 S
O944   Zn958   1.940   .     S
O944   Zn960   1.927   .     S
O944   Zn957   1.965   .     S
O944   Zn959   1.946   .     S
O945   Zn958   1.933   .     S
O946   Zn960   1.942   .     S
O947   Zn959   1.930   .     S
O948   Zn957   1.923   .     S
O949   Zn957   1.937   .     S
O950   Zn960   1.947   .     S
O951   Zn958   1.923   .     S
O952   Zn959   1.934   .     S
O953   Zn960   1.930   .     S
O954   Zn957   1.924   .     S
O955   Zn958   1.950   .     S
O956   Zn959   1.938   .     S
C961   O1017   1.268   .     A
C961   O1015   1.267   .     A
C961   C967    1.437   .     S
C962   C976    1.394   .     A
C962   H1003   1.077   .     S
C962   C984    1.412   .     A
C963   C975    1.387   .     A
C963   H988    1.084   .     S
C963   C976    1.396   .     A
C964   O1016   1.285   .     A
C964   C966    1.465   .     S
C964   O1018   1.289   .     A
C965   C983    1.419   .     A
C965   C977    1.402   .     A
C965   C974    1.475   .     S
C966   C1031   1.339   .     S
C966   N1071   1.443   .     S
C967   C1094   1.339   1_455 S
C967   H1127   1.086   1_455 S
C968   C971    1.455   .     S
C968   C585    1.353   1_565 S
C968   H616    1.089   1_565 S
C969   C970    1.433   .     S
C970   O1019   1.274   .     A
C970   O1013   1.272   .     A
C971   O1014   1.260   .     A
C971   O1020   1.281   .     A
C972   C977    1.387   .     A
C972   H1006   1.083   .     S
C972   C405    1.391   1_556 S
C973   O1009   1.271   .     A
C973   C976    1.451   .     S
C973   O1011   1.282   .     A
C974   O1010   1.284   .     A
C974   O1012   1.284   .     A
C975   H1002   1.084   .     S
C977   H1004   1.083   .     S
C978   H995    1.112   .     S
C978   H996    1.112   .     S
C978   C585    1.531   1_565 S
C978   C595    1.540   1_565 S
C979   C980    1.526   .     S
C979   H994    1.112   .     S
C979   H993    1.112   .     S
C980   H992    1.110   .     S
C981   H1005   1.076   .     S
C982   C983    1.424   .     A
C982   C405    1.417   1_556 S
C982   C408    1.426   1_556 S
C983   C987    1.410   .     A
C985   C986    1.391   .     A
C985   C408    1.424   1_556 S
C985   C399    1.400   1_556 S
C986   C987    1.382   .     A
C986   H1001   1.084   .     S
C987   H989    1.080   .     S
H990   C596    1.111   1_565 S
H991   C596    1.111   1_565 S
H997   N1007   1.044   .     S
H998   N1007   1.046   .     S
H999   C1031   1.086   .     S
N1007  C1094   1.443   1_455 S
O1008  Zn1022  1.940   .     S
O1008  Zn1024  1.927   .     S
O1008  Zn1021  1.965   .     S
O1008  Zn1023  1.946   .     S
O1009  Zn1022  1.933   .     S
O1010  Zn1024  1.942   .     S
O1011  Zn1023  1.930   .     S
O1012  Zn1021  1.923   .     S
O1013  Zn1021  1.937   .     S
O1014  Zn1024  1.947   .     S
O1015  Zn1022  1.923   .     S
O1016  Zn1023  1.934   .     S
O1017  Zn1024  1.930   .     S
O1018  Zn1021  1.924   .     S
O1019  Zn1022  1.950   .     S
O1020  Zn1023  1.938   .     S
C1025  O1081   1.268   .     A
C1025  O1079   1.267   .     A
C1025  C1031   1.437   .     S
C1026  C1040   1.394   .     A
C1026  H1067   1.077   .     S
C1026  C1048   1.412   .     A
C1027  C1039   1.387   .     A
C1027  H1052   1.084   .     S
C1027  C1040   1.396   .     A
C1028  O1080   1.285   .     A
C1028  C1030   1.465   .     S
C1028  O1082   1.289   .     A
C1029  C1047   1.419   .     A
C1029  C1041   1.402   .     A
C1029  C1038   1.475   .     S
C1030  C1095   1.339   .     S
C1030  N1135   1.443   .     S
C1032  C1035   1.455   .     S
C1032  C649    1.353   1_565 S
C1032  H680    1.089   1_565 S
C1033  C1034   1.433   .     S
C1034  O1083   1.274   .     A
C1034  O1077   1.272   .     A
C1035  O1078   1.260   .     A
C1035  O1084   1.281   .     A
C1036  C1041   1.387   .     A
C1036  H1070   1.083   .     S
C1036  C469    1.391   1_556 S
C1037  O1073   1.271   .     A
C1037  C1040   1.451   .     S
C1037  O1075   1.282   .     A
C1038  O1074   1.284   .     A
C1038  O1076   1.284   .     A
C1039  H1066   1.084   .     S
C1041  H1068   1.083   .     S
C1042  H1059   1.112   .     S
C1042  H1060   1.112   .     S
C1042  C649    1.531   1_565 S
C1042  C659    1.540   1_565 S
C1043  C1044   1.526   .     S
C1043  H1058   1.112   .     S
C1043  H1057   1.112   .     S
C1044  H1056   1.110   .     S
C1045  H1069   1.076   .     S
C1046  C1047   1.424   .     A
C1046  C469    1.417   1_556 S
C1046  C472    1.426   1_556 S
C1047  C1051   1.410   .     A
C1049  C1050   1.391   .     A
C1049  C472    1.424   1_556 S
C1049  C463    1.400   1_556 S
C1050  C1051   1.382   .     A
C1050  H1065   1.084   .     S
C1051  H1053   1.080   .     S
H1054  C660    1.111   1_565 S
H1055  C660    1.111   1_565 S
H1061  N1071   1.044   .     S
H1062  N1071   1.046   .     S
H1063  C1095   1.086   .     S
O1072  Zn1086  1.940   .     S
O1072  Zn1088  1.927   .     S
O1072  Zn1085  1.965   .     S
O1072  Zn1087  1.946   .     S
O1073  Zn1086  1.933   .     S
O1074  Zn1088  1.942   .     S
O1075  Zn1087  1.930   .     S
O1076  Zn1085  1.923   .     S
O1077  Zn1085  1.937   .     S
O1078  Zn1088  1.947   .     S
O1079  Zn1086  1.923   .     S
O1080  Zn1087  1.934   .     S
O1081  Zn1088  1.930   .     S
O1082  Zn1085  1.924   .     S
O1083  Zn1086  1.950   .     S
O1084  Zn1087  1.938   .     S
C1089  O1145   1.268   .     A
C1089  O1143   1.267   .     A
C1089  C1095   1.437   .     S
C1090  C1104   1.394   .     A
C1090  H1131   1.077   .     S
C1090  C1112   1.412   .     A
C1091  C1103   1.387   .     A
C1091  H1116   1.084   .     S
C1091  C1104   1.396   .     A
C1092  O1144   1.285   .     A
C1092  C1094   1.465   .     S
C1092  O1146   1.289   .     A
C1093  C1111   1.419   .     A
C1093  C1105   1.402   .     A
C1093  C1102   1.475   .     S
C1094  C967    1.339   1_655 S
C1094  N1007   1.443   1_655 S
C1096  C1099   1.455   .     S
C1096  C713    1.353   1_565 S
C1096  H744    1.089   1_565 S
C1097  C1098   1.433   .     S
C1098  O1147   1.274   .     A
C1098  O1141   1.272   .     A
C1099  O1142   1.260   .     A
C1099  O1148   1.281   .     A
C1100  C1105   1.387   .     A
C1100  H1134   1.083   .     S
C1100  C533    1.391   1_556 S
C1101  O1137   1.271   .     A
C1101  C1104   1.451   .     S
C1101  O1139   1.282   .     A
C1102  O1138   1.284   .     A
C1102  O1140   1.284   .     A
C1103  H1130   1.084   .     S
C1105  H1132   1.083   .     S
C1106  H1123   1.112   .     S
C1106  H1124   1.112   .     S
C1106  C713    1.531   1_565 S
C1106  C723    1.540   1_565 S
C1107  C1108   1.526   .     S
C1107  H1122   1.112   .     S
C1107  H1121   1.112   .     S
C1108  H1120   1.110   .     S
C1109  H1133   1.076   .     S
C1110  C1111   1.424   .     A
C1110  C533    1.417   1_556 S
C1110  C536    1.426   1_556 S
C1111  C1115   1.410   .     A
C1113  C1114   1.391   .     A
C1113  C536    1.424   1_556 S
C1113  C527    1.400   1_556 S
C1114  C1115   1.382   .     A
C1114  H1129   1.084   .     S
C1115  H1117   1.080   .     S
H1118  C724    1.111   1_565 S
H1119  C724    1.111   1_565 S
H1125  N1135   1.044   .     S
H1126  N1135   1.046   .     S
H1127  C967    1.086   1_655 S
O1136  Zn1150  1.940   .     S
O1136  Zn1152  1.927   .     S
O1136  Zn1149  1.965   .     S
O1136  Zn1151  1.946   .     S
O1137  Zn1150  1.933   .     S
O1138  Zn1152  1.942   .     S
O1139  Zn1151  1.930   .     S
O1140  Zn1149  1.923   .     S
O1141  Zn1149  1.937   .     S
O1142  Zn1152  1.947   .     S
O1143  Zn1150  1.923   .     S
O1144  Zn1151  1.934   .     S
O1145  Zn1152  1.930   .     S
O1146  Zn1149  1.924   .     S
O1147  Zn1150  1.950   .     S
O1148  Zn1151  1.938   .     S
