data_str_m1_o1_o1_pcu_sym.9
_audit_creation_date              2020-01-03
_audit_creation_method            'Materials Studio'
_symmetry_space_group_name_H-M    'P1'
_symmetry_Int_Tables_number       1
_symmetry_cell_setting            triclinic
loop_
_symmetry_equiv_pos_as_xyz
  x,y,z
_cell_length_a                    25.9321
_cell_length_b                    25.9741
_cell_length_c                    25.8981
_cell_angle_alpha                 90.1931
_cell_angle_beta                  90.0645
_cell_angle_gamma                 89.7996
loop_
_atom_site_label
_atom_site_type_symbol
_atom_site_fract_x
_atom_site_fract_y
_atom_site_fract_z
_atom_site_U_iso_or_equiv
_atom_site_adp_type
_atom_site_occupancy
C1     C     0.39009   0.25011   0.24997   0.00000  Uiso   1.00
C2     C     0.61000   0.24985   0.25017   0.00000  Uiso   1.00
C3     C     0.97266   0.74912   0.20310   0.00000  Uiso   1.00
C4     C     0.02696   0.79737   0.75537   0.00000  Uiso   1.00
C5     C     0.97329   0.20337   0.24026   0.00000  Uiso   1.00
C6     C     0.02666   0.74812   0.20282   0.00000  Uiso   1.00
C7     C     0.97294   0.29445   0.76433   0.00000  Uiso   1.00
C8     C     0.74917   0.70253   0.02674   0.00000  Uiso   1.00
C9     C     0.20208   0.24763   0.97302   0.00000  Uiso   1.00
C10    C     0.76834   0.20692   0.02704   0.00000  Uiso   1.00
C11    C     0.29591   0.73992   0.97266   0.00000  Uiso   1.00
C12    C     0.20209   0.24823   0.02695   0.00000  Uiso   1.00
C13    C     0.24960   0.74967   0.39003   0.00000  Uiso   1.00
C14    C     0.74885   0.70274   0.97279   0.00000  Uiso   1.00
C15    C     0.29567   0.73807   0.02670   0.00000  Uiso   1.00
C16    C     0.77050   0.20777   0.97296   0.00000  Uiso   1.00
C17    C     0.20402   0.76159   0.97277   0.00000  Uiso   1.00
C18    C     0.72933   0.29306   0.02741   0.00000  Uiso   1.00
C19    C     0.29675   0.24757   0.97290   0.00000  Uiso   1.00
C20    C     0.75013   0.79699   0.02760   0.00000  Uiso   1.00
C21    C     0.72956   0.29313   0.97312   0.00000  Uiso   1.00
C22    C     0.20435   0.76308   0.02685   0.00000  Uiso   1.00
C23    C     0.74919   0.79734   0.97352   0.00000  Uiso   1.00
C24    C     0.74955   0.24949   0.60997   0.00000  Uiso   1.00
C25    C     0.29684   0.24741   0.02687   0.00000  Uiso   1.00
C26    C     0.70349   0.47350   0.74258   0.00000  Uiso   1.00
C27    C     0.29624   0.52712   0.24473   0.00000  Uiso   1.00
C28    C     0.79288   0.47246   0.26820   0.00000  Uiso   1.00
C29    C     0.29558   0.52628   0.73981   0.00000  Uiso   1.00
C30    C     0.29636   0.47334   0.24140   0.00000  Uiso   1.00
C31    C     0.70300   0.52731   0.74579   0.00000  Uiso   1.00
C32    C     0.29616   0.47264   0.74426   0.00000  Uiso   1.00
C33    C     0.79376   0.52643   0.26757   0.00000  Uiso   1.00
C34    C     0.47295   0.24311   0.29693   0.00000  Uiso   1.00
C35    C     0.60999   0.75034   0.25024   0.00000  Uiso   1.00
C36    C     0.52860   0.70485   0.75977   0.00000  Uiso   1.00
C37    C     0.47311   0.72250   0.21205   0.00000  Uiso   1.00
C38    C     0.52696   0.20905   0.72623   0.00000  Uiso   1.00
C39    C     0.47471   0.70295   0.75572   0.00000  Uiso   1.00
C40    C     0.52703   0.24296   0.29714   0.00000  Uiso   1.00
C41    C     0.47298   0.20951   0.72525   0.00000  Uiso   1.00
C42    C     0.52702   0.72273   0.21224   0.00000  Uiso   1.00
C43    C     0.24132   0.70281   0.52712   0.00000  Uiso   1.00
C44    C     0.70509   0.23682   0.47208   0.00000  Uiso   1.00
C45    C     0.72921   0.79164   0.52742   0.00000  Uiso   1.00
C46    C     0.38992   0.24982   0.74990   0.00000  Uiso   1.00
C47    C     0.24338   0.29767   0.47298   0.00000  Uiso   1.00
C48    C     0.70357   0.23914   0.52621   0.00000  Uiso   1.00
C49    C     0.24227   0.70236   0.47291   0.00000  Uiso   1.00
C50    C     0.24298   0.29755   0.52720   0.00000  Uiso   1.00
C51    C     0.72944   0.79204   0.47330   0.00000  Uiso   1.00
C52    C     0.24932   0.55375   0.25101   0.00000  Uiso   1.00
C53    C     0.75069   0.44641   0.74710   0.00000  Uiso   1.00
C54    C     0.24887   0.55367   0.74589   0.00000  Uiso   1.00
C55    C     0.74907   0.44613   0.25003   0.00000  Uiso   1.00
C56    C     0.74998   0.55401   0.75027   0.00000  Uiso   1.00
C57    C     0.75032   0.74958   0.61007   0.00000  Uiso   1.00
C58    C     0.25029   0.44610   0.25031   0.00000  Uiso   1.00
C59    C     0.75053   0.55373   0.24894   0.00000  Uiso   1.00
C60    C     0.24917   0.44604   0.74961   0.00000  Uiso   1.00
C61    C     0.55406   0.75140   0.75035   0.00000  Uiso   1.00
C62    C     0.44627   0.25073   0.25008   0.00000  Uiso   1.00
C63    C     0.55371   0.24968   0.75063   0.00000  Uiso   1.00
C64    C     0.44599   0.75030   0.25018   0.00000  Uiso   1.00
C65    C     0.55394   0.24957   0.25036   0.00000  Uiso   1.00
C66    C     0.44639   0.74938   0.75105   0.00000  Uiso   1.00
C67    C     0.55378   0.75056   0.25045   0.00000  Uiso   1.00
C68    C     0.25004   0.25049   0.38993   0.00000  Uiso   1.00
C69    C     0.44594   0.24986   0.74983   0.00000  Uiso   1.00
C70    C     0.75070   0.25017   0.44614   0.00000  Uiso   1.00
C71    C     0.25044   0.74936   0.55386   0.00000  Uiso   1.00
C72    C     0.25156   0.25109   0.44597   0.00000  Uiso   1.00
C73    C     0.75035   0.74934   0.55396   0.00000  Uiso   1.00
C74    C     0.24892   0.74917   0.44615   0.00000  Uiso   1.00
C75    C     0.74950   0.24911   0.55383   0.00000  Uiso   1.00
C76    C     0.75072   0.74987   0.44617   0.00000  Uiso   1.00
C77    C     0.24903   0.25053   0.55372   0.00000  Uiso   1.00
C78    C     0.74996   0.05378   0.25042   0.00000  Uiso   1.00
C79    C     0.24977   0.39001   0.75004   0.00000  Uiso   1.00
C80    C     0.24933   0.94611   0.75095   0.00000  Uiso   1.00
C81    C     0.24988   0.05371   0.25008   0.00000  Uiso   1.00
C82    C     0.75033   0.94626   0.74997   0.00000  Uiso   1.00
C83    C     0.24701   0.05367   0.75126   0.00000  Uiso   1.00
C84    C     0.74965   0.94620   0.24925   0.00000  Uiso   1.00
C85    C     0.75080   0.05396   0.75031   0.00000  Uiso   1.00
C86    C     0.25065   0.94607   0.24925   0.00000  Uiso   1.00
C87    C     0.05380   0.74938   0.25017   0.00000  Uiso   1.00
C88    C     0.94621   0.24902   0.75096   0.00000  Uiso   1.00
C89    C     0.05365   0.75011   0.75068   0.00000  Uiso   1.00
C90    C     0.75017   0.60994   0.24981   0.00000  Uiso   1.00
C91    C     0.94625   0.24980   0.24986   0.00000  Uiso   1.00
C92    C     0.05378   0.24852   0.75354   0.00000  Uiso   1.00
C93    C     0.94617   0.75023   0.25048   0.00000  Uiso   1.00
C94    C     0.05399   0.24956   0.24866   0.00000  Uiso   1.00
C95    C     0.94597   0.75097   0.74964   0.00000  Uiso   1.00
C96    C     0.74955   0.75010   0.94624   0.00000  Uiso   1.00
C97    C     0.24954   0.24873   0.05383   0.00000  Uiso   1.00
C98    C     0.75007   0.25039   0.94616   0.00000  Uiso   1.00
C99    C     0.24995   0.75017   0.05381   0.00000  Uiso   1.00
C100   C     0.24941   0.24867   0.94610   0.00000  Uiso   1.00
C101   C     0.24964   0.60993   0.25039   0.00000  Uiso   1.00
C102   C     0.74990   0.74966   0.05391   0.00000  Uiso   1.00
C103   C     0.24990   0.75058   0.94603   0.00000  Uiso   1.00
C104   C     0.74882   0.24987   0.05391   0.00000  Uiso   1.00
C105   C     0.15877   0.42878   0.32882   0.00000  Uiso   1.00
C106   C     0.86843   0.55497   0.80490   0.00000  Uiso   1.00
C107   C     0.12919   0.45249   0.80527   0.00000  Uiso   1.00
C108   C     0.68033   0.56151   0.14761   0.00000  Uiso   1.00
C109   C     0.85955   0.43328   0.69156   0.00000  Uiso   1.00
C110   C     0.12294   0.55893   0.22030   0.00000  Uiso   1.00
C111   C     0.62035   0.43966   0.24683   0.00000  Uiso   1.00
C112   C     0.61005   0.75126   0.74908   0.00000  Uiso   1.00
C113   C     0.75042   0.39015   0.74922   0.00000  Uiso   1.00
C114   C     0.14017   0.55883   0.68586   0.00000  Uiso   1.00
C115   C     0.44193   0.87351   0.78933   0.00000  Uiso   1.00
C116   C     0.55851   0.22101   0.12362   0.00000  Uiso   1.00
C117   C     0.43701   0.31912   0.85678   0.00000  Uiso   1.00
C118   C     0.55832   0.86202   0.31368   0.00000  Uiso   1.00
C119   C     0.43157   0.32466   0.15236   0.00000  Uiso   1.00
C120   C     0.55557   0.84909   0.67162   0.00000  Uiso   1.00
C121   C     0.44048   0.78036   0.37638   0.00000  Uiso   1.00
C122   C     0.55447   0.37810   0.78193   0.00000  Uiso   1.00
C123   C     0.87655   0.22499   0.55867   0.00000  Uiso   1.00
C124   C     0.74990   0.61001   0.75020   0.00000  Uiso   1.00
C125   C     0.20955   0.87143   0.44557   0.00000  Uiso   1.00
C126   C     0.20968   0.12739   0.54459   0.00000  Uiso   1.00
C127   C     0.85263   0.67389   0.44035   0.00000  Uiso   1.00
C128   C     0.32430   0.84817   0.56727   0.00000  Uiso   1.00
C129   C     0.84068   0.33686   0.44195   0.00000  Uiso   1.00
C130   C     0.76138   0.61978   0.55714   0.00000  Uiso   1.00
C131   C     0.33198   0.15564   0.43731   0.00000  Uiso   1.00
C132   C     0.63374   0.93339   0.19613   0.00000  Uiso   1.00
C133   C     0.21432   0.06956   0.86927   0.00000  Uiso   1.00
C134   C     0.32965   0.92839   0.34033   0.00000  Uiso   1.00
C135   C     0.25053   0.39002   0.24957   0.00000  Uiso   1.00
C136   C     0.78059   0.05778   0.62406   0.00000  Uiso   1.00
C137   C     0.31533   0.93984   0.86480   0.00000  Uiso   1.00
C138   C     0.62825   0.06321   0.20190   0.00000  Uiso   1.00
C139   C     0.67097   0.93835   0.65386   0.00000  Uiso   1.00
C140   C     0.21829   0.05514   0.37671   0.00000  Uiso   1.00
C141   C     0.71786   0.05453   0.87590   0.00000  Uiso   1.00
C142   C     0.27264   0.92958   0.12502   0.00000  Uiso   1.00
C143   C     0.16618   0.06281   0.65367   0.00000  Uiso   1.00
C144   C     0.86271   0.93077   0.20085   0.00000  Uiso   1.00
C145   C     0.27385   0.06150   0.12160   0.00000  Uiso   1.00
C146   C     0.74937   0.39000   0.24962   0.00000  Uiso   1.00
C147   C     0.82889   0.93336   0.84587   0.00000  Uiso   1.00
C148   C     0.87028   0.05872   0.30316   0.00000  Uiso   1.00
C149   C     0.18360   0.93620   0.63694   0.00000  Uiso   1.00
C150   C     0.93188   0.79569   0.36975   0.00000  Uiso   1.00
C151   C     0.07014   0.12985   0.78117   0.00000  Uiso   1.00
C152   C     0.92998   0.65328   0.67787   0.00000  Uiso   1.00
C153   C     0.05431   0.37083   0.20654   0.00000  Uiso   1.00
C154   C     0.94006   0.13837   0.67980   0.00000  Uiso   1.00
C155   C     0.06246   0.79280   0.37404   0.00000  Uiso   1.00
C156   C     0.94358   0.34814   0.32882   0.00000  Uiso   1.00
C157   C     0.24940   0.60989   0.74878   0.00000  Uiso   1.00
C158   C     0.05368   0.62713   0.79352   0.00000  Uiso   1.00
C159   C     0.05821   0.12384   0.28014   0.00000  Uiso   1.00
C160   C     0.92955   0.87400   0.72130   0.00000  Uiso   1.00
C161   C     0.06313   0.34092   0.84013   0.00000  Uiso   1.00
C162   C     0.93185   0.80247   0.13866   0.00000  Uiso   1.00
C163   C     0.06138   0.87687   0.71909   0.00000  Uiso   1.00
C164   C     0.93197   0.15196   0.17439   0.00000  Uiso   1.00
C165   C     0.05938   0.70037   0.12828   0.00000  Uiso   1.00
C166   C     0.93645   0.35822   0.82428   0.00000  Uiso   1.00
C167   C     0.79043   0.62610   0.06325   0.00000  Uiso   1.00
C168   C     0.89005   0.74973   0.25040   0.00000  Uiso   1.00
C169   C     0.14125   0.19260   0.92816   0.00000  Uiso   1.00
C170   C     0.75020   0.12198   0.05959   0.00000  Uiso   1.00
C171   C     0.37712   0.77217   0.94094   0.00000  Uiso   1.00
C172   C     0.12480   0.29213   0.05684   0.00000  Uiso   1.00
C173   C     0.78824   0.62589   0.93459   0.00000  Uiso   1.00
C174   C     0.34440   0.66906   0.06578   0.00000  Uiso   1.00
C175   C     0.84778   0.17280   0.93441   0.00000  Uiso   1.00
C176   C     0.12216   0.73086   0.94081   0.00000  Uiso   1.00
C177   C     0.66072   0.33246   0.07813   0.00000  Uiso   1.00
C178   C     0.36825   0.20179   0.93162   0.00000  Uiso   1.00
C179   C     0.10991   0.24962   0.75078   0.00000  Uiso   1.00
C180   C     0.80470   0.85922   0.07031   0.00000  Uiso   1.00
C181   C     0.65731   0.33058   0.92708   0.00000  Uiso   1.00
C182   C     0.15669   0.83121   0.06929   0.00000  Uiso   1.00
C183   C     0.70247   0.87244   0.94145   0.00000  Uiso   1.00
C184   C     0.36988   0.19824   0.06037   0.00000  Uiso   1.00
C185   C     0.64177   0.43648   0.68235   0.00000  Uiso   1.00
C186   C     0.37329   0.55540   0.28819   0.00000  Uiso   1.00
C187   C     0.82784   0.41873   0.33670   0.00000  Uiso   1.00
C188   C     0.34923   0.55769   0.67062   0.00000  Uiso   1.00
C189   C     0.34894   0.43808   0.17309   0.00000  Uiso   1.00
C190   C     0.25003   0.74993   0.10999   0.00000  Uiso   1.00
C191   C     0.62924   0.56424   0.69938   0.00000  Uiso   1.00
C192   C     0.36944   0.43382   0.69831   0.00000  Uiso   1.00
C193   C     0.83752   0.56462   0.34042   0.00000  Uiso   1.00
C194   C     0.42939   0.27546   0.37418   0.00000  Uiso   1.00
C195   C     0.57061   0.65974   0.82944   0.00000  Uiso   1.00
C196   C     0.43111   0.64340   0.18720   0.00000  Uiso   1.00
C197   C     0.57432   0.17229   0.65448   0.00000  Uiso   1.00
C198   C     0.45332   0.62686   0.70761   0.00000  Uiso   1.00
C199   C     0.56050   0.27868   0.37757   0.00000  Uiso   1.00
C200   C     0.42597   0.17785   0.65069   0.00000  Uiso   1.00
C201   C     0.75005   0.25012   0.88998   0.00000  Uiso   1.00
C202   C     0.57364   0.64521   0.18842   0.00000  Uiso   1.00
C203   C     0.26452   0.62506   0.57571   0.00000  Uiso   1.00
C204   C     0.66447   0.16457   0.42999   0.00000  Uiso   1.00
C205   C     0.65951   0.82299   0.58223   0.00000  Uiso   1.00
C206   C     0.27674   0.37424   0.43032   0.00000  Uiso   1.00
C207   C     0.62145   0.27009   0.55839   0.00000  Uiso   1.00
C208   C     0.27582   0.62174   0.43861   0.00000  Uiso   1.00
C209   C     0.27640   0.37815   0.56247   0.00000  Uiso   1.00
C210   C     0.65231   0.82871   0.43642   0.00000  Uiso   1.00
C211   C     0.10993   0.74996   0.75004   0.00000  Uiso   1.00
C212   C     0.24977   0.25004   0.60995   0.00000  Uiso   1.00
C213   C     0.89005   0.25011   0.25021   0.00000  Uiso   1.00
C214   C     0.74994   0.75008   0.89006   0.00000  Uiso   1.00
C215   C     0.24988   0.24974   0.10996   0.00000  Uiso   1.00
C216   C     0.89008   0.24975   0.75014   0.00000  Uiso   1.00
C217   C     0.10994   0.74990   0.25004   0.00000  Uiso   1.00
C218   C     0.24984   0.24979   0.89002   0.00000  Uiso   1.00
C219   C     0.74979   0.74971   0.11000   0.00000  Uiso   1.00
C220   C     0.11004   0.24965   0.24946   0.00000  Uiso   1.00
C221   C     0.88993   0.75077   0.75057   0.00000  Uiso   1.00
C222   C     0.74996   0.24982   0.11003   0.00000  Uiso   1.00
C223   C     0.75028   0.74988   0.38999   0.00000  Uiso   1.00
C224   C     0.24988   0.75024   0.88995   0.00000  Uiso   1.00
C225   C     0.74984   0.89008   0.74987   0.00000  Uiso   1.00
C226   C     0.25013   0.10993   0.25012   0.00000  Uiso   1.00
C227   C     0.75002   0.10993   0.25007   0.00000  Uiso   1.00
C228   C     0.24984   0.89004   0.75029   0.00000  Uiso   1.00
C229   C     0.24936   0.10988   0.75032   0.00000  Uiso   1.00
C230   C     0.74964   0.89006   0.25014   0.00000  Uiso   1.00
C231   C     0.24952   0.89000   0.24936   0.00000  Uiso   1.00
C232   C     0.75043   0.11001   0.75031   0.00000  Uiso   1.00
C233   C     0.20375   0.47254   0.26016   0.00000  Uiso   1.00
C234   C     0.60996   0.24998   0.75009   0.00000  Uiso   1.00
C235   C     0.79729   0.52726   0.75167   0.00000  Uiso   1.00
C236   C     0.20189   0.47334   0.75122   0.00000  Uiso   1.00
C237   C     0.70748   0.52737   0.22912   0.00000  Uiso   1.00
C238   C     0.79778   0.47350   0.74876   0.00000  Uiso   1.00
C239   C     0.20256   0.52664   0.25744   0.00000  Uiso   1.00
C240   C     0.70581   0.47333   0.23132   0.00000  Uiso   1.00
C241   C     0.20186   0.52693   0.74772   0.00000  Uiso   1.00
C242   C     0.47211   0.79670   0.74599   0.00000  Uiso   1.00
C243   C     0.52736   0.25746   0.20371   0.00000  Uiso   1.00
C244   C     0.47248   0.28956   0.77567   0.00000  Uiso   1.00
C245   C     0.38994   0.74993   0.24998   0.00000  Uiso   1.00
C246   C     0.52669   0.77846   0.28865   0.00000  Uiso   1.00
C247   C     0.47344   0.25947   0.20373   0.00000  Uiso   1.00
C248   C     0.52595   0.79732   0.74206   0.00000  Uiso   1.00
C249   C     0.47256   0.77794   0.28881   0.00000  Uiso   1.00
C250   C     0.52658   0.28947   0.77621   0.00000  Uiso   1.00
C251   C     0.79576   0.25970   0.52782   0.00000  Uiso   1.00
C252   C     0.25551   0.79581   0.47302   0.00000  Uiso   1.00
C253   C     0.25651   0.20423   0.52634   0.00000  Uiso   1.00
C254   C     0.77247   0.70781   0.47292   0.00000  Uiso   1.00
C255   C     0.25898   0.79559   0.52683   0.00000  Uiso   1.00
C256   C     0.75075   0.25068   0.39001   0.00000  Uiso   1.00
C257   C     0.79578   0.26298   0.47387   0.00000  Uiso   1.00
C258   C     0.77159   0.70717   0.52700   0.00000  Uiso   1.00
C259   C     0.26147   0.20515   0.47266   0.00000  Uiso   1.00
C260   C     0.70249   0.97334   0.24655   0.00000  Uiso   1.00
C261   C     0.25680   0.02726   0.79768   0.00000  Uiso   1.00
C262   C     0.26061   0.97248   0.29562   0.00000  Uiso   1.00
C263   C     0.74326   0.02737   0.70363   0.00000  Uiso   1.00
C264   C     0.25777   0.97328   0.79772   0.00000  Uiso   1.00
C265   C     0.70257   0.02725   0.24792   0.00000  Uiso   1.00
C266   C     0.74067   0.97350   0.70375   0.00000  Uiso   1.00
C267   C     0.24995   0.74976   0.60997   0.00000  Uiso   1.00
C268   C     0.25745   0.02648   0.29673   0.00000  Uiso   1.00
C269   C     0.75831   0.02712   0.79682   0.00000  Uiso   1.00
C270   C     0.24187   0.97301   0.20290   0.00000  Uiso   1.00
C271   C     0.23524   0.02636   0.70559   0.00000  Uiso   1.00
C272   C     0.79692   0.97255   0.25214   0.00000  Uiso   1.00
C273   C     0.24203   0.02704   0.20317   0.00000  Uiso   1.00
C274   C     0.76094   0.97321   0.79619   0.00000  Uiso   1.00
C275   C     0.79718   0.02649   0.25319   0.00000  Uiso   1.00
C276   C     0.23878   0.97278   0.70477   0.00000  Uiso   1.00
C277   C     0.97315   0.75060   0.29781   0.00000  Uiso   1.00
C278   C     0.39012   0.74933   0.75062   0.00000  Uiso   1.00
C279   C     0.02738   0.20267   0.74167   0.00000  Uiso   1.00
C280   C     0.97234   0.70408   0.74356   0.00000  Uiso   1.00
C281   C     0.02724   0.29635   0.25402   0.00000  Uiso   1.00
C282   C     0.97340   0.20273   0.74047   0.00000  Uiso   1.00
C283   C     0.02716   0.74971   0.29768   0.00000  Uiso   1.00
C284   C     0.97346   0.29614   0.25807   0.00000  Uiso   1.00
C285   C     0.02629   0.70317   0.74700   0.00000  Uiso   1.00
C286   C     0.02731   0.20296   0.24225   0.00000  Uiso   1.00
C287   C     0.97287   0.79768   0.75552   0.00000  Uiso   1.00
C288   C     0.02651   0.29347   0.76783   0.00000  Uiso   1.00
H1     H     0.12434   0.46107   0.26497   0.00000  Uiso   1.00
H2     H     0.14974   0.42788   0.83365   0.00000  Uiso   1.00
H3     H     0.59864   0.95668   0.18830   0.00000  Uiso   1.00
H4     H     0.28879   0.04017   0.87055   0.00000  Uiso   1.00
H5     H     0.22232   0.09381   0.90373   0.00000  Uiso   1.00
H6     H     0.19320   0.03457   0.88169   0.00000  Uiso   1.00
H7     H     0.18979   0.09213   0.84231   0.00000  Uiso   1.00
H8     H     0.26616   0.96113   0.37517   0.00000  Uiso   1.00
H9     H     0.33760   0.90459   0.37499   0.00000  Uiso   1.00
H10    H     0.35526   0.96261   0.34116   0.00000  Uiso   1.00
H11    H     0.33853   0.90479   0.30563   0.00000  Uiso   1.00
H12    H     0.70291   0.04492   0.63684   0.00000  Uiso   1.00
H13    H     0.08835   0.44065   0.80245   0.00000  Uiso   1.00
H14    H     0.77280   0.08429   0.59140   0.00000  Uiso   1.00
H15    H     0.78992   0.01902   0.60829   0.00000  Uiso   1.00
H16    H     0.81436   0.07259   0.64590   0.00000  Uiso   1.00
H17    H     0.23874   0.91641   0.85195   0.00000  Uiso   1.00
H18    H     0.31720   0.95249   0.90571   0.00000  Uiso   1.00
H19    H     0.34378   0.96244   0.84219   0.00000  Uiso   1.00
H20    H     0.32632   0.89851   0.86294   0.00000  Uiso   1.00
H21    H     0.65286   0.08467   0.27612   0.00000  Uiso   1.00
H22    H     0.58795   0.04938   0.20497   0.00000  Uiso   1.00
H23    H     0.64747   0.04303   0.16919   0.00000  Uiso   1.00
H24    H     0.12953   0.49291   0.81938   0.00000  Uiso   1.00
H25    H     0.62711   0.10506   0.19329   0.00000  Uiso   1.00
H26    H     0.74786   0.91640   0.64731   0.00000  Uiso   1.00
H27    H     0.66115   0.92711   0.61374   0.00000  Uiso   1.00
H28    H     0.64853   0.97362   0.66347   0.00000  Uiso   1.00
H29    H     0.65996   0.90704   0.68074   0.00000  Uiso   1.00
H30    H     0.28393   0.08702   0.34304   0.00000  Uiso   1.00
H31    H     0.22976   0.06152   0.41750   0.00000  Uiso   1.00
H32    H     0.19608   0.01866   0.37481   0.00000  Uiso   1.00
H33    H     0.19287   0.08723   0.36419   0.00000  Uiso   1.00
H34    H     0.79628   0.04419   0.86489   0.00000  Uiso   1.00
H35    H     0.63166   0.54232   0.20772   0.00000  Uiso   1.00
H36    H     0.72439   0.07779   0.91127   0.00000  Uiso   1.00
H37    H     0.70801   0.01471   0.88783   0.00000  Uiso   1.00
H38    H     0.68485   0.07144   0.85440   0.00000  Uiso   1.00
H39    H     0.19908   0.96071   0.13578   0.00000  Uiso   1.00
H40    H     0.26805   0.88844   0.11446   0.00000  Uiso   1.00
H41    H     0.31009   0.93427   0.14548   0.00000  Uiso   1.00
H42    H     0.27367   0.95245   0.08889   0.00000  Uiso   1.00
H43    H     0.23889   0.03946   0.62671   0.00000  Uiso   1.00
H44    H     0.15982   0.10432   0.64605   0.00000  Uiso   1.00
H45    H     0.14398   0.05240   0.68885   0.00000  Uiso   1.00
H46    H     0.71843   0.58019   0.14278   0.00000  Uiso   1.00
H47    H     0.15063   0.04076   0.62037   0.00000  Uiso   1.00
H48    H     0.87302   0.95932   0.27490   0.00000  Uiso   1.00
H49    H     0.89930   0.90876   0.20431   0.00000  Uiso   1.00
H50    H     0.87001   0.96600   0.17778   0.00000  Uiso   1.00
H51    H     0.83407   0.90620   0.18070   0.00000  Uiso   1.00
H52    H     0.20706   0.08580   0.16015   0.00000  Uiso   1.00
H53    H     0.26192   0.05005   0.08206   0.00000  Uiso   1.00
H54    H     0.30809   0.03820   0.13290   0.00000  Uiso   1.00
H55    H     0.28512   0.10272   0.12092   0.00000  Uiso   1.00
H56    H     0.75078   0.91725   0.85231   0.00000  Uiso   1.00
H57    H     0.65072   0.58620   0.12910   0.00000  Uiso   1.00
H58    H     0.83720   0.91763   0.88481   0.00000  Uiso   1.00
H59    H     0.85335   0.96789   0.84000   0.00000  Uiso   1.00
H60    H     0.83883   0.90368   0.81650   0.00000  Uiso   1.00
H61    H     0.84812   0.08432   0.22952   0.00000  Uiso   1.00
H62    H     0.91211   0.05060   0.29898   0.00000  Uiso   1.00
H63    H     0.85415   0.03200   0.33242   0.00000  Uiso   1.00
H64    H     0.86551   0.09877   0.31750   0.00000  Uiso   1.00
H65    H     0.26177   0.91780   0.64974   0.00000  Uiso   1.00
H66    H     0.17978   0.95253   0.59759   0.00000  Uiso   1.00
H67    H     0.15329   0.95307   0.66224   0.00000  Uiso   1.00
H68    H     0.68071   0.52350   0.12776   0.00000  Uiso   1.00
H69    H     0.17701   0.89406   0.63434   0.00000  Uiso   1.00
H70    H     0.95991   0.72022   0.37105   0.00000  Uiso   1.00
H71    H     0.89074   0.79447   0.38135   0.00000  Uiso   1.00
H72    H     0.93741   0.82886   0.34327   0.00000  Uiso   1.00
H73    H     0.95540   0.80194   0.40503   0.00000  Uiso   1.00
H74    H     0.04028   0.13112   0.70681   0.00000  Uiso   1.00
H75    H     0.09463   0.09596   0.77169   0.00000  Uiso   1.00
H76    H     0.03528   0.11650   0.80208   0.00000  Uiso   1.00
H77    H     0.09273   0.15593   0.80659   0.00000  Uiso   1.00
H78    H     0.95989   0.62466   0.74587   0.00000  Uiso   1.00
H79    H     0.85374   0.42010   0.77091   0.00000  Uiso   1.00
H80    H     0.90595   0.61839   0.67250   0.00000  Uiso   1.00
H81    H     0.96508   0.64957   0.65352   0.00000  Uiso   1.00
H82    H     0.90712   0.68714   0.66503   0.00000  Uiso   1.00
H83    H     0.04509   0.36745   0.28584   0.00000  Uiso   1.00
H84    H     0.08035   0.40449   0.20871   0.00000  Uiso   1.00
H85    H     0.01474   0.38465   0.19741   0.00000  Uiso   1.00
H86    H     0.06805   0.34531   0.17485   0.00000  Uiso   1.00
H87    H     0.91675   0.14750   0.75723   0.00000  Uiso   1.00
H88    H     0.95312   0.09782   0.67595   0.00000  Uiso   1.00
H89    H     0.96240   0.16239   0.65232   0.00000  Uiso   1.00
H90    H     0.90078   0.42188   0.68999   0.00000  Uiso   1.00
H91    H     0.89863   0.14029   0.66906   0.00000  Uiso   1.00
H92    H     0.08512   0.72034   0.34597   0.00000  Uiso   1.00
H93    H     0.04954   0.78752   0.41448   0.00000  Uiso   1.00
H94    H     0.04098   0.82571   0.35689   0.00000  Uiso   1.00
H95    H     0.10414   0.80243   0.37460   0.00000  Uiso   1.00
H96    H     0.91468   0.35145   0.25399   0.00000  Uiso   1.00
H97    H     0.93227   0.38825   0.33820   0.00000  Uiso   1.00
H98    H     0.98103   0.34031   0.34822   0.00000  Uiso   1.00
H99    H     0.91415   0.32107   0.34382   0.00000  Uiso   1.00
H100   H     0.08681   0.65434   0.72528   0.00000  Uiso   1.00
H101   H     0.85387   0.46622   0.66483   0.00000  Uiso   1.00
H102   H     0.05788   0.58531   0.78567   0.00000  Uiso   1.00
H103   H     0.01758   0.63287   0.81595   0.00000  Uiso   1.00
H104   H     0.08670   0.64025   0.81743   0.00000  Uiso   1.00
H105   H     0.04401   0.13583   0.20244   0.00000  Uiso   1.00
H106   H     0.08465   0.09100   0.27240   0.00000  Uiso   1.00
H107   H     0.01952   0.10846   0.28995   0.00000  Uiso   1.00
H108   H     0.07348   0.14586   0.31363   0.00000  Uiso   1.00
H109   H     0.96044   0.86651   0.79536   0.00000  Uiso   1.00
H110   H     0.88855   0.88543   0.72586   0.00000  Uiso   1.00
H111   H     0.93362   0.85168   0.68478   0.00000  Uiso   1.00
H112   H     0.12373   0.40567   0.33668   0.00000  Uiso   1.00
H113   H     0.83555   0.40031   0.67861   0.00000  Uiso   1.00
H114   H     0.95299   0.90955   0.71834   0.00000  Uiso   1.00
H115   H     0.04015   0.37253   0.76926   0.00000  Uiso   1.00
H116   H     0.10473   0.34798   0.84679   0.00000  Uiso   1.00
H117   H     0.05271   0.30451   0.86006   0.00000  Uiso   1.00
H118   H     0.04115   0.37312   0.85793   0.00000  Uiso   1.00
H119   H     0.95946   0.72854   0.12635   0.00000  Uiso   1.00
H120   H     0.91059   0.80035   0.10151   0.00000  Uiso   1.00
H121   H     0.96749   0.82534   0.13272   0.00000  Uiso   1.00
H122   H     0.90685   0.82193   0.16754   0.00000  Uiso   1.00
H123   H     0.08563   0.84233   0.78802   0.00000  Uiso   1.00
H124   H     0.15798   0.58683   0.28700   0.00000  Uiso   1.00
H125   H     0.05005   0.91692   0.72900   0.00000  Uiso   1.00
H126   H     0.03797   0.86379   0.68554   0.00000  Uiso   1.00
H127   H     0.10263   0.87682   0.70764   0.00000  Uiso   1.00
H128   H     0.91830   0.14696   0.25332   0.00000  Uiso   1.00
H129   H     0.91701   0.11259   0.16720   0.00000  Uiso   1.00
H130   H     0.96564   0.15818   0.14868   0.00000  Uiso   1.00
H131   H     0.90121   0.18028   0.16490   0.00000  Uiso   1.00
H132   H     0.08473   0.77325   0.15262   0.00000  Uiso   1.00
H133   H     0.05120   0.70556   0.08655   0.00000  Uiso   1.00
H134   H     0.03277   0.67065   0.14367   0.00000  Uiso   1.00
H135   H     0.08502   0.57540   0.23161   0.00000  Uiso   1.00
H136   H     0.09957   0.68616   0.13255   0.00000  Uiso   1.00
H137   H     0.91810   0.35085   0.74532   0.00000  Uiso   1.00
H138   H     0.95270   0.39716   0.83081   0.00000  Uiso   1.00
H139   H     0.95342   0.33104   0.85273   0.00000  Uiso   1.00
H140   H     0.89425   0.36021   0.83120   0.00000  Uiso   1.00
H141   H     0.71759   0.65506   0.08339   0.00000  Uiso   1.00
H142   H     0.79757   0.62382   0.10547   0.00000  Uiso   1.00
H143   H     0.82462   0.64415   0.04494   0.00000  Uiso   1.00
H144   H     0.78615   0.58635   0.04812   0.00000  Uiso   1.00
H145   H     0.14597   0.27253   0.92083   0.00000  Uiso   1.00
H146   H     0.11626   0.52117   0.20129   0.00000  Uiso   1.00
H147   H     0.16763   0.18102   0.89641   0.00000  Uiso   1.00
H148   H     0.10113   0.19250   0.91314   0.00000  Uiso   1.00
H149   H     0.14396   0.16423   0.96008   0.00000  Uiso   1.00
H150   H     0.82268   0.15051   0.04304   0.00000  Uiso   1.00
H151   H     0.76607   0.09187   0.08553   0.00000  Uiso   1.00
H152   H     0.74247   0.10448   0.02114   0.00000  Uiso   1.00
H153   H     0.71340   0.13625   0.07635   0.00000  Uiso   1.00
H154   H     0.36042   0.69580   0.95593   0.00000  Uiso   1.00
H155   H     0.40913   0.76208   0.91427   0.00000  Uiso   1.00
H156   H     0.39360   0.78141   0.97948   0.00000  Uiso   1.00
H157   H     0.14121   0.58511   0.19200   0.00000  Uiso   1.00
H158   H     0.35704   0.80672   0.92557   0.00000  Uiso   1.00
H159   H     0.15466   0.22410   0.08751   0.00000  Uiso   1.00
H160   H     0.08740   0.28478   0.07625   0.00000  Uiso   1.00
H161   H     0.11669   0.30762   0.01776   0.00000  Uiso   1.00
H162   H     0.14634   0.32137   0.07952   0.00000  Uiso   1.00
H163   H     0.71550   0.65597   0.91605   0.00000  Uiso   1.00
H164   H     0.78415   0.58648   0.95038   0.00000  Uiso   1.00
H165   H     0.82326   0.64399   0.95141   0.00000  Uiso   1.00
H166   H     0.79364   0.62278   0.89221   0.00000  Uiso   1.00
H167   H     0.35275   0.74695   0.08272   0.00000  Uiso   1.00
H168   H     0.67102   0.41367   0.19046   0.00000  Uiso   1.00
H169   H     0.38461   0.65914   0.07643   0.00000  Uiso   1.00
H170   H     0.33330   0.64480   0.03215   0.00000  Uiso   1.00
H171   H     0.31860   0.66051   0.09886   0.00000  Uiso   1.00
H172   H     0.77324   0.15325   0.91437   0.00000  Uiso   1.00
H173   H     0.86366   0.13680   0.91741   0.00000  Uiso   1.00
H174   H     0.86987   0.18188   0.97004   0.00000  Uiso   1.00
H175   H     0.85275   0.20449   0.90615   0.00000  Uiso   1.00
H176   H     0.14028   0.80683   0.95661   0.00000  Uiso   1.00
H177   H     0.09021   0.74162   0.91433   0.00000  Uiso   1.00
H178   H     0.10568   0.72174   0.97928   0.00000  Uiso   1.00
H179   H     0.63199   0.41288   0.27808   0.00000  Uiso   1.00
H180   H     0.14155   0.69603   0.92499   0.00000  Uiso   1.00
H181   H     0.71658   0.37177   0.03690   0.00000  Uiso   1.00
H182   H     0.65190   0.36756   0.10110   0.00000  Uiso   1.00
H183   H     0.65868   0.29889   0.10435   0.00000  Uiso   1.00
H184   H     0.63103   0.32834   0.04756   0.00000  Uiso   1.00
H185   H     0.37018   0.27720   0.95981   0.00000  Uiso   1.00
H186   H     0.37925   0.20250   0.89026   0.00000  Uiso   1.00
H187   H     0.34172   0.16879   0.93772   0.00000  Uiso   1.00
H188   H     0.40383   0.19558   0.95468   0.00000  Uiso   1.00
H189   H     0.73204   0.87432   0.04072   0.00000  Uiso   1.00
H190   H     0.58666   0.42308   0.22625   0.00000  Uiso   1.00
H191   H     0.80324   0.89614   0.09196   0.00000  Uiso   1.00
H192   H     0.82888   0.86454   0.03533   0.00000  Uiso   1.00
H193   H     0.82237   0.82962   0.09561   0.00000  Uiso   1.00
H194   H     0.73404   0.35122   0.91870   0.00000  Uiso   1.00
H195   H     0.64310   0.36805   0.91215   0.00000  Uiso   1.00
H196   H     0.63118   0.31789   0.95839   0.00000  Uiso   1.00
H197   H     0.65616   0.30198   0.89516   0.00000  Uiso   1.00
H198   H     0.14744   0.75290   0.08205   0.00000  Uiso   1.00
H199   H     0.11761   0.84048   0.08419   0.00000  Uiso   1.00
H200   H     0.16482   0.85690   0.03608   0.00000  Uiso   1.00
H201   H     0.60846   0.47693   0.26432   0.00000  Uiso   1.00
H202   H     0.18521   0.83849   0.10046   0.00000  Uiso   1.00
H203   H     0.77462   0.84676   0.91504   0.00000  Uiso   1.00
H204   H     0.70879   0.91422   0.94781   0.00000  Uiso   1.00
H205   H     0.67324   0.85890   0.96967   0.00000  Uiso   1.00
H206   H     0.68686   0.86683   0.90191   0.00000  Uiso   1.00
H207   H     0.34737   0.27207   0.08505   0.00000  Uiso   1.00
H208   H     0.41141   0.20172   0.05079   0.00000  Uiso   1.00
H209   H     0.35248   0.16802   0.03541   0.00000  Uiso   1.00
H210   H     0.36655   0.18551   0.10107   0.00000  Uiso   1.00
H211   H     0.62605   0.46042   0.75770   0.00000  Uiso   1.00
H212   H     0.14733   0.58463   0.76169   0.00000  Uiso   1.00
H213   H     0.63381   0.39485   0.67722   0.00000  Uiso   1.00
H214   H     0.67280   0.44737   0.65487   0.00000  Uiso   1.00
H215   H     0.60615   0.45806   0.67223   0.00000  Uiso   1.00
H216   H     0.36544   0.54465   0.20931   0.00000  Uiso   1.00
H217   H     0.40736   0.58065   0.28346   0.00000  Uiso   1.00
H218   H     0.38701   0.51599   0.29773   0.00000  Uiso   1.00
H219   H     0.34975   0.57054   0.32073   0.00000  Uiso   1.00
H220   H     0.87163   0.46118   0.28399   0.00000  Uiso   1.00
H221   H     0.83453   0.37686   0.33144   0.00000  Uiso   1.00
H222   H     0.78800   0.42447   0.35162   0.00000  Uiso   1.00
H223   H     0.15859   0.46314   0.35453   0.00000  Uiso   1.00
H224   H     0.09968   0.57242   0.68283   0.00000  Uiso   1.00
H225   H     0.85511   0.43387   0.36610   0.00000  Uiso   1.00
H226   H     0.37407   0.54070   0.74577   0.00000  Uiso   1.00
H227   H     0.35169   0.59897   0.66045   0.00000  Uiso   1.00
H228   H     0.31699   0.54071   0.64789   0.00000  Uiso   1.00
H229   H     0.38556   0.53839   0.65858   0.00000  Uiso   1.00
H230   H     0.35286   0.41649   0.25031   0.00000  Uiso   1.00
H231   H     0.38943   0.42691   0.16493   0.00000  Uiso   1.00
H232   H     0.34013   0.47335   0.15051   0.00000  Uiso   1.00
H233   H     0.32290   0.40651   0.16058   0.00000  Uiso   1.00
H234   H     0.65257   0.58364   0.77452   0.00000  Uiso   1.00
H235   H     0.14321   0.52154   0.66488   0.00000  Uiso   1.00
H236   H     0.62593   0.60642   0.69320   0.00000  Uiso   1.00
H237   H     0.58974   0.54803   0.70043   0.00000  Uiso   1.00
H238   H     0.65053   0.54725   0.66616   0.00000  Uiso   1.00
H239   H     0.34728   0.41789   0.77452   0.00000  Uiso   1.00
H240   H     0.40772   0.45269   0.69698   0.00000  Uiso   1.00
H241   H     0.34611   0.44653   0.66461   0.00000  Uiso   1.00
H242   H     0.37551   0.39157   0.69510   0.00000  Uiso   1.00
H243   H     0.84996   0.58329   0.26365   0.00000  Uiso   1.00
H244   H     0.87550   0.58049   0.35199   0.00000  Uiso   1.00
H245   H     0.83025   0.52944   0.36348   0.00000  Uiso   1.00
H246   H     0.16594   0.58753   0.66748   0.00000  Uiso   1.00
H247   H     0.80706   0.59360   0.34870   0.00000  Uiso   1.00
H248   H     0.46022   0.20170   0.36455   0.00000  Uiso   1.00
H249   H     0.38812   0.27124   0.38452   0.00000  Uiso   1.00
H250   H     0.43431   0.31248   0.35329   0.00000  Uiso   1.00
H251   H     0.45216   0.27697   0.41047   0.00000  Uiso   1.00
H252   H     0.54317   0.62556   0.76295   0.00000  Uiso   1.00
H253   H     0.59301   0.69452   0.84023   0.00000  Uiso   1.00
H254   H     0.59463   0.62534   0.83795   0.00000  Uiso   1.00
H255   H     0.53500   0.65798   0.85322   0.00000  Uiso   1.00
H256   H     0.41734   0.71517   0.15524   0.00000  Uiso   1.00
H257   H     0.45205   0.86546   0.71045   0.00000  Uiso   1.00
H258   H     0.39860   0.64542   0.21492   0.00000  Uiso   1.00
H259   H     0.46370   0.62192   0.20482   0.00000  Uiso   1.00
H260   H     0.41824   0.62183   0.15253   0.00000  Uiso   1.00
H261   H     0.58036   0.14990   0.73087   0.00000  Uiso   1.00
H262   H     0.60470   0.20219   0.65486   0.00000  Uiso   1.00
H263   H     0.54347   0.18362   0.62711   0.00000  Uiso   1.00
H264   H     0.59157   0.13551   0.64082   0.00000  Uiso   1.00
H265   H     0.41402   0.65296   0.77300   0.00000  Uiso   1.00
H266   H     0.44508   0.58561   0.71389   0.00000  Uiso   1.00
H267   H     0.49253   0.62933   0.69058   0.00000  Uiso   1.00
H268   H     0.41487   0.90637   0.78449   0.00000  Uiso   1.00
H269   H     0.42565   0.64363   0.67960   0.00000  Uiso   1.00
H270   H     0.58614   0.21086   0.34185   0.00000  Uiso   1.00
H271   H     0.60165   0.29035   0.37843   0.00000  Uiso   1.00
H272   H     0.54851   0.26863   0.41737   0.00000  Uiso   1.00
H273   H     0.53710   0.31213   0.36439   0.00000  Uiso   1.00
H274   H     0.41978   0.15033   0.72547   0.00000  Uiso   1.00
H275   H     0.41386   0.14105   0.63248   0.00000  Uiso   1.00
H276   H     0.45551   0.19599   0.62575   0.00000  Uiso   1.00
H277   H     0.39182   0.20366   0.65310   0.00000  Uiso   1.00
H278   H     0.58030   0.71669   0.15272   0.00000  Uiso   1.00
H279   H     0.48088   0.88880   0.79835   0.00000  Uiso   1.00
H280   H     0.56679   0.61724   0.15672   0.00000  Uiso   1.00
H281   H     0.55436   0.63065   0.22379   0.00000  Uiso   1.00
H282   H     0.61569   0.64780   0.19614   0.00000  Uiso   1.00
H283   H     0.19462   0.63836   0.53781   0.00000  Uiso   1.00
H284   H     0.25678   0.61893   0.61733   0.00000  Uiso   1.00
H285   H     0.30365   0.64189   0.57128   0.00000  Uiso   1.00
H286   H     0.26381   0.58691   0.55623   0.00000  Uiso   1.00
H287   H     0.62633   0.22833   0.45864   0.00000  Uiso   1.00
H288   H     0.63048   0.15397   0.40618   0.00000  Uiso   1.00
H289   H     0.66451   0.14067   0.46551   0.00000  Uiso   1.00
H290   H     0.42830   0.84972   0.82215   0.00000  Uiso   1.00
H291   H     0.69978   0.15621   0.40721   0.00000  Uiso   1.00
H292   H     0.70847   0.86922   0.53793   0.00000  Uiso   1.00
H293   H     0.66574   0.82838   0.62425   0.00000  Uiso   1.00
H294   H     0.64591   0.78295   0.57542   0.00000  Uiso   1.00
H295   H     0.62876   0.84976   0.56898   0.00000  Uiso   1.00
H296   H     0.20257   0.36579   0.46031   0.00000  Uiso   1.00
H297   H     0.27288   0.38495   0.38908   0.00000  Uiso   1.00
H298   H     0.31355   0.35267   0.43535   0.00000  Uiso   1.00
H299   H     0.27858   0.41020   0.45355   0.00000  Uiso   1.00
H300   H     0.66146   0.20591   0.58548   0.00000  Uiso   1.00
H301   H     0.54420   0.29830   0.13743   0.00000  Uiso   1.00
H302   H     0.58355   0.25571   0.57179   0.00000  Uiso   1.00
H303   H     0.61549   0.29049   0.52124   0.00000  Uiso   1.00
H304   H     0.63635   0.29793   0.58728   0.00000  Uiso   1.00
H305   H     0.20979   0.65946   0.41300   0.00000  Uiso   1.00
H306   H     0.30324   0.63830   0.41043   0.00000  Uiso   1.00
H307   H     0.26244   0.58396   0.42365   0.00000  Uiso   1.00
H308   H     0.29654   0.61527   0.47544   0.00000  Uiso   1.00
H309   H     0.20876   0.34130   0.58609   0.00000  Uiso   1.00
H310   H     0.26544   0.41780   0.55091   0.00000  Uiso   1.00
H311   H     0.31057   0.36590   0.53954   0.00000  Uiso   1.00
H312   H     0.58493   0.22929   0.09100   0.00000  Uiso   1.00
H313   H     0.28736   0.37879   0.60395   0.00000  Uiso   1.00
H314   H     0.72706   0.84679   0.41485   0.00000  Uiso   1.00
H315   H     0.63731   0.86428   0.41804   0.00000  Uiso   1.00
H316   H     0.63081   0.82247   0.47288   0.00000  Uiso   1.00
H317   H     0.64572   0.79559   0.41006   0.00000  Uiso   1.00
H318   H     0.51988   0.21145   0.10775   0.00000  Uiso   1.00
H319   H     0.19295   0.40457   0.33769   0.00000  Uiso   1.00
H320   H     0.57387   0.18725   0.14499   0.00000  Uiso   1.00
H321   H     0.41243   0.34236   0.78423   0.00000  Uiso   1.00
H322   H     0.41098   0.28568   0.86154   0.00000  Uiso   1.00
H323   H     0.41889   0.35332   0.87522   0.00000  Uiso   1.00
H324   H     0.47425   0.31128   0.87652   0.00000  Uiso   1.00
H325   H     0.58750   0.79219   0.33908   0.00000  Uiso   1.00
H326   H     0.58274   0.86641   0.27883   0.00000  Uiso   1.00
H327   H     0.57666   0.88291   0.34627   0.00000  Uiso   1.00
H328   H     0.51986   0.87956   0.30650   0.00000  Uiso   1.00
H329   H     0.41885   0.24597   0.14683   0.00000  Uiso   1.00
H330   H     0.87046   0.54481   0.72562   0.00000  Uiso   1.00
H331   H     0.41698   0.33188   0.11273   0.00000  Uiso   1.00
H332   H     0.46474   0.35071   0.15952   0.00000  Uiso   1.00
H333   H     0.40034   0.33340   0.18039   0.00000  Uiso   1.00
H334   H     0.58421   0.85238   0.74643   0.00000  Uiso   1.00
H335   H     0.57140   0.88754   0.66231   0.00000  Uiso   1.00
H336   H     0.51746   0.84556   0.65240   0.00000  Uiso   1.00
H337   H     0.58147   0.81867   0.65625   0.00000  Uiso   1.00
H338   H     0.41115   0.82282   0.31523   0.00000  Uiso   1.00
H339   H     0.41686   0.74501   0.37187   0.00000  Uiso   1.00
H340   H     0.42125   0.80630   0.40463   0.00000  Uiso   1.00
H341   H     0.90122   0.58226   0.80532   0.00000  Uiso   1.00
H342   H     0.47907   0.76988   0.39184   0.00000  Uiso   1.00
H343   H     0.58831   0.31669   0.82033   0.00000  Uiso   1.00
H344   H     0.57435   0.40533   0.80832   0.00000  Uiso   1.00
H345   H     0.51498   0.39304   0.77484   0.00000  Uiso   1.00
H346   H     0.57544   0.37594   0.74476   0.00000  Uiso   1.00
H347   H     0.86070   0.30219   0.54688   0.00000  Uiso   1.00
H348   H     0.90869   0.23358   0.58569   0.00000  Uiso   1.00
H349   H     0.89285   0.21681   0.51982   0.00000  Uiso   1.00
H350   H     0.85610   0.19029   0.57286   0.00000  Uiso   1.00
H351   H     0.28859   0.86611   0.45604   0.00000  Uiso   1.00
H352   H     0.88311   0.51598   0.81472   0.00000  Uiso   1.00
H353   H     0.21231   0.90480   0.41926   0.00000  Uiso   1.00
H354   H     0.20048   0.88579   0.48500   0.00000  Uiso   1.00
H355   H     0.17753   0.84655   0.43186   0.00000  Uiso   1.00
H356   H     0.28923   0.13429   0.54466   0.00000  Uiso   1.00
H357   H     0.21383   0.08839   0.56079   0.00000  Uiso   1.00
H358   H     0.20096   0.12256   0.50286   0.00000  Uiso   1.00
H359   H     0.17689   0.14750   0.56354   0.00000  Uiso   1.00
H360   H     0.77993   0.65551   0.41235   0.00000  Uiso   1.00
H361   H     0.86048   0.70628   0.41363   0.00000  Uiso   1.00
H362   H     0.87015   0.63829   0.42436   0.00000  Uiso   1.00
H363   H     0.84030   0.56745   0.83470   0.00000  Uiso   1.00
H364   H     0.87096   0.68181   0.47835   0.00000  Uiso   1.00
H365   H     0.24549   0.85257   0.58189   0.00000  Uiso   1.00
H366   H     0.33069   0.88745   0.58300   0.00000  Uiso   1.00
H367   H     0.34948   0.84292   0.53295   0.00000  Uiso   1.00
H368   H     0.33502   0.81960   0.59729   0.00000  Uiso   1.00
H369   H     0.85064   0.26213   0.41520   0.00000  Uiso   1.00
H370   H     0.87785   0.34917   0.42494   0.00000  Uiso   1.00
H371   H     0.83605   0.35673   0.47969   0.00000  Uiso   1.00
H372   H     0.80849   0.34857   0.41624   0.00000  Uiso   1.00
H373   H     0.81150   0.67371   0.58843   0.00000  Uiso   1.00
H374   H     0.15027   0.41224   0.73816   0.00000  Uiso   1.00
H375   H     0.72641   0.62862   0.58032   0.00000  Uiso   1.00
H376   H     0.78288   0.58800   0.57614   0.00000  Uiso   1.00
H377   H     0.74966   0.60660   0.51802   0.00000  Uiso   1.00
H378   H     0.25563   0.15018   0.41432   0.00000  Uiso   1.00
H379   H     0.34130   0.11712   0.42104   0.00000  Uiso   1.00
H380   H     0.35361   0.16039   0.47408   0.00000  Uiso   1.00
H381   H     0.34437   0.18554   0.40941   0.00000  Uiso   1.00
H382   H     0.62747   0.96007   0.27207   0.00000  Uiso   1.00
H383   H     0.62264   0.89219   0.19551   0.00000  Uiso   1.00
H384   H     0.66215   0.94000   0.16469   0.00000  Uiso   1.00
N1     N     0.15893   0.44453   0.27527   0.00000  Uiso   1.00
N2     N     0.55532   0.26564   0.15709   0.00000  Uiso   1.00
N3     N     0.44517   0.32916   0.80254   0.00000  Uiso   1.00
N4     N     0.55333   0.80814   0.32653   0.00000  Uiso   1.00
N5     N     0.44738   0.27146   0.15687   0.00000  Uiso   1.00
N6     N     0.55069   0.84376   0.72696   0.00000  Uiso   1.00
N7     N     0.44532   0.80643   0.32737   0.00000  Uiso   1.00
N8     N     0.55313   0.32779   0.80543   0.00000  Uiso   1.00
N9     N     0.84188   0.26871   0.55648   0.00000  Uiso   1.00
N10    N     0.25784   0.84324   0.44563   0.00000  Uiso   1.00
N11    N     0.25685   0.15613   0.55242   0.00000  Uiso   1.00
N12    N     0.84470   0.55478   0.75429   0.00000  Uiso   1.00
N13    N     0.79764   0.66688   0.44610   0.00000  Uiso   1.00
N14    N     0.27071   0.84248   0.55295   0.00000  Uiso   1.00
N15    N     0.84064   0.28159   0.44843   0.00000  Uiso   1.00
N16    N     0.79403   0.66468   0.55380   0.00000  Uiso   1.00
N17    N     0.27709   0.15939   0.44638   0.00000  Uiso   1.00
N18    N     0.65470   0.94624   0.24650   0.00000  Uiso   1.00
N19    N     0.26246   0.05524   0.84487   0.00000  Uiso   1.00
N20    N     0.27615   0.94448   0.34048   0.00000  Uiso   1.00
N21    N     0.73559   0.05533   0.65694   0.00000  Uiso   1.00
N22    N     0.26318   0.94700   0.84576   0.00000  Uiso   1.00
N23    N     0.15334   0.44805   0.75507   0.00000  Uiso   1.00
N24    N     0.65457   0.05425   0.25047   0.00000  Uiso   1.00
N25    N     0.72572   0.94780   0.65750   0.00000  Uiso   1.00
N26    N     0.26407   0.05276   0.34470   0.00000  Uiso   1.00
N27    N     0.76387   0.05456   0.84424   0.00000  Uiso   1.00
N28    N     0.22939   0.94561   0.15672   0.00000  Uiso   1.00
N29    N     0.22109   0.05290   0.65967   0.00000  Uiso   1.00
N30    N     0.84435   0.94447   0.25178   0.00000  Uiso   1.00
N31    N     0.23095   0.05415   0.15660   0.00000  Uiso   1.00
N32    N     0.77487   0.94693   0.84236   0.00000  Uiso   1.00
N33    N     0.84542   0.05273   0.25332   0.00000  Uiso   1.00
N34    N     0.66870   0.55520   0.20187   0.00000  Uiso   1.00
N35    N     0.23503   0.94651   0.65636   0.00000  Uiso   1.00
N36    N     0.94580   0.74719   0.34548   0.00000  Uiso   1.00
N37    N     0.05537   0.15581   0.73405   0.00000  Uiso   1.00
N38    N     0.94431   0.65826   0.73168   0.00000  Uiso   1.00
N39    N     0.05473   0.34376   0.25532   0.00000  Uiso   1.00
N40    N     0.94716   0.15508   0.73282   0.00000  Uiso   1.00
N41    N     0.05418   0.74541   0.34554   0.00000  Uiso   1.00
N42    N     0.94808   0.34240   0.27347   0.00000  Uiso   1.00
N43    N     0.05233   0.65482   0.74500   0.00000  Uiso   1.00
N44    N     0.05520   0.15615   0.23482   0.00000  Uiso   1.00
N45    N     0.84619   0.44794   0.74381   0.00000  Uiso   1.00
N46    N     0.94545   0.84431   0.76590   0.00000  Uiso   1.00
N47    N     0.05305   0.33840   0.78494   0.00000  Uiso   1.00
N48    N     0.94467   0.75104   0.15564   0.00000  Uiso   1.00
N49    N     0.05405   0.84438   0.76385   0.00000  Uiso   1.00
N50    N     0.94706   0.15683   0.22796   0.00000  Uiso   1.00
N51    N     0.05312   0.74939   0.15456   0.00000  Uiso   1.00
N52    N     0.94679   0.34241   0.77151   0.00000  Uiso   1.00
N53    N     0.74344   0.65479   0.05317   0.00000  Uiso   1.00
N54    N     0.15388   0.24358   0.94675   0.00000  Uiso   1.00
N55    N     0.78700   0.16344   0.05495   0.00000  Uiso   1.00
N56    N     0.15505   0.55330   0.26578   0.00000  Uiso   1.00
N57    N     0.34201   0.72915   0.94461   0.00000  Uiso   1.00
N58    N     0.15398   0.24461   0.05350   0.00000  Uiso   1.00
N59    N     0.74194   0.65525   0.94583   0.00000  Uiso   1.00
N60    N     0.34164   0.72311   0.05290   0.00000  Uiso   1.00
N61    N     0.79373   0.16570   0.94607   0.00000  Uiso   1.00
N62    N     0.15806   0.77322   0.94484   0.00000  Uiso   1.00
N63    N     0.71154   0.33711   0.05550   0.00000  Uiso   1.00
N64    N     0.34442   0.25053   0.94551   0.00000  Uiso   1.00
N65    N     0.75303   0.84421   0.05585   0.00000  Uiso   1.00
N66    N     0.70943   0.33657   0.94617   0.00000  Uiso   1.00
N67    N     0.66227   0.44680   0.21072   0.00000  Uiso   1.00
N68    N     0.15848   0.77781   0.05337   0.00000  Uiso   1.00
N69    N     0.75117   0.84541   0.94711   0.00000  Uiso   1.00
N70    N     0.34502   0.24787   0.05352   0.00000  Uiso   1.00
N71    N     0.65617   0.44658   0.73568   0.00000  Uiso   1.00
N72    N     0.34344   0.55478   0.24090   0.00000  Uiso   1.00
N73    N     0.83591   0.44427   0.28775   0.00000  Uiso   1.00
N74    N     0.34160   0.55249   0.72601   0.00000  Uiso   1.00
N75    N     0.34307   0.44764   0.22782   0.00000  Uiso   1.00
N76    N     0.65475   0.55391   0.74813   0.00000  Uiso   1.00
N77    N     0.34456   0.44630   0.74691   0.00000  Uiso   1.00
N78    N     0.15380   0.55239   0.73963   0.00000  Uiso   1.00
N79    N     0.83837   0.55266   0.28593   0.00000  Uiso   1.00
N80    N     0.44531   0.23167   0.34311   0.00000  Uiso   1.00
N81    N     0.55748   0.66046   0.77513   0.00000  Uiso   1.00
N82    N     0.44674   0.69472   0.17257   0.00000  Uiso   1.00
N83    N     0.55369   0.16549   0.70579   0.00000  Uiso   1.00
N84    N     0.45009   0.65411   0.75638   0.00000  Uiso   1.00
N85    N     0.55395   0.23415   0.34435   0.00000  Uiso   1.00
N86    N     0.44643   0.16758   0.70167   0.00000  Uiso   1.00
N87    N     0.55401   0.69510   0.17312   0.00000  Uiso   1.00
N88    N     0.22476   0.65819   0.55454   0.00000  Uiso   1.00
N89    N     0.44327   0.84342   0.74222   0.00000  Uiso   1.00
N90    N     0.66170   0.21863   0.44344   0.00000  Uiso   1.00
N91    N     0.70733   0.83367   0.55551   0.00000  Uiso   1.00
N92    N     0.23243   0.34396   0.44551   0.00000  Uiso   1.00
N93    N     0.65679   0.22716   0.55230   0.00000  Uiso   1.00
N94    N     0.23183   0.65549   0.44592   0.00000  Uiso   1.00
N95    N     0.23279   0.34427   0.55453   0.00000  Uiso   1.00
N96    N     0.70680   0.83442   0.44665   0.00000  Uiso   1.00
O1     O     0.25000   0.25000   0.25000   0.00000  Uiso   1.00
O2     O     0.63420   0.71971   0.71971   0.00000  Uiso   1.00
O3     O     0.21971   0.36580   0.21971   0.00000  Uiso   1.00
O4     O     0.21971   0.63420   0.21971   0.00000  Uiso   1.00
O5     O     0.78029   0.36580   0.78029   0.00000  Uiso   1.00
O6     O     0.21971   0.36580   0.78029   0.00000  Uiso   1.00
O7     O     0.78029   0.63420   0.21971   0.00000  Uiso   1.00
O8     O     0.28029   0.28029   0.63420   0.00000  Uiso   1.00
O9     O     0.71971   0.71971   0.36580   0.00000  Uiso   1.00
O10    O     0.63420   0.28029   0.71971   0.00000  Uiso   1.00
O11    O     0.36580   0.71971   0.28029   0.00000  Uiso   1.00
O12    O     0.71971   0.28029   0.36580   0.00000  Uiso   1.00
O13    O     0.28029   0.71971   0.63420   0.00000  Uiso   1.00
O14    O     0.36580   0.71971   0.71971   0.00000  Uiso   1.00
O15    O     0.63420   0.28029   0.28029   0.00000  Uiso   1.00
O16    O     0.28029   0.71971   0.36580   0.00000  Uiso   1.00
O17    O     0.75000   0.75000   0.75000   0.00000  Uiso   1.00
O18    O     0.71971   0.28029   0.63420   0.00000  Uiso   1.00
O19    O     0.63420   0.71971   0.28029   0.00000  Uiso   1.00
O20    O     0.36580   0.28029   0.71971   0.00000  Uiso   1.00
O21    O     0.71971   0.71971   0.63420   0.00000  Uiso   1.00
O22    O     0.28029   0.28029   0.36580   0.00000  Uiso   1.00
O23    O     0.28029   0.36580   0.71971   0.00000  Uiso   1.00
O24    O     0.71971   0.63420   0.28029   0.00000  Uiso   1.00
O25    O     0.28029   0.63420   0.28029   0.00000  Uiso   1.00
O26    O     0.71971   0.36580   0.71971   0.00000  Uiso   1.00
O27    O     0.71971   0.63420   0.71971   0.00000  Uiso   1.00
O28    O     0.25000   0.25000   0.75000   0.00000  Uiso   1.00
O29    O     0.28029   0.36580   0.28029   0.00000  Uiso   1.00
O30    O     0.71971   0.36580   0.28029   0.00000  Uiso   1.00
O31    O     0.28029   0.63420   0.71971   0.00000  Uiso   1.00
O32    O     0.86580   0.78029   0.28029   0.00000  Uiso   1.00
O33    O     0.13420   0.21971   0.71971   0.00000  Uiso   1.00
O34    O     0.28029   0.78029   0.13420   0.00000  Uiso   1.00
O35    O     0.71971   0.21971   0.86580   0.00000  Uiso   1.00
O36    O     0.13420   0.78029   0.71971   0.00000  Uiso   1.00
O37    O     0.86580   0.21971   0.28029   0.00000  Uiso   1.00
O38    O     0.71971   0.78029   0.86580   0.00000  Uiso   1.00
O39    O     0.75000   0.75000   0.25000   0.00000  Uiso   1.00
O40    O     0.28029   0.21971   0.13420   0.00000  Uiso   1.00
O41    O     0.86580   0.21971   0.71971   0.00000  Uiso   1.00
O42    O     0.13420   0.78029   0.28029   0.00000  Uiso   1.00
O43    O     0.28029   0.21971   0.86580   0.00000  Uiso   1.00
O44    O     0.71971   0.78029   0.13420   0.00000  Uiso   1.00
O45    O     0.13420   0.21971   0.28029   0.00000  Uiso   1.00
O46    O     0.86580   0.78029   0.71971   0.00000  Uiso   1.00
O47    O     0.71971   0.21971   0.13420   0.00000  Uiso   1.00
O48    O     0.28029   0.78029   0.86580   0.00000  Uiso   1.00
O49    O     0.78029   0.71971   0.13420   0.00000  Uiso   1.00
O50    O     0.75000   0.25000   0.75000   0.00000  Uiso   1.00
O51    O     0.21971   0.28029   0.86580   0.00000  Uiso   1.00
O52    O     0.78029   0.86580   0.71971   0.00000  Uiso   1.00
O53    O     0.21971   0.13420   0.28029   0.00000  Uiso   1.00
O54    O     0.78029   0.28029   0.86580   0.00000  Uiso   1.00
O55    O     0.21971   0.71971   0.13420   0.00000  Uiso   1.00
O56    O     0.78029   0.13420   0.28029   0.00000  Uiso   1.00
O57    O     0.21971   0.86580   0.71971   0.00000  Uiso   1.00
O58    O     0.21971   0.28029   0.13420   0.00000  Uiso   1.00
O59    O     0.78029   0.71971   0.86580   0.00000  Uiso   1.00
O60    O     0.21971   0.13420   0.71971   0.00000  Uiso   1.00
O61    O     0.25000   0.75000   0.25000   0.00000  Uiso   1.00
O62    O     0.78029   0.86580   0.28029   0.00000  Uiso   1.00
O63    O     0.21971   0.71971   0.86580   0.00000  Uiso   1.00
O64    O     0.78029   0.28029   0.13420   0.00000  Uiso   1.00
O65    O     0.21971   0.86580   0.28029   0.00000  Uiso   1.00
O66    O     0.78029   0.13420   0.71971   0.00000  Uiso   1.00
O67    O     0.71971   0.86580   0.21971   0.00000  Uiso   1.00
O68    O     0.28029   0.13420   0.78029   0.00000  Uiso   1.00
O69    O     0.86580   0.28029   0.21971   0.00000  Uiso   1.00
O70    O     0.13420   0.71971   0.78029   0.00000  Uiso   1.00
O71    O     0.28029   0.13420   0.21971   0.00000  Uiso   1.00
O72    O     0.75000   0.25000   0.25000   0.00000  Uiso   1.00
O73    O     0.71971   0.86580   0.78029   0.00000  Uiso   1.00
O74    O     0.13420   0.71971   0.21971   0.00000  Uiso   1.00
O75    O     0.86580   0.28029   0.78029   0.00000  Uiso   1.00
O76    O     0.28029   0.86580   0.78029   0.00000  Uiso   1.00
O77    O     0.71971   0.13420   0.21971   0.00000  Uiso   1.00
O78    O     0.13420   0.28029   0.78029   0.00000  Uiso   1.00
O79    O     0.86580   0.71971   0.21971   0.00000  Uiso   1.00
O80    O     0.71971   0.13420   0.78029   0.00000  Uiso   1.00
O81    O     0.28029   0.86580   0.21971   0.00000  Uiso   1.00
O82    O     0.86580   0.71971   0.78029   0.00000  Uiso   1.00
O83    O     0.25000   0.75000   0.75000   0.00000  Uiso   1.00
O84    O     0.13420   0.28029   0.21971   0.00000  Uiso   1.00
O85    O     0.36580   0.78029   0.78029   0.00000  Uiso   1.00
O86    O     0.63420   0.21971   0.21971   0.00000  Uiso   1.00
O87    O     0.78029   0.78029   0.63420   0.00000  Uiso   1.00
O88    O     0.21971   0.21971   0.36580   0.00000  Uiso   1.00
O89    O     0.63420   0.78029   0.21971   0.00000  Uiso   1.00
O90    O     0.36580   0.21971   0.78029   0.00000  Uiso   1.00
O91    O     0.21971   0.78029   0.36580   0.00000  Uiso   1.00
O92    O     0.78029   0.21971   0.63420   0.00000  Uiso   1.00
O93    O     0.36580   0.21971   0.21971   0.00000  Uiso   1.00
O94    O     0.36580   0.28029   0.28029   0.00000  Uiso   1.00
O95    O     0.63420   0.78029   0.78029   0.00000  Uiso   1.00
O96    O     0.78029   0.21971   0.36580   0.00000  Uiso   1.00
O97    O     0.21971   0.78029   0.63420   0.00000  Uiso   1.00
O98    O     0.63420   0.21971   0.78029   0.00000  Uiso   1.00
O99    O     0.36580   0.78029   0.21971   0.00000  Uiso   1.00
O100   O     0.21971   0.21971   0.63420   0.00000  Uiso   1.00
O101   O     0.78029   0.78029   0.36580   0.00000  Uiso   1.00
O102   O     0.78029   0.36580   0.21971   0.00000  Uiso   1.00
O103   O     0.21971   0.63420   0.78029   0.00000  Uiso   1.00
O104   O     0.78029   0.63420   0.78029   0.00000  Uiso   1.00
Zn1    Zn    0.20660   0.29340   0.20660   0.00000  Uiso   1.00
Zn2    Zn    0.70660   0.20660   0.20660   0.00000  Uiso   1.00
Zn3    Zn    0.29340   0.20660   0.79340   0.00000  Uiso   1.00
Zn4    Zn    0.70660   0.79340   0.20660   0.00000  Uiso   1.00
Zn5    Zn    0.29340   0.20660   0.20660   0.00000  Uiso   1.00
Zn6    Zn    0.70660   0.79340   0.79340   0.00000  Uiso   1.00
Zn7    Zn    0.29340   0.79340   0.20660   0.00000  Uiso   1.00
Zn8    Zn    0.70660   0.20660   0.79340   0.00000  Uiso   1.00
Zn9    Zn    0.79340   0.20660   0.70660   0.00000  Uiso   1.00
Zn10   Zn    0.20660   0.79340   0.29340   0.00000  Uiso   1.00
Zn11   Zn    0.20660   0.20660   0.70660   0.00000  Uiso   1.00
Zn12   Zn    0.79340   0.70660   0.79340   0.00000  Uiso   1.00
Zn13   Zn    0.79340   0.79340   0.29340   0.00000  Uiso   1.00
Zn14   Zn    0.20660   0.79340   0.70660   0.00000  Uiso   1.00
Zn15   Zn    0.79340   0.20660   0.29340   0.00000  Uiso   1.00
Zn16   Zn    0.79340   0.79340   0.70660   0.00000  Uiso   1.00
Zn17   Zn    0.20660   0.20660   0.29340   0.00000  Uiso   1.00
Zn18   Zn    0.70660   0.29340   0.70660   0.00000  Uiso   1.00
Zn19   Zn    0.29340   0.70660   0.29340   0.00000  Uiso   1.00
Zn20   Zn    0.70660   0.29340   0.29340   0.00000  Uiso   1.00
Zn21   Zn    0.29340   0.70660   0.70660   0.00000  Uiso   1.00
Zn22   Zn    0.29340   0.29340   0.29340   0.00000  Uiso   1.00
Zn23   Zn    0.20660   0.29340   0.79340   0.00000  Uiso   1.00
Zn24   Zn    0.70660   0.70660   0.70660   0.00000  Uiso   1.00
Zn25   Zn    0.29340   0.29340   0.70660   0.00000  Uiso   1.00
Zn26   Zn    0.70660   0.70660   0.29340   0.00000  Uiso   1.00
Zn27   Zn    0.79340   0.70660   0.20660   0.00000  Uiso   1.00
Zn28   Zn    0.79340   0.29340   0.79340   0.00000  Uiso   1.00
Zn29   Zn    0.20660   0.70660   0.20660   0.00000  Uiso   1.00
Zn30   Zn    0.79340   0.29340   0.20660   0.00000  Uiso   1.00
Zn31   Zn    0.20660   0.70660   0.79340   0.00000  Uiso   1.00
Zn32   Zn    0.29340   0.79340   0.79340   0.00000  Uiso   1.00
loop_
_geom_bond_atom_site_label_1
_geom_bond_atom_site_label_2
_geom_bond_distance
_geom_bond_site_symmetry_2
_ccdc_geom_bond_type
C1     C62     1.457   .     S
C1     O94     1.273   .     A
C1     O93     1.278   .     A
C2     C65     1.454   .     S
C2     O86     1.274   .     A
C2     O15     1.275   .     A
C3     N48     1.427   .     S
C3     C93     1.407   .     A
C3     C6      1.400   1_655 S
C4     C89     1.412   .     A
C4     N49     1.427   .     S
C4     C287    1.403   1_455 S
C5     N50     1.424   .     S
C5     C91     1.414   .     A
C5     C286    1.402   1_655 S
C6     N51     1.427   .     S
C6     C87     1.414   .     A
C6     C3      1.400   1_455 S
C7     C88     1.413   .     A
C7     N52     1.428   .     S
C7     C288    1.392   1_655 S
C8     N53     1.427   .     S
C8     C102    1.410   .     A
C8     C14     1.397   1_554 S
C9     C100    1.413   .     A
C9     N54     1.426   .     S
C9     C12     1.397   1_556 S
C10    N55     1.426   .     S
C10    C104    1.406   .     A
C10    C16     1.402   1_554 S
C11    N57     1.426   .     S
C11    C103    1.405   .     A
C11    C15     1.400   1_556 S
C12    C97     1.413   .     A
C12    N58     1.429   .     S
C12    C9      1.397   1_554 S
C13    O16     1.275   .     A
C13    C74     1.454   .     S
C13    O91     1.275   .     A
C14    N59     1.427   .     S
C14    C96     1.412   .     A
C14    C8      1.397   1_556 S
C15    N60     1.424   .     S
C15    C99     1.413   .     A
C15    C11     1.400   1_554 S
C16    C98     1.410   .     A
C16    N61     1.426   .     S
C16    C10     1.402   1_556 S
C17    C103    1.405   .     A
C17    N62     1.426   .     S
C17    C22     1.401   1_556 S
C18    C104    1.409   .     A
C18    N63     1.429   .     S
C18    C21     1.406   1_554 S
C19    N64     1.428   .     S
C19    C100    1.410   .     A
C19    C25     1.398   1_556 S
C20    N65     1.428   .     S
C20    C102    1.408   .     A
C20    C23     1.401   1_554 S
C21    N66     1.426   .     S
C21    C98     1.412   .     A
C21    C18     1.406   1_556 S
C22    N68     1.425   .     S
C22    C99     1.413   .     A
C22    C17     1.401   1_554 S
C23    N69     1.427   .     S
C23    C96     1.414   .     A
C23    C20     1.401   1_556 S
C24    O18     1.275   .     A
C24    C75     1.454   .     S
C24    O92     1.275   .     A
C25    C97     1.412   .     A
C25    N70     1.427   .     S
C25    C19     1.398   1_554 S
C26    N71     1.425   .     S
C26    C31     1.400   .     A
C26    C53     1.415   .     A
C27    N72     1.425   .     S
C27    C30     1.399   .     A
C27    C52     1.407   .     A
C28    N73     1.426   .     S
C28    C33     1.402   .     A
C28    C55     1.408   .     A
C29    C32     1.398   .     A
C29    C54     1.411   .     A
C29    N74     1.423   .     S
C30    N75     1.425   .     S
C30    C58     1.410   .     A
C31    N76     1.428   .     S
C31    C56     1.409   .     A
C32    N77     1.429   .     S
C32    C60     1.410   .     A
C33    C59     1.410   .     A
C33    N79     1.425   .     S
C34    N80     1.428   .     S
C34    C62     1.410   .     A
C34    C40     1.402   .     A
C35    O19     1.278   .     A
C35    C67     1.457   .     S
C35    O89     1.278   .     A
C36    C39     1.402   .     A
C36    C61     1.402   .     A
C36    N81     1.430   .     S
C37    C42     1.398   .     A
C37    N82     1.425   .     S
C37    C64     1.409   .     A
C38    C41     1.400   .     A
C38    N83     1.426   .     S
C38    C63     1.412   .     A
C39    C66     1.415   .     A
C39    N84     1.422   .     S
C40    C65     1.410   .     A
C40    N85     1.426   .     S
C41    N86     1.426   .     S
C41    C69     1.409   .     A
C42    C67     1.407   .     A
C42    N87     1.423   .     S
C43    C71     1.412   .     A
C43    N88     1.429   .     S
C43    C49     1.404   .     A
C44    C70     1.406   .     A
C44    C48     1.404   .     A
C44    N90     1.428   .     S
C45    N91     1.426   .     S
C45    C51     1.402   .     A
C45    C73     1.407   .     A
C46    O90     1.277   .     A
C46    O20     1.276   .     A
C46    C69     1.453   .     S
C47    C50     1.404   .     A
C47    N92     1.427   .     S
C47    C72     1.411   .     A
C48    C75     1.413   .     A
C48    N93     1.425   .     S
C49    N94     1.428   .     S
C49    C74     1.413   .     A
C50    C77     1.411   .     A
C50    N95     1.427   .     S
C51    N96     1.426   .     S
C51    C76     1.410   .     A
C52    C239    1.414   .     A
C52    C101    1.459   .     S
C53    C113    1.463   .     S
C53    C238    1.412   .     A
C54    C241    1.406   .     A
C54    C157    1.462   .     S
C55    C240    1.410   .     A
C55    C146    1.458   .     S
C56    C235    1.408   .     A
C56    C124    1.455   .     S
C57    C73     1.453   .     S
C57    O21     1.277   .     A
C57    O87     1.277   .     A
C58    C233    1.410   .     A
C58    C135    1.457   .     S
C59    C237    1.407   .     A
C59    C90     1.460   .     S
C60    C79     1.455   .     S
C60    C236    1.415   .     A
C61    C112    1.452   .     S
C61    C248    1.412   .     A
C62    C247    1.412   .     A
C63    C250    1.412   .     A
C63    C234    1.459   .     S
C64    C249    1.410   .     A
C64    C245    1.454   .     S
C65    C243    1.405   .     A
C66    C242    1.407   .     A
C66    C278    1.459   .     S
C67    C246    1.411   .     A
C68    O88     1.284   .     A
C68    C72     1.452   .     S
C68    O22     1.270   .     A
C69    C244    1.409   .     A
C70    C256    1.454   .     S
C70    C257    1.412   .     A
C71    C255    1.410   .     A
C71    C267    1.453   .     S
C72    C259    1.404   .     A
C73    C258    1.408   .     A
C74    C252    1.406   .     A
C75    C251    1.405   .     A
C76    C254    1.411   .     A
C76    C223    1.455   .     S
C77    C253    1.407   .     A
C77    C212    1.457   .     S
C78    C227    1.458   .     S
C78    C265    1.412   .     A
C78    C275    1.415   .     A
C79    O6      1.275   .     A
C79    O23     1.278   .     A
C80    C276    1.410   .     A
C80    C264    1.417   .     A
C80    C228    1.456   .     S
C81    C268    1.415   .     A
C81    C226    1.460   .     S
C81    C273    1.411   .     A
C82    C274    1.412   .     A
C82    C266    1.414   .     A
C82    C225    1.459   .     S
C83    C261    1.408   .     A
C83    C229    1.462   .     S
C83    C271    1.411   .     A
C84    C230    1.458   .     S
C84    C272    1.408   .     A
C84    C260    1.411   .     A
C85    C263    1.404   .     A
C85    C269    1.407   .     A
C85    C232    1.456   .     S
C86    C270    1.409   .     A
C86    C231    1.457   .     S
C86    C262    1.405   .     A
C87    C283    1.412   .     A
C87    C217    1.456   .     S
C88    C282    1.417   .     A
C88    C216    1.456   .     S
C89    C285    1.416   .     A
C89    C211    1.460   .     S
C90    O7      1.274   .     A
C90    O24     1.280   .     A
C91    C213    1.457   .     S
C91    C284    1.413   .     A
C92    C179    1.458   .     S
C92    C288    1.411   .     A
C92    C279    1.409   .     A
C93    C277    1.411   .     A
C93    C168    1.455   .     S
C94    C220    1.454   .     S
C94    C281    1.404   .     A
C94    C286    1.406   .     A
C95    C221    1.453   .     S
C95    C280    1.403   .     A
C95    C287    1.409   .     A
C96    C214    1.455   .     S
C97    C215    1.454   .     S
C98    C201    1.455   .     S
C99    C190    1.455   .     S
C100   C218    1.453   .     S
C101   O4      1.277   .     A
C101   O25     1.276   .     A
C102   C219    1.453   .     S
C103   C224    1.452   .     S
C104   C222    1.454   .     S
C105   H112    1.110   .     S
C105   N1      1.447   .     S
C105   H223    1.112   .     S
C105   H319    1.109   .     S
C106   N12     1.448   .     S
C106   H341    1.109   .     S
C106   H363    1.109   .     S
C106   H352    1.111   .     S
C107   H24     1.111   .     S
C107   H13     1.106   .     S
C107   H2      1.110   .     S
C107   N23     1.448   .     S
C108   H57     1.108   .     S
C108   H68     1.112   .     S
C108   N34     1.448   .     S
C108   H46     1.110   .     S
C109   N45     1.447   .     S
C109   H90     1.109   .     S
C109   H113    1.111   .     S
C109   H101    1.112   .     S
C110   H157    1.109   .     S
C110   N56     1.449   .     S
C110   H146    1.110   .     S
C110   H135    1.110   .     S
C111   H201    1.110   .     S
C111   H179    1.110   .     S
C111   N67     1.448   .     S
C111   H190    1.110   .     S
C112   O95     1.270   .     A
C112   O2      1.279   .     A
C113   O26     1.272   .     A
C113   O5      1.283   .     A
C114   H224    1.109   .     S
C114   N78     1.447   .     S
C114   H246    1.111   .     S
C114   H235    1.112   .     S
C115   H268    1.110   .     S
C115   H290    1.111   .     S
C115   N89     1.447   .     S
C115   H279    1.111   .     S
C116   H318    1.111   .     S
C116   N2      1.447   .     S
C116   H320    1.111   .     S
C116   H312    1.110   .     S
C117   N3      1.445   .     S
C117   H323    1.110   .     S
C117   H322    1.109   .     S
C117   H324    1.111   .     S
C118   H327    1.109   .     S
C118   H328    1.111   .     S
C118   N4      1.446   .     S
C118   H326    1.110   .     S
C119   H331    1.110   .     S
C119   N5      1.445   .     S
C119   H333    1.111   .     S
C119   H332    1.111   .     S
C120   H336    1.110   .     S
C120   N6      1.446   .     S
C120   H337    1.108   .     S
C120   H335    1.108   .     S
C121   H342    1.111   .     S
C121   N7      1.446   .     S
C121   H339    1.111   .     S
C121   H340    1.111   .     S
C122   H344    1.110   .     S
C122   H345    1.109   .     S
C122   H346    1.107   .     S
C122   N8      1.444   .     S
C123   H348    1.110   .     S
C123   H349    1.111   .     S
C123   H350    1.111   .     S
C123   N9      1.447   .     S
C124   O27     1.277   .     A
C124   O104    1.274   .     A
C125   N10     1.448   .     S
C125   H354    1.111   .     S
C125   H355    1.111   .     S
C125   H353    1.107   .     S
C126   N11     1.449   .     S
C126   H357    1.102   .     S
C126   H358    1.111   .     S
C126   H359    1.110   .     S
C127   H364    1.111   .     S
C127   H362    1.108   .     S
C127   N13     1.446   .     S
C127   H361    1.111   .     S
C128   H366    1.110   .     S
C128   H368    1.111   .     S
C128   N14     1.446   .     S
C128   H367    1.111   .     S
C129   H372    1.110   .     S
C129   H370    1.109   .     S
C129   H371    1.110   .     S
C129   N15     1.446   .     S
C130   H377    1.111   .     S
C130   H376    1.110   .     S
C130   N16     1.447   .     S
C130   H375    1.111   .     S
C131   H380    1.111   .     S
C131   H379    1.110   .     S
C131   N17     1.446   .     S
C131   H381    1.111   .     S
C132   H384    1.113   .     S
C132   H3      1.110   .     S
C132   N18     1.451   .     S
C132   H383    1.109   .     S
C133   N19     1.447   .     S
C133   H6      1.111   .     S
C133   H7      1.111   .     S
C133   H5      1.111   .     S
C134   H9      1.110   .     S
C134   N20     1.448   .     S
C134   H10     1.111   .     S
C134   H11     1.110   .     S
C135   O3      1.277   .     A
C135   O29     1.274   .     A
C136   H14     1.110   .     S
C136   H15     1.111   .     S
C136   H16     1.111   .     S
C136   N21     1.447   .     S
C137   N22     1.450   .     S
C137   H20     1.111   .     S
C137   H19     1.113   .     S
C137   H18     1.110   .     S
C138   H23     1.112   .     S
C138   H25     1.111   .     S
C138   H22     1.109   .     S
C138   N24     1.450   .     S
C139   H29     1.111   .     S
C139   H27     1.108   .     S
C139   N25     1.445   .     S
C139   H28     1.111   .     S
C140   H33     1.110   .     S
C140   N26     1.450   .     S
C140   H31     1.109   .     S
C140   H32     1.112   .     S
C141   H36     1.109   .     S
C141   N27     1.448   .     S
C141   H37     1.111   .     S
C141   H38     1.111   .     S
C142   H42     1.110   .     S
C142   H40     1.109   .     S
C142   H41     1.113   .     S
C142   N28     1.450   .     S
C143   N29     1.454   .     S
C143   H47     1.110   .     S
C143   H45     1.113   .     S
C143   H44     1.109   .     S
C144   H51     1.110   .     S
C144   H49     1.110   .     S
C144   N30     1.446   .     S
C144   H50     1.111   .     S
C145   H55     1.111   .     S
C145   H53     1.109   .     S
C145   N31     1.449   .     S
C145   H54     1.112   .     S
C146   O30     1.275   .     A
C146   O102    1.278   .     A
C147   H59     1.111   .     S
C147   H58     1.110   .     S
C147   H60     1.111   .     S
C147   N32     1.446   .     S
C148   N33     1.450   .     S
C148   H62     1.110   .     S
C148   H63     1.112   .     S
C148   H64     1.110   .     S
C149   N35     1.450   .     S
C149   H67     1.112   .     S
C149   H66     1.109   .     S
C149   H69     1.110   .     S
C150   H71     1.109   .     S
C150   H73     1.110   .     S
C150   N36     1.450   .     S
C150   H72     1.113   .     S
C151   N37     1.447   .     S
C151   H76     1.111   .     S
C151   H75     1.111   .     S
C151   H77     1.111   .     S
C152   H82     1.111   .     S
C152   H80     1.110   .     S
C152   N38     1.447   .     S
C152   H81     1.111   .     S
C153   N39     1.448   .     S
C153   H84     1.108   .     S
C153   H86     1.111   .     S
C153   H85     1.111   .     S
C154   H91     1.110   .     S
C154   N40     1.451   .     S
C154   H88     1.110   .     S
C154   H89     1.113   .     S
C155   H94     1.112   .     S
C155   H95     1.110   .     S
C155   H93     1.109   .     S
C155   N41     1.449   .     S
C156   N42     1.446   .     S
C156   H97     1.108   .     S
C156   H98     1.111   .     S
C156   H99     1.111   .     S
C157   O31     1.271   .     A
C157   O103    1.285   .     A
C158   N43     1.450   .     S
C158   H104    1.110   .     S
C158   H102    1.109   .     S
C158   H103    1.112   .     S
C159   H108    1.111   .     S
C159   N44     1.447   .     S
C159   H106    1.110   .     S
C159   H107    1.111   .     S
C160   H114    1.110   .     S
C160   N46     1.450   .     S
C160   H111    1.113   .     S
C160   H110    1.109   .     S
C161   H116    1.108   .     S
C161   H118    1.110   .     S
C161   H117    1.113   .     S
C161   N47     1.454   .     S
C162   H122    1.110   .     S
C162   H121    1.112   .     S
C162   N48     1.445   .     S
C162   H120    1.110   .     S
C163   H126    1.112   .     S
C163   H127    1.110   .     S
C163   H125    1.109   .     S
C163   N49     1.449   .     S
C164   H130    1.111   .     S
C164   N50     1.446   .     S
C164   H131    1.111   .     S
C164   H129    1.110   .     S
C165   H134    1.112   .     S
C165   H136    1.110   .     S
C165   H133    1.110   .     S
C165   N51     1.450   .     S
C166   H139    1.112   .     S
C166   N52     1.451   .     S
C166   H140    1.110   .     S
C166   H138    1.109   .     S
C167   H143    1.112   .     S
C167   H144    1.109   .     S
C167   H142    1.111   .     S
C167   N53     1.450   .     S
C168   O79     1.278   .     A
C168   O32     1.272   .     A
C169   N54     1.446   .     S
C169   H147    1.110   .     S
C169   H149    1.111   .     S
C169   H148    1.110   .     S
C170   H153    1.111   .     S
C170   H151    1.110   .     S
C170   H152    1.111   .     S
C170   N55     1.447   .     S
C171   H156    1.111   .     S
C171   H155    1.110   .     S
C171   N57     1.447   .     S
C171   H158    1.111   .     S
C172   H162    1.110   .     S
C172   H160    1.110   .     S
C172   N58     1.448   .     S
C172   H161    1.110   .     S
C173   N59     1.449   .     S
C173   H166    1.109   .     S
C173   H165    1.112   .     S
C173   H164    1.109   .     S
C174   H171    1.111   .     S
C174   H169    1.108   .     S
C174   N60     1.446   .     S
C174   H170    1.111   .     S
C175   H174    1.111   .     S
C175   H175    1.111   .     S
C175   N61     1.447   .     S
C175   H173    1.110   .     S
C176   H177    1.110   .     S
C176   N62     1.447   .     S
C176   H178    1.111   .     S
C176   H180    1.111   .     S
C177   H182    1.110   .     S
C177   N63     1.448   .     S
C177   H184    1.109   .     S
C177   H183    1.108   .     S
C178   N64     1.451   .     S
C178   H188    1.110   .     S
C178   H186    1.109   .     S
C178   H187    1.113   .     S
C179   O78     1.270   .     A
C179   O33     1.281   .     A
C180   H191    1.110   .     S
C180   N65     1.445   .     S
C180   H193    1.109   .     S
C180   H192    1.111   .     S
C181   H195    1.110   .     S
C181   H197    1.110   .     S
C181   H196    1.109   .     S
C181   N66     1.447   .     S
C182   H199    1.110   .     S
C182   H200    1.111   .     S
C182   H202    1.110   .     S
C182   N68     1.446   .     S
C183   H205    1.112   .     S
C183   H204    1.110   .     S
C183   H206    1.110   .     S
C183   N69     1.450   .     S
C184   H209    1.112   .     S
C184   H210    1.110   .     S
C184   H208    1.109   .     S
C184   N70     1.451   .     S
C185   N71     1.454   .     S
C185   H214    1.113   .     S
C185   H213    1.109   .     S
C185   H215    1.110   .     S
C186   H218    1.111   .     S
C186   N72     1.448   .     S
C186   H219    1.111   .     S
C186   H217    1.109   .     S
C187   H225    1.111   .     S
C187   H222    1.113   .     S
C187   N73     1.449   .     S
C187   H221    1.109   .     S
C188   H228    1.113   .     S
C188   H229    1.110   .     S
C188   N74     1.455   .     S
C188   H227    1.107   .     S
C189   H232    1.111   .     S
C189   H233    1.111   .     S
C189   H231    1.109   .     S
C189   N75     1.446   .     S
C190   O34     1.277   .     A
C190   O55     1.279   .     A
C191   H238    1.112   .     S
C191   N76     1.450   .     S
C191   H237    1.109   .     S
C191   H236    1.111   .     S
C192   H242    1.111   .     S
C192   H241    1.112   .     S
C192   H240    1.109   .     S
C192   N77     1.450   .     S
C193   H245    1.110   .     S
C193   H247    1.110   .     S
C193   N79     1.444   .     S
C193   H244    1.109   .     S
C194   H250    1.113   .     S
C194   N80     1.450   .     S
C194   H251    1.110   .     S
C194   H249    1.109   .     S
C195   H254    1.110   .     S
C195   N81     1.447   .     S
C195   H253    1.111   .     S
C195   H255    1.112   .     S
C196   H259    1.110   .     S
C196   H258    1.109   .     S
C196   N82     1.446   .     S
C196   H260    1.108   .     S
C197   H262    1.108   .     S
C197   H264    1.110   .     S
C197   N83     1.445   .     S
C197   H263    1.108   .     S
C198   N84     1.448   .     S
C198   H266    1.106   .     S
C198   H269    1.109   .     S
C198   H267    1.111   .     S
C199   H271    1.111   .     S
C199   H273    1.112   .     S
C199   H272    1.109   .     S
C199   N85     1.450   .     S
C200   N86     1.448   .     S
C200   H276    1.110   .     S
C200   H277    1.110   .     S
C200   H275    1.111   .     S
C201   O35     1.279   .     A
C201   O54     1.277   .     A
C202   H280    1.109   .     S
C202   H281    1.112   .     S
C202   N87     1.447   .     S
C202   H282    1.110   .     S
C203   H286    1.111   .     S
C203   N88     1.449   .     S
C203   H285    1.112   .     S
C203   H284    1.109   .     S
C204   H289    1.112   .     S
C204   N90     1.447   .     S
C204   H288    1.110   .     S
C204   H291    1.110   .     S
C205   N91     1.449   .     S
C205   H295    1.111   .     S
C205   H293    1.109   .     S
C205   H294    1.113   .     S
C206   N92     1.450   .     S
C206   H297    1.109   .     S
C206   H299    1.110   .     S
C206   H298    1.113   .     S
C207   H303    1.110   .     S
C207   N93     1.449   .     S
C207   H304    1.109   .     S
C207   H302    1.109   .     S
C208   H307    1.110   .     S
C208   H306    1.109   .     S
C208   N94     1.448   .     S
C208   H308    1.107   .     S
C209   H311    1.112   .     S
C209   N95     1.449   .     S
C209   H313    1.111   .     S
C209   H310    1.109   .     S
C210   H316    1.110   .     S
C210   H317    1.110   .     S
C210   H315    1.110   .     S
C210   N96     1.445   .     S
C211   O70     1.275   .     A
C211   O36     1.282   .     A
C212   O8      1.280   .     A
C212   O100    1.277   .     A
C213   O69     1.278   .     A
C213   O37     1.278   .     A
C214   O38     1.274   .     A
C214   O59     1.277   .     A
C215   O40     1.274   .     A
C215   O58     1.276   .     A
C216   O75     1.276   .     A
C216   O41     1.274   .     A
C217   O74     1.273   .     A
C217   O42     1.277   .     A
C218   O51     1.276   .     A
C218   O43     1.273   .     A
C219   O49     1.274   .     A
C219   O44     1.275   .     A
C220   O84     1.276   .     A
C220   O45     1.279   .     A
C221   O82     1.282   .     A
C221   O46     1.272   .     A
C222   O64     1.279   .     A
C222   O47     1.276   .     A
C223   O9      1.279   .     A
C223   O101    1.277   .     A
C224   O48     1.277   .     A
C224   O63     1.278   .     A
C225   O73     1.280   .     A
C225   O52     1.275   .     A
C226   O53     1.275   .     A
C226   O71     1.280   .     A
C227   O77     1.277   .     A
C227   O56     1.275   .     A
C228   O76     1.274   .     A
C228   O57     1.278   .     A
C229   O60     1.272   .     A
C229   O68     1.282   .     A
C230   O67     1.273   .     A
C230   O62     1.279   .     A
C231   O65     1.282   .     A
C231   O81     1.271   .     A
C232   O66     1.277   .     A
C232   O80     1.276   .     A
C233   C239    1.408   .     A
C233   N1      1.429   .     S
C234   O10     1.282   .     A
C234   O98     1.275   .     A
C235   C238    1.398   .     A
C235   N12     1.426   .     S
C236   C241    1.395   .     A
C236   N23     1.426   .     S
C237   C240    1.406   .     A
C237   N34     1.424   .     S
C238   N45     1.424   .     S
C239   N56     1.427   .     S
C240   N67     1.427   .     S
C241   N78     1.424   .     S
C242   C248    1.400   .     A
C242   N89     1.427   .     S
C243   N2      1.426   .     S
C243   C247    1.399   .     A
C244   C250    1.403   .     A
C244   N3      1.427   .     S
C245   O11     1.278   .     A
C245   O99     1.276   .     A
C246   C249    1.404   .     A
C246   N4      1.425   .     S
C247   N5      1.423   .     S
C248   N6      1.424   .     S
C249   N7      1.427   .     S
C250   N8      1.427   .     S
C251   N9      1.426   .     S
C251   C257    1.400   .     A
C252   C255    1.397   .     A
C252   N10     1.425   .     S
C253   N11     1.422   .     S
C253   C259    1.397   .     A
C254   N13     1.425   .     S
C254   C258    1.401   .     A
C255   N14     1.425   .     S
C256   O96     1.273   .     A
C256   O12     1.277   .     A
C257   N15     1.424   .     S
C258   N16     1.428   .     S
C259   N17     1.425   .     S
C260   N18     1.427   .     S
C260   C265    1.401   1_565 S
C261   N19     1.428   .     S
C261   C264    1.402   1_545 S
C262   N20     1.429   .     S
C262   C268    1.405   1_565 S
C263   N21     1.426   .     S
C263   C266    1.401   1_545 S
C264   N22     1.428   .     S
C264   C261    1.402   1_565 S
C265   N24     1.428   .     S
C265   C260    1.401   1_545 S
C266   N25     1.423   .     S
C266   C263    1.401   1_565 S
C267   O97     1.277   .     A
C267   O13     1.273   .     A
C268   N26     1.426   .     S
C268   C262    1.405   1_545 S
C269   N27     1.425   .     S
C269   C274    1.402   1_545 S
C270   N28     1.427   .     S
C270   C273    1.403   1_565 S
C271   N29     1.424   .     S
C271   C276    1.394   1_545 S
C272   N30     1.428   .     S
C272   C275    1.401   1_565 S
C273   N31     1.427   .     S
C273   C270    1.403   1_545 S
C274   N32     1.424   .     S
C274   C269    1.402   1_565 S
C275   N33     1.427   .     S
C275   C272    1.401   1_545 S
C276   N35     1.429   .     S
C276   C271    1.394   1_565 S
C277   N36     1.428   .     S
C277   C283    1.401   1_655 S
C278   O14     1.276   .     A
C278   O85     1.276   .     A
C279   N37     1.428   .     S
C279   C282    1.400   1_455 S
C280   N38     1.429   .     S
C280   C285    1.402   1_655 S
C281   N39     1.426   .     S
C281   C284    1.399   1_455 S
C282   N40     1.428   .     S
C282   C279    1.400   1_655 S
C283   N41     1.428   .     S
C283   C277    1.401   1_455 S
C284   N42     1.424   .     S
C284   C281    1.399   1_655 S
C285   N43     1.425   .     S
C285   C280    1.402   1_455 S
C286   N44     1.425   .     S
C286   C5      1.402   1_455 S
C287   N46     1.427   .     S
C287   C4      1.403   1_655 S
C288   N47     1.426   .     S
C288   C7      1.392   1_455 S
H1     N1      1.029   .     S
H4     N19     1.030   .     S
H8     N20     1.029   .     S
H12    N21     1.031   .     S
H17    N22     1.031   .     S
H21    N24     1.031   .     S
H26    N25     1.030   .     S
H30    N26     1.031   .     S
H34    N27     1.031   .     S
H35    N34     1.030   .     S
H39    N28     1.032   .     S
H43    N29     1.030   .     S
H48    N30     1.029   .     S
H52    N31     1.031   .     S
H56    N32     1.028   .     S
H61    N33     1.030   .     S
H65    N35     1.031   .     S
H70    N36     1.032   .     S
H74    N37     1.030   .     S
H78    N38     1.029   .     S
H79    N45     1.028   .     S
H83    N39     1.030   .     S
H87    N40     1.031   .     S
H92    N41     1.031   .     S
H96    N42     1.029   .     S
H100   N43     1.030   .     S
H105   N44     1.031   .     S
H109   N46     1.032   .     S
H115   N47     1.031   .     S
H119   N48     1.030   .     S
H123   N49     1.031   .     S
H124   N56     1.031   .     S
H128   N50     1.028   .     S
H132   N51     1.031   .     S
H137   N52     1.030   .     S
H141   N53     1.031   .     S
H145   N54     1.030   .     S
H150   N55     1.031   .     S
H154   N57     1.031   .     S
H159   N58     1.031   .     S
H163   N59     1.032   .     S
H167   N60     1.030   .     S
H168   N67     1.031   .     S
H172   N61     1.029   .     S
H176   N62     1.031   .     S
H181   N63     1.031   .     S
H185   N64     1.032   .     S
H189   N65     1.029   .     S
H194   N66     1.031   .     S
H198   N68     1.028   .     S
H203   N69     1.031   .     S
H207   N70     1.030   .     S
H211   N71     1.030   .     S
H212   N78     1.026   .     S
H216   N72     1.031   .     S
H220   N73     1.031   .     S
H226   N74     1.031   .     S
H230   N75     1.029   .     S
H234   N76     1.031   .     S
H239   N77     1.031   .     S
H243   N79     1.030   .     S
H248   N80     1.032   .     S
H252   N81     1.029   .     S
H256   N82     1.031   .     S
H257   N89     1.030   .     S
H261   N83     1.031   .     S
H265   N84     1.031   .     S
H270   N85     1.031   .     S
H274   N86     1.031   .     S
H278   N87     1.031   .     S
H283   N88     1.032   .     S
H287   N90     1.029   .     S
H292   N91     1.031   .     S
H296   N92     1.031   .     S
H300   N93     1.030   .     S
H301   N2      1.031   .     S
H305   N94     1.031   .     S
H309   N95     1.031   .     S
H314   N96     1.030   .     S
H321   N3      1.030   .     S
H325   N4      1.030   .     S
H329   N5      1.027   .     S
H330   N12     1.031   .     S
H334   N6      1.029   .     S
H338   N7      1.031   .     S
H343   N8      1.031   .     S
H347   N9      1.030   .     S
H351   N10     1.031   .     S
H356   N11     1.031   .     S
H360   N13     1.030   .     S
H365   N14     1.028   .     S
H369   N15     1.030   .     S
H373   N16     1.031   .     S
H374   N23     1.030   .     S
H378   N17     1.027   .     S
H382   N18     1.032   .     S
O1     Zn5     1.946   .     S
O1     Zn1     1.949   .     S
O1     Zn17    1.955   .     S
O1     Zn22    1.949   .     S
O2     Zn24    1.937   .     S
O3     Zn1     1.941   .     S
O4     Zn29    1.941   .     S
O5     Zn28    1.941   .     S
O6     Zn23    1.943   .     S
O7     Zn27    1.943   .     S
O8     Zn25    1.935   .     S
O9     Zn26    1.935   .     S
O10    Zn18    1.940   .     S
O11    Zn19    1.940   .     S
O12    Zn20    1.936   .     S
O13    Zn21    1.936   .     S
O14    Zn21    1.939   .     S
O15    Zn20    1.939   .     S
O16    Zn19    1.935   .     S
O17    Zn24    1.949   .     S
O17    Zn12    1.949   .     S
O17    Zn6     1.946   .     S
O17    Zn16    1.955   .     S
O18    Zn18    1.935   .     S
O19    Zn26    1.937   .     S
O20    Zn25    1.937   .     S
O21    Zn24    1.937   .     S
O22    Zn22    1.937   .     S
O23    Zn25    1.939   .     S
O24    Zn26    1.939   .     S
O25    Zn19    1.941   .     S
O26    Zn18    1.941   .     S
O27    Zn24    1.941   .     S
O28    Zn11    1.949   .     S
O28    Zn3     1.949   .     S
O28    Zn25    1.955   .     S
O28    Zn23    1.946   .     S
O29    Zn22    1.941   .     S
O30    Zn20    1.943   .     S
O31    Zn21    1.943   .     S
O32    Zn13    1.937   .     S
O33    Zn11    1.937   .     S
O34    Zn7     1.935   .     S
O35    Zn8     1.935   .     S
O36    Zn14    1.940   .     S
O37    Zn15    1.940   .     S
O38    Zn6     1.936   .     S
O39    Zn26    1.955   .     S
O39    Zn4     1.949   .     S
O39    Zn27    1.946   .     S
O39    Zn13    1.949   .     S
O40    Zn5     1.936   .     S
O41    Zn9     1.939   .     S
O42    Zn10    1.939   .     S
O43    Zn3     1.935   .     S
O44    Zn4     1.935   .     S
O45    Zn17    1.937   .     S
O46    Zn16    1.937   .     S
O47    Zn2     1.937   .     S
O48    Zn32    1.937   .     S
O49    Zn27    1.936   .     S
O50    Zn18    1.949   .     S
O50    Zn28    1.949   .     S
O50    Zn9     1.946   .     S
O50    Zn8     1.955   .     S
O51    Zn23    1.936   .     S
O52    Zn16    1.939   .     S
O53    Zn17    1.939   .     S
O54    Zn28    1.937   .     S
O55    Zn29    1.937   .     S
O56    Zn15    1.941   .     S
O57    Zn14    1.941   .     S
O58    Zn1     1.935   .     S
O59    Zn12    1.935   .     S
O60    Zn11    1.941   .     S
O61    Zn29    1.949   .     S
O61    Zn10    1.946   .     S
O61    Zn19    1.949   .     S
O61    Zn7     1.955   .     S
O62    Zn13    1.941   .     S
O63    Zn31    1.935   .     S
O64    Zn30    1.935   .     S
O65    Zn10    1.943   .     S
O66    Zn9     1.943   .     S
O67    Zn4     1.941   .     S
O68    Zn3     1.941   .     S
O69    Zn30    1.937   .     S
O70    Zn31    1.937   .     S
O71    Zn5     1.943   .     S
O72    Zn30    1.955   .     S
O72    Zn15    1.949   .     S
O72    Zn2     1.949   .     S
O72    Zn20    1.946   .     S
O73    Zn6     1.943   .     S
O74    Zn29    1.937   .     S
O75    Zn28    1.937   .     S
O76    Zn32    1.941   .     S
O77    Zn2     1.941   .     S
O78    Zn23    1.939   .     S
O79    Zn27    1.939   .     S
O80    Zn8     1.939   .     S
O81    Zn7     1.939   .     S
O82    Zn12    1.940   .     S
O83    Zn21    1.946   .     S
O83    Zn14    1.949   .     S
O83    Zn31    1.955   .     S
O83    Zn32    1.949   .     S
O84    Zn1     1.940   .     S
O85    Zn32    1.937   .     S
O86    Zn2     1.937   .     S
O87    Zn16    1.935   .     S
O88    Zn17    1.935   .     S
O89    Zn4     1.940   .     S
O90    Zn3     1.940   .     S
O91    Zn10    1.936   .     S
O92    Zn9     1.936   .     S
O93    Zn5     1.939   .     S
O94    Zn22    1.937   .     S
O95    Zn6     1.939   .     S
O96    Zn15    1.935   .     S
O97    Zn14    1.935   .     S
O98    Zn8     1.937   .     S
O99    Zn7     1.937   .     S
O100   Zn11    1.937   .     S
O101   Zn13    1.937   .     S
O102   Zn30    1.939   .     S
O103   Zn31    1.939   .     S
O104   Zn12    1.941   .     S
