data_str_m1_o1_o1_pcu_sym.17
_audit_creation_date              2020-01-03
_audit_creation_method            'Materials Studio'
_symmetry_space_group_name_H-M    'P1'
_symmetry_Int_Tables_number       1
_symmetry_cell_setting            triclinic
loop_
_symmetry_equiv_pos_as_xyz
  x,y,z
_cell_length_a                    25.9310
_cell_length_b                    25.9410
_cell_length_c                    25.9397
_cell_angle_alpha                 90.0077
_cell_angle_beta                  90.0084
_cell_angle_gamma                 89.9971
loop_
_atom_site_label
_atom_site_type_symbol
_atom_site_fract_x
_atom_site_fract_y
_atom_site_fract_z
_atom_site_U_iso_or_equiv
_atom_site_adp_type
_atom_site_occupancy
C1     C     0.39005   0.24998   0.25003   0.00000  Uiso   1.00
C2     C     0.60995   0.24999   0.25001   0.00000  Uiso   1.00
C3     C     0.97294   0.74813   0.20279   0.00000  Uiso   1.00
C4     C     0.02706   0.79715   0.74803   0.00000  Uiso   1.00
C5     C     0.97295   0.24808   0.29720   0.00000  Uiso   1.00
C6     C     0.02706   0.74813   0.20278   0.00000  Uiso   1.00
C7     C     0.97294   0.29716   0.75198   0.00000  Uiso   1.00
C8     C     0.79713   0.74797   0.02708   0.00000  Uiso   1.00
C9     C     0.20284   0.25205   0.97297   0.00000  Uiso   1.00
C10    C     0.74803   0.20285   0.02702   0.00000  Uiso   1.00
C11    C     0.29722   0.75199   0.97296   0.00000  Uiso   1.00
C12    C     0.20284   0.25205   0.02707   0.00000  Uiso   1.00
C13    C     0.25002   0.75001   0.39005   0.00000  Uiso   1.00
C14    C     0.79713   0.74796   0.97297   0.00000  Uiso   1.00
C15    C     0.29723   0.75197   0.02707   0.00000  Uiso   1.00
C16    C     0.74805   0.20285   0.97291   0.00000  Uiso   1.00
C17    C     0.20288   0.74792   0.97296   0.00000  Uiso   1.00
C18    C     0.75194   0.29716   0.02704   0.00000  Uiso   1.00
C19    C     0.29718   0.24803   0.97298   0.00000  Uiso   1.00
C20    C     0.70278   0.75198   0.02705   0.00000  Uiso   1.00
C21    C     0.75194   0.29716   0.97293   0.00000  Uiso   1.00
C22    C     0.20288   0.74791   0.02706   0.00000  Uiso   1.00
C23    C     0.70278   0.75199   0.97294   0.00000  Uiso   1.00
C24    C     0.75000   0.24999   0.60994   0.00000  Uiso   1.00
C25    C     0.29718   0.24803   0.02708   0.00000  Uiso   1.00
C26    C     0.74802   0.47295   0.70284   0.00000  Uiso   1.00
C27    C     0.25209   0.52706   0.29715   0.00000  Uiso   1.00
C28    C     0.70172   0.47362   0.24180   0.00000  Uiso   1.00
C29    C     0.25203   0.52704   0.70285   0.00000  Uiso   1.00
C30    C     0.25209   0.47295   0.29715   0.00000  Uiso   1.00
C31    C     0.74802   0.52706   0.70284   0.00000  Uiso   1.00
C32    C     0.25203   0.47294   0.70285   0.00000  Uiso   1.00
C33    C     0.70250   0.52770   0.24407   0.00000  Uiso   1.00
C34    C     0.47294   0.25184   0.29722   0.00000  Uiso   1.00
C35    C     0.60995   0.74999   0.24998   0.00000  Uiso   1.00
C36    C     0.52703   0.74806   0.70288   0.00000  Uiso   1.00
C37    C     0.47293   0.74810   0.29712   0.00000  Uiso   1.00
C38    C     0.52611   0.29585   0.76426   0.00000  Uiso   1.00
C39    C     0.47291   0.74807   0.70288   0.00000  Uiso   1.00
C40    C     0.52707   0.25185   0.29721   0.00000  Uiso   1.00
C41    C     0.47204   0.29471   0.76282   0.00000  Uiso   1.00
C42    C     0.52705   0.74810   0.29712   0.00000  Uiso   1.00
C43    C     0.29721   0.74796   0.52706   0.00000  Uiso   1.00
C44    C     0.70282   0.25196   0.47292   0.00000  Uiso   1.00
C45    C     0.74796   0.70285   0.52707   0.00000  Uiso   1.00
C46    C     0.39000   0.24944   0.74944   0.00000  Uiso   1.00
C47    C     0.29717   0.25201   0.47293   0.00000  Uiso   1.00
C48    C     0.70282   0.25196   0.52702   0.00000  Uiso   1.00
C49    C     0.29721   0.74796   0.47294   0.00000  Uiso   1.00
C50    C     0.29717   0.25200   0.52704   0.00000  Uiso   1.00
C51    C     0.74797   0.70285   0.47296   0.00000  Uiso   1.00
C52    C     0.25000   0.55379   0.25000   0.00000  Uiso   1.00
C53    C     0.75002   0.44621   0.74999   0.00000  Uiso   1.00
C54    C     0.24998   0.55379   0.74999   0.00000  Uiso   1.00
C55    C     0.74862   0.44620   0.24822   0.00000  Uiso   1.00
C56    C     0.75002   0.55378   0.75000   0.00000  Uiso   1.00
C57    C     0.74999   0.75000   0.60995   0.00000  Uiso   1.00
C58    C     0.25000   0.44621   0.25000   0.00000  Uiso   1.00
C59    C     0.74959   0.55387   0.24962   0.00000  Uiso   1.00
C60    C     0.24998   0.44621   0.75000   0.00000  Uiso   1.00
C61    C     0.55378   0.74997   0.75004   0.00000  Uiso   1.00
C62    C     0.44620   0.24996   0.25005   0.00000  Uiso   1.00
C63    C     0.55388   0.25085   0.75086   0.00000  Uiso   1.00
C64    C     0.44620   0.74999   0.24996   0.00000  Uiso   1.00
C65    C     0.55378   0.24996   0.25004   0.00000  Uiso   1.00
C66    C     0.44620   0.74998   0.75004   0.00000  Uiso   1.00
C67    C     0.55378   0.75000   0.24997   0.00000  Uiso   1.00
C68    C     0.25000   0.25001   0.39005   0.00000  Uiso   1.00
C69    C     0.44611   0.24915   0.74910   0.00000  Uiso   1.00
C70    C     0.75000   0.24999   0.44620   0.00000  Uiso   1.00
C71    C     0.25003   0.75001   0.55378   0.00000  Uiso   1.00
C72    C     0.25000   0.25002   0.44619   0.00000  Uiso   1.00
C73    C     0.74997   0.75000   0.55381   0.00000  Uiso   1.00
C74    C     0.25004   0.75000   0.44620   0.00000  Uiso   1.00
C75    C     0.75000   0.24999   0.55377   0.00000  Uiso   1.00
C76    C     0.75000   0.75000   0.44623   0.00000  Uiso   1.00
C77    C     0.25000   0.24999   0.55377   0.00000  Uiso   1.00
C78    C     0.75000   0.05379   0.24999   0.00000  Uiso   1.00
C79    C     0.24999   0.39005   0.75000   0.00000  Uiso   1.00
C80    C     0.24998   0.94621   0.75000   0.00000  Uiso   1.00
C81    C     0.25000   0.05379   0.24999   0.00000  Uiso   1.00
C82    C     0.74984   0.94612   0.74996   0.00000  Uiso   1.00
C83    C     0.24999   0.05379   0.75000   0.00000  Uiso   1.00
C84    C     0.75000   0.94621   0.25001   0.00000  Uiso   1.00
C85    C     0.74984   0.05375   0.74953   0.00000  Uiso   1.00
C86    C     0.25000   0.94621   0.25001   0.00000  Uiso   1.00
C87    C     0.05380   0.75004   0.24995   0.00000  Uiso   1.00
C88    C     0.94621   0.25001   0.74998   0.00000  Uiso   1.00
C89    C     0.05380   0.75001   0.75001   0.00000  Uiso   1.00
C90    C     0.75005   0.60998   0.25006   0.00000  Uiso   1.00
C91    C     0.94622   0.25000   0.25003   0.00000  Uiso   1.00
C92    C     0.05379   0.25000   0.74998   0.00000  Uiso   1.00
C93    C     0.94622   0.75004   0.24996   0.00000  Uiso   1.00
C94    C     0.05380   0.25001   0.25004   0.00000  Uiso   1.00
C95    C     0.94621   0.75001   0.75003   0.00000  Uiso   1.00
C96    C     0.74996   0.74997   0.94622   0.00000  Uiso   1.00
C97    C     0.25001   0.25003   0.05380   0.00000  Uiso   1.00
C98    C     0.75001   0.25000   0.94619   0.00000  Uiso   1.00
C99    C     0.25005   0.74994   0.05380   0.00000  Uiso   1.00
C100   C     0.25001   0.25002   0.94623   0.00000  Uiso   1.00
C101   C     0.25000   0.60994   0.25000   0.00000  Uiso   1.00
C102   C     0.74996   0.74997   0.05379   0.00000  Uiso   1.00
C103   C     0.25004   0.74997   0.94622   0.00000  Uiso   1.00
C104   C     0.74998   0.25000   0.05377   0.00000  Uiso   1.00
C105   C     0.60995   0.74999   0.75001   0.00000  Uiso   1.00
C106   C     0.75001   0.39005   0.74999   0.00000  Uiso   1.00
C107   C     0.75000   0.60994   0.75000   0.00000  Uiso   1.00
C108   C     0.25000   0.39005   0.25000   0.00000  Uiso   1.00
C109   C     0.74940   0.39003   0.24937   0.00000  Uiso   1.00
C110   C     0.25000   0.60995   0.74999   0.00000  Uiso   1.00
C111   C     0.89005   0.75002   0.24998   0.00000  Uiso   1.00
C112   C     0.10995   0.25000   0.75000   0.00000  Uiso   1.00
C113   C     0.25003   0.74997   0.10995   0.00000  Uiso   1.00
C114   C     0.75000   0.25000   0.89005   0.00000  Uiso   1.00
C115   C     0.10995   0.75000   0.75000   0.00000  Uiso   1.00
C116   C     0.25000   0.24999   0.60994   0.00000  Uiso   1.00
C117   C     0.89005   0.25001   0.25001   0.00000  Uiso   1.00
C118   C     0.74998   0.74999   0.89006   0.00000  Uiso   1.00
C119   C     0.25001   0.25001   0.10995   0.00000  Uiso   1.00
C120   C     0.89005   0.25001   0.74999   0.00000  Uiso   1.00
C121   C     0.10995   0.75002   0.24997   0.00000  Uiso   1.00
C122   C     0.25000   0.25000   0.89006   0.00000  Uiso   1.00
C123   C     0.74998   0.74998   0.10995   0.00000  Uiso   1.00
C124   C     0.10996   0.25001   0.25002   0.00000  Uiso   1.00
C125   C     0.89005   0.75000   0.75001   0.00000  Uiso   1.00
C126   C     0.74999   0.25000   0.10994   0.00000  Uiso   1.00
C127   C     0.75000   0.75000   0.39006   0.00000  Uiso   1.00
C128   C     0.25002   0.74999   0.89006   0.00000  Uiso   1.00
C129   C     0.75002   0.89002   0.75005   0.00000  Uiso   1.00
C130   C     0.25000   0.10995   0.25000   0.00000  Uiso   1.00
C131   C     0.75000   0.10994   0.24999   0.00000  Uiso   1.00
C132   C     0.24999   0.89005   0.75000   0.00000  Uiso   1.00
C133   C     0.25000   0.10995   0.75000   0.00000  Uiso   1.00
C134   C     0.75000   0.89005   0.25001   0.00000  Uiso   1.00
C135   C     0.25000   0.89005   0.25000   0.00000  Uiso   1.00
C136   C     0.74981   0.10993   0.74972   0.00000  Uiso   1.00
C137   C     0.24791   0.47294   0.20285   0.00000  Uiso   1.00
C138   C     0.61000   0.25055   0.75054   0.00000  Uiso   1.00
C139   C     0.75204   0.52704   0.79715   0.00000  Uiso   1.00
C140   C     0.24791   0.47295   0.79714   0.00000  Uiso   1.00
C141   C     0.79623   0.52679   0.25390   0.00000  Uiso   1.00
C142   C     0.75203   0.47294   0.79715   0.00000  Uiso   1.00
C143   C     0.24791   0.52704   0.20285   0.00000  Uiso   1.00
C144   C     0.79572   0.47267   0.25377   0.00000  Uiso   1.00
C145   C     0.24791   0.52706   0.79714   0.00000  Uiso   1.00
C146   C     0.47294   0.75189   0.79721   0.00000  Uiso   1.00
C147   C     0.52703   0.24806   0.20288   0.00000  Uiso   1.00
C148   C     0.47389   0.20416   0.73567   0.00000  Uiso   1.00
C149   C     0.39005   0.74999   0.24998   0.00000  Uiso   1.00
C150   C     0.52705   0.75191   0.20279   0.00000  Uiso   1.00
C151   C     0.47292   0.24806   0.20288   0.00000  Uiso   1.00
C152   C     0.52706   0.75189   0.79721   0.00000  Uiso   1.00
C153   C     0.47293   0.75191   0.20279   0.00000  Uiso   1.00
C154   C     0.52796   0.20529   0.73712   0.00000  Uiso   1.00
C155   C     0.79717   0.24800   0.52704   0.00000  Uiso   1.00
C156   C     0.20287   0.75203   0.47292   0.00000  Uiso   1.00
C157   C     0.20283   0.24801   0.52702   0.00000  Uiso   1.00
C158   C     0.75199   0.79716   0.47298   0.00000  Uiso   1.00
C159   C     0.20287   0.75204   0.52703   0.00000  Uiso   1.00
C160   C     0.75000   0.25000   0.39005   0.00000  Uiso   1.00
C161   C     0.79717   0.24801   0.47293   0.00000  Uiso   1.00
C162   C     0.75196   0.79716   0.52709   0.00000  Uiso   1.00
C163   C     0.20283   0.24804   0.47291   0.00000  Uiso   1.00
C164   C     0.70284   0.97295   0.24788   0.00000  Uiso   1.00
C165   C     0.25203   0.02706   0.79715   0.00000  Uiso   1.00
C166   C     0.20284   0.97295   0.25210   0.00000  Uiso   1.00
C167   C     0.74952   0.02650   0.70234   0.00000  Uiso   1.00
C168   C     0.25203   0.97296   0.79715   0.00000  Uiso   1.00
C169   C     0.70284   0.02705   0.24786   0.00000  Uiso   1.00
C170   C     0.74951   0.97265   0.70275   0.00000  Uiso   1.00
C171   C     0.25001   0.75001   0.60994   0.00000  Uiso   1.00
C172   C     0.20284   0.02705   0.25209   0.00000  Uiso   1.00
C173   C     0.74994   0.02716   0.79684   0.00000  Uiso   1.00
C174   C     0.29716   0.97295   0.24791   0.00000  Uiso   1.00
C175   C     0.24792   0.02705   0.70286   0.00000  Uiso   1.00
C176   C     0.79716   0.97295   0.25214   0.00000  Uiso   1.00
C177   C     0.29716   0.02705   0.24790   0.00000  Uiso   1.00
C178   C     0.74989   0.97302   0.79704   0.00000  Uiso   1.00
C179   C     0.79716   0.02705   0.25212   0.00000  Uiso   1.00
C180   C     0.24791   0.97294   0.70286   0.00000  Uiso   1.00
C181   C     0.97297   0.75198   0.29711   0.00000  Uiso   1.00
C182   C     0.39005   0.74998   0.75002   0.00000  Uiso   1.00
C183   C     0.02706   0.20286   0.74796   0.00000  Uiso   1.00
C184   C     0.97295   0.70286   0.75203   0.00000  Uiso   1.00
C185   C     0.02707   0.25190   0.20288   0.00000  Uiso   1.00
C186   C     0.97295   0.20286   0.74795   0.00000  Uiso   1.00
C187   C     0.02708   0.75198   0.29711   0.00000  Uiso   1.00
C188   C     0.97295   0.25191   0.20288   0.00000  Uiso   1.00
C189   C     0.02706   0.70286   0.75202   0.00000  Uiso   1.00
C190   C     0.02707   0.24809   0.29721   0.00000  Uiso   1.00
C191   C     0.97294   0.79716   0.74804   0.00000  Uiso   1.00
C192   C     0.02706   0.29715   0.75199   0.00000  Uiso   1.00
H1     H     0.27972   0.45496   0.13354   0.00000  Uiso   1.00
H2     H     0.72009   0.45491   0.86641   0.00000  Uiso   1.00
H3     H     0.95464   0.86548   0.71445   0.00000  Uiso   1.00
H4     H     0.04535   0.36547   0.78564   0.00000  Uiso   1.00
H5     H     0.04504   0.36640   0.72007   0.00000  Uiso   1.00
H6     H     0.95460   0.71461   0.13439   0.00000  Uiso   1.00
H7     H     0.95489   0.78016   0.13358   0.00000  Uiso   1.00
H8     H     0.04533   0.86547   0.71441   0.00000  Uiso   1.00
H9     H     0.04506   0.86640   0.77997   0.00000  Uiso   1.00
H10    H     0.95493   0.28011   0.36643   0.00000  Uiso   1.00
H11    H     0.95464   0.21456   0.36558   0.00000  Uiso   1.00
H12    H     0.04537   0.71463   0.13438   0.00000  Uiso   1.00
H13    H     0.27971   0.54501   0.13354   0.00000  Uiso   1.00
H14    H     0.04507   0.78018   0.13357   0.00000  Uiso   1.00
H15    H     0.95466   0.36548   0.78562   0.00000  Uiso   1.00
H16    H     0.95495   0.36640   0.72005   0.00000  Uiso   1.00
H17    H     0.86549   0.71433   0.04541   0.00000  Uiso   1.00
H18    H     0.86642   0.77989   0.04512   0.00000  Uiso   1.00
H19    H     0.13452   0.28573   0.95470   0.00000  Uiso   1.00
H20    H     0.13354   0.22017   0.95499   0.00000  Uiso   1.00
H21    H     0.71443   0.13451   0.04526   0.00000  Uiso   1.00
H22    H     0.78002   0.13362   0.04499   0.00000  Uiso   1.00
H23    H     0.36556   0.78567   0.95466   0.00000  Uiso   1.00
H24    H     0.21413   0.54531   0.13459   0.00000  Uiso   1.00
H25    H     0.36654   0.72012   0.95493   0.00000  Uiso   1.00
H26    H     0.13353   0.22016   0.04508   0.00000  Uiso   1.00
H27    H     0.13450   0.28572   0.04540   0.00000  Uiso   1.00
H28    H     0.86642   0.77986   0.95503   0.00000  Uiso   1.00
H29    H     0.86546   0.71430   0.95472   0.00000  Uiso   1.00
H30    H     0.36557   0.78562   0.04540   0.00000  Uiso   1.00
H31    H     0.36654   0.72007   0.04507   0.00000  Uiso   1.00
H32    H     0.71450   0.13447   0.95456   0.00000  Uiso   1.00
H33    H     0.78009   0.13362   0.95489   0.00000  Uiso   1.00
H34    H     0.13357   0.77978   0.95501   0.00000  Uiso   1.00
H35    H     0.85921   0.45407   0.29578   0.00000  Uiso   1.00
H36    H     0.13457   0.71423   0.95468   0.00000  Uiso   1.00
H37    H     0.71993   0.36637   0.04501   0.00000  Uiso   1.00
H38    H     0.78551   0.36550   0.04532   0.00000  Uiso   1.00
H39    H     0.36645   0.27996   0.95501   0.00000  Uiso   1.00
H40    H     0.36552   0.21440   0.95472   0.00000  Uiso   1.00
H41    H     0.63347   0.72008   0.04505   0.00000  Uiso   1.00
H42    H     0.63443   0.78563   0.04536   0.00000  Uiso   1.00
H43    H     0.71991   0.36639   0.95490   0.00000  Uiso   1.00
H44    H     0.78550   0.36554   0.95462   0.00000  Uiso   1.00
H45    H     0.13356   0.77978   0.04509   0.00000  Uiso   1.00
H46    H     0.86825   0.45390   0.23085   0.00000  Uiso   1.00
H47    H     0.13455   0.71422   0.04537   0.00000  Uiso   1.00
H48    H     0.63444   0.78564   0.95462   0.00000  Uiso   1.00
H49    H     0.63348   0.72009   0.95490   0.00000  Uiso   1.00
H50    H     0.36555   0.21442   0.04542   0.00000  Uiso   1.00
H51    H     0.36647   0.27998   0.04512   0.00000  Uiso   1.00
H52    H     0.77996   0.45498   0.63359   0.00000  Uiso   1.00
H53    H     0.71438   0.45469   0.63451   0.00000  Uiso   1.00
H54    H     0.28587   0.54534   0.36541   0.00000  Uiso   1.00
H55    H     0.22028   0.54504   0.36646   0.00000  Uiso   1.00
H56    H     0.64042   0.46029   0.19547   0.00000  Uiso   1.00
H57    H     0.21415   0.54535   0.86540   0.00000  Uiso   1.00
H58    H     0.65685   0.40843   0.22823   0.00000  Uiso   1.00
H59    H     0.22015   0.54501   0.63356   0.00000  Uiso   1.00
H60    H     0.28574   0.54530   0.63456   0.00000  Uiso   1.00
H61    H     0.28587   0.45469   0.36541   0.00000  Uiso   1.00
H62    H     0.22029   0.45499   0.36646   0.00000  Uiso   1.00
H63    H     0.77998   0.54508   0.63359   0.00000  Uiso   1.00
H64    H     0.71440   0.54539   0.63449   0.00000  Uiso   1.00
H65    H     0.28573   0.45465   0.63457   0.00000  Uiso   1.00
H66    H     0.22015   0.45495   0.63356   0.00000  Uiso   1.00
H67    H     0.63956   0.54963   0.20291   0.00000  Uiso   1.00
H68    H     0.27974   0.54504   0.86645   0.00000  Uiso   1.00
H69    H     0.62964   0.54401   0.26740   0.00000  Uiso   1.00
H70    H     0.45493   0.21975   0.36641   0.00000  Uiso   1.00
H71    H     0.45463   0.28531   0.36564   0.00000  Uiso   1.00
H72    H     0.54529   0.71455   0.63449   0.00000  Uiso   1.00
H73    H     0.54499   0.78011   0.63368   0.00000  Uiso   1.00
H74    H     0.45490   0.78021   0.36632   0.00000  Uiso   1.00
H75    H     0.45460   0.71464   0.36554   0.00000  Uiso   1.00
H76    H     0.54337   0.34735   0.82010   0.00000  Uiso   1.00
H77    H     0.59117   0.34099   0.77779   0.00000  Uiso   1.00
H78    H     0.45456   0.71458   0.63447   0.00000  Uiso   1.00
H79    H     0.45493   0.71984   0.86642   0.00000  Uiso   1.00
H80    H     0.45487   0.78014   0.63368   0.00000  Uiso   1.00
H81    H     0.54511   0.21976   0.36640   0.00000  Uiso   1.00
H82    H     0.54540   0.28532   0.36562   0.00000  Uiso   1.00
H83    H     0.45115   0.34985   0.81427   0.00000  Uiso   1.00
H84    H     0.45425   0.37008   0.75212   0.00000  Uiso   1.00
H85    H     0.54533   0.71461   0.36551   0.00000  Uiso   1.00
H86    H     0.54503   0.78017   0.36631   0.00000  Uiso   1.00
H87    H     0.36553   0.71425   0.54538   0.00000  Uiso   1.00
H88    H     0.36654   0.77981   0.54509   0.00000  Uiso   1.00
H89    H     0.63444   0.28555   0.45458   0.00000  Uiso   1.00
H90    H     0.45463   0.78540   0.86561   0.00000  Uiso   1.00
H91    H     0.63355   0.21999   0.45488   0.00000  Uiso   1.00
H92    H     0.71430   0.63453   0.54538   0.00000  Uiso   1.00
H93    H     0.77988   0.63357   0.54510   0.00000  Uiso   1.00
H94    H     0.36553   0.28565   0.45462   0.00000  Uiso   1.00
H95    H     0.36647   0.22009   0.45490   0.00000  Uiso   1.00
H96    H     0.63357   0.21998   0.54499   0.00000  Uiso   1.00
H97    H     0.63446   0.28554   0.54528   0.00000  Uiso   1.00
H98    H     0.36655   0.77979   0.45495   0.00000  Uiso   1.00
H99    H     0.36553   0.71424   0.45464   0.00000  Uiso   1.00
H100   H     0.36552   0.28560   0.54532   0.00000  Uiso   1.00
H101   H     0.54529   0.21457   0.13449   0.00000  Uiso   1.00
H102   H     0.36644   0.22005   0.54501   0.00000  Uiso   1.00
H103   H     0.71431   0.63455   0.45468   0.00000  Uiso   1.00
H104   H     0.77989   0.63359   0.45500   0.00000  Uiso   1.00
H105   H     0.21413   0.45466   0.13459   0.00000  Uiso   1.00
H106   H     0.54499   0.28014   0.13370   0.00000  Uiso   1.00
H107   H     0.45656   0.15278   0.67975   0.00000  Uiso   1.00
H108   H     0.40883   0.15901   0.72217   0.00000  Uiso   1.00
H109   H     0.54507   0.71986   0.13358   0.00000  Uiso   1.00
H110   H     0.54537   0.78542   0.13441   0.00000  Uiso   1.00
H111   H     0.45456   0.21457   0.13448   0.00000  Uiso   1.00
H112   H     0.45487   0.28013   0.13368   0.00000  Uiso   1.00
H113   H     0.54510   0.71984   0.86642   0.00000  Uiso   1.00
H114   H     0.54540   0.78540   0.86561   0.00000  Uiso   1.00
H115   H     0.45459   0.78543   0.13441   0.00000  Uiso   1.00
H116   H     0.78573   0.54530   0.86545   0.00000  Uiso   1.00
H117   H     0.45490   0.71987   0.13357   0.00000  Uiso   1.00
H118   H     0.54884   0.15020   0.68561   0.00000  Uiso   1.00
H119   H     0.54575   0.12991   0.74775   0.00000  Uiso   1.00
H120   H     0.86551   0.21436   0.54530   0.00000  Uiso   1.00
H121   H     0.86644   0.27992   0.54502   0.00000  Uiso   1.00
H122   H     0.13451   0.78567   0.45458   0.00000  Uiso   1.00
H123   H     0.13357   0.72011   0.45488   0.00000  Uiso   1.00
H124   H     0.13355   0.27993   0.54499   0.00000  Uiso   1.00
H125   H     0.13449   0.21437   0.54526   0.00000  Uiso   1.00
H126   H     0.72007   0.86641   0.45500   0.00000  Uiso   1.00
H127   H     0.72015   0.54501   0.86643   0.00000  Uiso   1.00
H128   H     0.78565   0.86546   0.45474   0.00000  Uiso   1.00
H129   H     0.13357   0.72017   0.54498   0.00000  Uiso   1.00
H130   H     0.13455   0.78573   0.54527   0.00000  Uiso   1.00
H131   H     0.86645   0.27997   0.45492   0.00000  Uiso   1.00
H132   H     0.86555   0.21441   0.45460   0.00000  Uiso   1.00
H133   H     0.71998   0.86641   0.54511   0.00000  Uiso   1.00
H134   H     0.78556   0.86551   0.54544   0.00000  Uiso   1.00
H135   H     0.13355   0.28001   0.45489   0.00000  Uiso   1.00
H136   H     0.13445   0.21445   0.45456   0.00000  Uiso   1.00
H137   H     0.63458   0.95467   0.21407   0.00000  Uiso   1.00
H138   H     0.27976   0.45498   0.86644   0.00000  Uiso   1.00
H139   H     0.63348   0.95499   0.27963   0.00000  Uiso   1.00
H140   H     0.28575   0.04534   0.86544   0.00000  Uiso   1.00
H141   H     0.22016   0.04505   0.86643   0.00000  Uiso   1.00
H142   H     0.13457   0.95469   0.28588   0.00000  Uiso   1.00
H143   H     0.13349   0.95497   0.22031   0.00000  Uiso   1.00
H144   H     0.71651   0.07853   0.65382   0.00000  Uiso   1.00
H145   H     0.78178   0.07266   0.64785   0.00000  Uiso   1.00
H146   H     0.28575   0.95469   0.86544   0.00000  Uiso   1.00
H147   H     0.22016   0.95499   0.86643   0.00000  Uiso   1.00
H148   H     0.63460   0.04532   0.21402   0.00000  Uiso   1.00
H149   H     0.21417   0.45469   0.86541   0.00000  Uiso   1.00
H150   H     0.63347   0.04504   0.27958   0.00000  Uiso   1.00
H151   H     0.77990   0.95485   0.63302   0.00000  Uiso   1.00
H152   H     0.71456   0.95530   0.63502   0.00000  Uiso   1.00
H153   H     0.13349   0.04503   0.22030   0.00000  Uiso   1.00
H154   H     0.13457   0.04534   0.28587   0.00000  Uiso   1.00
H155   H     0.71929   0.04576   0.86649   0.00000  Uiso   1.00
H156   H     0.78485   0.04539   0.86460   0.00000  Uiso   1.00
H157   H     0.36651   0.95497   0.27970   0.00000  Uiso   1.00
H158   H     0.36543   0.95466   0.21413   0.00000  Uiso   1.00
H159   H     0.27977   0.04501   0.63357   0.00000  Uiso   1.00
H160   H     0.86859   0.54469   0.22994   0.00000  Uiso   1.00
H161   H     0.21418   0.04532   0.63458   0.00000  Uiso   1.00
H162   H     0.86653   0.95495   0.22042   0.00000  Uiso   1.00
H163   H     0.86541   0.95468   0.28598   0.00000  Uiso   1.00
H164   H     0.36543   0.04531   0.21412   0.00000  Uiso   1.00
H165   H     0.36651   0.04503   0.27969   0.00000  Uiso   1.00
H166   H     0.71912   0.95499   0.86673   0.00000  Uiso   1.00
H167   H     0.78468   0.95521   0.86493   0.00000  Uiso   1.00
H168   H     0.86652   0.04501   0.22037   0.00000  Uiso   1.00
H169   H     0.86542   0.04533   0.28593   0.00000  Uiso   1.00
H170   H     0.27973   0.95496   0.63355   0.00000  Uiso   1.00
H171   H     0.86061   0.54426   0.29501   0.00000  Uiso   1.00
H172   H     0.21414   0.95466   0.63459   0.00000  Uiso   1.00
H173   H     0.95501   0.71996   0.36632   0.00000  Uiso   1.00
H174   H     0.95471   0.78552   0.36548   0.00000  Uiso   1.00
H175   H     0.04505   0.13359   0.77985   0.00000  Uiso   1.00
H176   H     0.04535   0.13455   0.71429   0.00000  Uiso   1.00
H177   H     0.95467   0.63456   0.78569   0.00000  Uiso   1.00
H178   H     0.95495   0.63359   0.72012   0.00000  Uiso   1.00
H179   H     0.04510   0.21981   0.13368   0.00000  Uiso   1.00
H180   H     0.04540   0.28537   0.13446   0.00000  Uiso   1.00
H181   H     0.95497   0.13359   0.77984   0.00000  Uiso   1.00
H182   H     0.78567   0.45460   0.86549   0.00000  Uiso   1.00
H183   H     0.95465   0.13456   0.71427   0.00000  Uiso   1.00
H184   H     0.04513   0.71995   0.36633   0.00000  Uiso   1.00
H185   H     0.04544   0.78551   0.36550   0.00000  Uiso   1.00
H186   H     0.95467   0.28540   0.13449   0.00000  Uiso   1.00
H187   H     0.95497   0.21984   0.13368   0.00000  Uiso   1.00
H188   H     0.04504   0.63360   0.72009   0.00000  Uiso   1.00
H189   H     0.04537   0.63455   0.78566   0.00000  Uiso   1.00
H190   H     0.04541   0.21455   0.36558   0.00000  Uiso   1.00
H191   H     0.04510   0.28011   0.36644   0.00000  Uiso   1.00
H192   H     0.95496   0.86639   0.78001   0.00000  Uiso   1.00
N1     N     0.24732   0.44474   0.15520   0.00000  Uiso   1.00
N2     N     0.55523   0.24766   0.15522   0.00000  Uiso   1.00
N3     N     0.44883   0.15736   0.71903   0.00000  Uiso   1.00
N4     N     0.55528   0.75233   0.15514   0.00000  Uiso   1.00
N5     N     0.44468   0.24765   0.15523   0.00000  Uiso   1.00
N6     N     0.55530   0.75231   0.84487   0.00000  Uiso   1.00
N7     N     0.44469   0.75233   0.15513   0.00000  Uiso   1.00
N8     N     0.55721   0.16019   0.72374   0.00000  Uiso   1.00
N9     N     0.84484   0.24749   0.55524   0.00000  Uiso   1.00
N10    N     0.15519   0.75254   0.44469   0.00000  Uiso   1.00
N11    N     0.15515   0.24750   0.55521   0.00000  Uiso   1.00
N12    N     0.75258   0.55524   0.84481   0.00000  Uiso   1.00
N13    N     0.75251   0.84481   0.44479   0.00000  Uiso   1.00
N14    N     0.15519   0.75258   0.55521   0.00000  Uiso   1.00
N15    N     0.84484   0.24753   0.44472   0.00000  Uiso   1.00
N16    N     0.75243   0.84481   0.55531   0.00000  Uiso   1.00
N17    N     0.15515   0.24757   0.44469   0.00000  Uiso   1.00
N18    N     0.65517   0.94476   0.24725   0.00000  Uiso   1.00
N19    N     0.25259   0.05527   0.84481   0.00000  Uiso   1.00
N20    N     0.15517   0.94475   0.25270   0.00000  Uiso   1.00
N21    N     0.74735   0.05256   0.65354   0.00000  Uiso   1.00
N22    N     0.25258   0.94476   0.84481   0.00000  Uiso   1.00
N23    N     0.24734   0.44476   0.84480   0.00000  Uiso   1.00
N24    N     0.65517   0.05526   0.24721   0.00000  Uiso   1.00
N25    N     0.74781   0.94449   0.65510   0.00000  Uiso   1.00
N26    N     0.15517   0.05526   0.25269   0.00000  Uiso   1.00
N27    N     0.75152   0.05556   0.84437   0.00000  Uiso   1.00
N28    N     0.34483   0.94474   0.24731   0.00000  Uiso   1.00
N29    N     0.24735   0.05524   0.65520   0.00000  Uiso   1.00
N30    N     0.84483   0.94474   0.25279   0.00000  Uiso   1.00
N31    N     0.34484   0.05524   0.24730   0.00000  Uiso   1.00
N32    N     0.75135   0.94494   0.84474   0.00000  Uiso   1.00
N33    N     0.84484   0.05524   0.25274   0.00000  Uiso   1.00
N34    N     0.84367   0.55471   0.25998   0.00000  Uiso   1.00
N35    N     0.24732   0.94474   0.65520   0.00000  Uiso   1.00
N36    N     0.94477   0.75242   0.34478   0.00000  Uiso   1.00
N37    N     0.05528   0.15520   0.74743   0.00000  Uiso   1.00
N38    N     0.94474   0.65520   0.75255   0.00000  Uiso   1.00
N39    N     0.05530   0.25229   0.15522   0.00000  Uiso   1.00
N40    N     0.94473   0.15520   0.74742   0.00000  Uiso   1.00
N41    N     0.05532   0.75241   0.34477   0.00000  Uiso   1.00
N42    N     0.94474   0.25231   0.15521   0.00000  Uiso   1.00
N43    N     0.05528   0.65520   0.75252   0.00000  Uiso   1.00
N44    N     0.05531   0.24765   0.34487   0.00000  Uiso   1.00
N45    N     0.75253   0.44472   0.84480   0.00000  Uiso   1.00
N46    N     0.94472   0.84481   0.74757   0.00000  Uiso   1.00
N47    N     0.05527   0.34481   0.75250   0.00000  Uiso   1.00
N48    N     0.94469   0.74770   0.15513   0.00000  Uiso   1.00
N49    N     0.05527   0.84481   0.74753   0.00000  Uiso   1.00
N50    N     0.94472   0.24765   0.34486   0.00000  Uiso   1.00
N51    N     0.05528   0.74771   0.15512   0.00000  Uiso   1.00
N52    N     0.94473   0.34481   0.75249   0.00000  Uiso   1.00
N53    N     0.84480   0.74746   0.05530   0.00000  Uiso   1.00
N54    N     0.15516   0.25259   0.94476   0.00000  Uiso   1.00
N55    N     0.74755   0.15519   0.05521   0.00000  Uiso   1.00
N56    N     0.24731   0.55524   0.15520   0.00000  Uiso   1.00
N57    N     0.34490   0.75253   0.94474   0.00000  Uiso   1.00
N58    N     0.15516   0.25257   0.05529   0.00000  Uiso   1.00
N59    N     0.84481   0.74744   0.94479   0.00000  Uiso   1.00
N60    N     0.34490   0.75248   0.05529   0.00000  Uiso   1.00
N61    N     0.74762   0.15519   0.94469   0.00000  Uiso   1.00
N62    N     0.15520   0.74738   0.94476   0.00000  Uiso   1.00
N63    N     0.75239   0.34481   0.05524   0.00000  Uiso   1.00
N64    N     0.34485   0.24752   0.94478   0.00000  Uiso   1.00
N65    N     0.65510   0.75250   0.05526   0.00000  Uiso   1.00
N66    N     0.75239   0.34482   0.94471   0.00000  Uiso   1.00
N67    N     0.84271   0.44407   0.26041   0.00000  Uiso   1.00
N68    N     0.15520   0.74736   0.05528   0.00000  Uiso   1.00
N69    N     0.65511   0.75251   0.94471   0.00000  Uiso   1.00
N70    N     0.34486   0.24755   0.05531   0.00000  Uiso   1.00
N71    N     0.74751   0.44475   0.65518   0.00000  Uiso   1.00
N72    N     0.25268   0.55526   0.34480   0.00000  Uiso   1.00
N73    N     0.65318   0.44823   0.23173   0.00000  Uiso   1.00
N74    N     0.25258   0.55524   0.65519   0.00000  Uiso   1.00
N75    N     0.25269   0.44476   0.34480   0.00000  Uiso   1.00
N76    N     0.74753   0.55528   0.65519   0.00000  Uiso   1.00
N77    N     0.25257   0.44473   0.65519   0.00000  Uiso   1.00
N78    N     0.24733   0.55526   0.84480   0.00000  Uiso   1.00
N79    N     0.65553   0.55667   0.23922   0.00000  Uiso   1.00
N80    N     0.44472   0.25223   0.34488   0.00000  Uiso   1.00
N81    N     0.55523   0.74764   0.65522   0.00000  Uiso   1.00
N82    N     0.44470   0.74772   0.34478   0.00000  Uiso   1.00
N83    N     0.55116   0.34267   0.78084   0.00000  Uiso   1.00
N84    N     0.44467   0.74767   0.65522   0.00000  Uiso   1.00
N85    N     0.55531   0.25224   0.34487   0.00000  Uiso   1.00
N86    N     0.44279   0.33982   0.77615   0.00000  Uiso   1.00
N87    N     0.55526   0.74770   0.34478   0.00000  Uiso   1.00
N88    N     0.34488   0.74740   0.55528   0.00000  Uiso   1.00
N89    N     0.44472   0.75231   0.84487   0.00000  Uiso   1.00
N90    N     0.65515   0.25243   0.44469   0.00000  Uiso   1.00
N91    N     0.74744   0.65519   0.55529   0.00000  Uiso   1.00
N92    N     0.34485   0.25252   0.44472   0.00000  Uiso   1.00
N93    N     0.65515   0.25243   0.55522   0.00000  Uiso   1.00
N94    N     0.34489   0.74739   0.44474   0.00000  Uiso   1.00
N95    N     0.34484   0.25248   0.55524   0.00000  Uiso   1.00
N96    N     0.74746   0.65520   0.44476   0.00000  Uiso   1.00
O1     O     0.25000   0.25000   0.25000   0.00000  Uiso   1.00
O2     O     0.63420   0.71971   0.71971   0.00000  Uiso   1.00
O3     O     0.21971   0.36580   0.21971   0.00000  Uiso   1.00
O4     O     0.21971   0.63420   0.21971   0.00000  Uiso   1.00
O5     O     0.78029   0.36580   0.78029   0.00000  Uiso   1.00
O6     O     0.21971   0.36580   0.78029   0.00000  Uiso   1.00
O7     O     0.78029   0.63420   0.21971   0.00000  Uiso   1.00
O8     O     0.28029   0.28029   0.63420   0.00000  Uiso   1.00
O9     O     0.71971   0.71971   0.36580   0.00000  Uiso   1.00
O10    O     0.63420   0.28029   0.71971   0.00000  Uiso   1.00
O11    O     0.36580   0.71971   0.28029   0.00000  Uiso   1.00
O12    O     0.71971   0.28029   0.36580   0.00000  Uiso   1.00
O13    O     0.28029   0.71971   0.63420   0.00000  Uiso   1.00
O14    O     0.36580   0.71971   0.71971   0.00000  Uiso   1.00
O15    O     0.63420   0.28029   0.28029   0.00000  Uiso   1.00
O16    O     0.28029   0.71971   0.36580   0.00000  Uiso   1.00
O17    O     0.75000   0.75000   0.75000   0.00000  Uiso   1.00
O18    O     0.71971   0.28029   0.63420   0.00000  Uiso   1.00
O19    O     0.63420   0.71971   0.28029   0.00000  Uiso   1.00
O20    O     0.36580   0.28029   0.71971   0.00000  Uiso   1.00
O21    O     0.71971   0.71971   0.63420   0.00000  Uiso   1.00
O22    O     0.28029   0.28029   0.36580   0.00000  Uiso   1.00
O23    O     0.28029   0.36580   0.71971   0.00000  Uiso   1.00
O24    O     0.71971   0.63420   0.28029   0.00000  Uiso   1.00
O25    O     0.28029   0.63420   0.28029   0.00000  Uiso   1.00
O26    O     0.71971   0.36580   0.71971   0.00000  Uiso   1.00
O27    O     0.71971   0.63420   0.71971   0.00000  Uiso   1.00
O28    O     0.25000   0.25000   0.75000   0.00000  Uiso   1.00
O29    O     0.28029   0.36580   0.28029   0.00000  Uiso   1.00
O30    O     0.71971   0.36580   0.28029   0.00000  Uiso   1.00
O31    O     0.28029   0.63420   0.71971   0.00000  Uiso   1.00
O32    O     0.86580   0.78029   0.28029   0.00000  Uiso   1.00
O33    O     0.13420   0.21971   0.71971   0.00000  Uiso   1.00
O34    O     0.28029   0.78029   0.13420   0.00000  Uiso   1.00
O35    O     0.71971   0.21971   0.86580   0.00000  Uiso   1.00
O36    O     0.13420   0.78029   0.71971   0.00000  Uiso   1.00
O37    O     0.86580   0.21971   0.28029   0.00000  Uiso   1.00
O38    O     0.71971   0.78029   0.86580   0.00000  Uiso   1.00
O39    O     0.75000   0.75000   0.25000   0.00000  Uiso   1.00
O40    O     0.28029   0.21971   0.13420   0.00000  Uiso   1.00
O41    O     0.86580   0.21971   0.71971   0.00000  Uiso   1.00
O42    O     0.13420   0.78029   0.28029   0.00000  Uiso   1.00
O43    O     0.28029   0.21971   0.86580   0.00000  Uiso   1.00
O44    O     0.71971   0.78029   0.13420   0.00000  Uiso   1.00
O45    O     0.13420   0.21971   0.28029   0.00000  Uiso   1.00
O46    O     0.86580   0.78029   0.71971   0.00000  Uiso   1.00
O47    O     0.71971   0.21971   0.13420   0.00000  Uiso   1.00
O48    O     0.28029   0.78029   0.86580   0.00000  Uiso   1.00
O49    O     0.78029   0.71971   0.13420   0.00000  Uiso   1.00
O50    O     0.75000   0.25000   0.75000   0.00000  Uiso   1.00
O51    O     0.21971   0.28029   0.86580   0.00000  Uiso   1.00
O52    O     0.78029   0.86580   0.71971   0.00000  Uiso   1.00
O53    O     0.21971   0.13420   0.28029   0.00000  Uiso   1.00
O54    O     0.78029   0.28029   0.86580   0.00000  Uiso   1.00
O55    O     0.21971   0.71971   0.13420   0.00000  Uiso   1.00
O56    O     0.78029   0.13420   0.28029   0.00000  Uiso   1.00
O57    O     0.21971   0.86580   0.71971   0.00000  Uiso   1.00
O58    O     0.21971   0.28029   0.13420   0.00000  Uiso   1.00
O59    O     0.78029   0.71971   0.86580   0.00000  Uiso   1.00
O60    O     0.21971   0.13420   0.71971   0.00000  Uiso   1.00
O61    O     0.25000   0.75000   0.25000   0.00000  Uiso   1.00
O62    O     0.78029   0.86580   0.28029   0.00000  Uiso   1.00
O63    O     0.21971   0.71971   0.86580   0.00000  Uiso   1.00
O64    O     0.78029   0.28029   0.13420   0.00000  Uiso   1.00
O65    O     0.21971   0.86580   0.28029   0.00000  Uiso   1.00
O66    O     0.78029   0.13420   0.71971   0.00000  Uiso   1.00
O67    O     0.71971   0.86580   0.21971   0.00000  Uiso   1.00
O68    O     0.28029   0.13420   0.78029   0.00000  Uiso   1.00
O69    O     0.86580   0.28029   0.21971   0.00000  Uiso   1.00
O70    O     0.13420   0.71971   0.78029   0.00000  Uiso   1.00
O71    O     0.28029   0.13420   0.21971   0.00000  Uiso   1.00
O72    O     0.75000   0.25000   0.25000   0.00000  Uiso   1.00
O73    O     0.71971   0.86580   0.78029   0.00000  Uiso   1.00
O74    O     0.13420   0.71971   0.21971   0.00000  Uiso   1.00
O75    O     0.86580   0.28029   0.78029   0.00000  Uiso   1.00
O76    O     0.28029   0.86580   0.78029   0.00000  Uiso   1.00
O77    O     0.71971   0.13420   0.21971   0.00000  Uiso   1.00
O78    O     0.13420   0.28029   0.78029   0.00000  Uiso   1.00
O79    O     0.86580   0.71971   0.21971   0.00000  Uiso   1.00
O80    O     0.71971   0.13420   0.78029   0.00000  Uiso   1.00
O81    O     0.28029   0.86580   0.21971   0.00000  Uiso   1.00
O82    O     0.86580   0.71971   0.78029   0.00000  Uiso   1.00
O83    O     0.25000   0.75000   0.75000   0.00000  Uiso   1.00
O84    O     0.13420   0.28029   0.21971   0.00000  Uiso   1.00
O85    O     0.36580   0.78029   0.78029   0.00000  Uiso   1.00
O86    O     0.63420   0.21971   0.21971   0.00000  Uiso   1.00
O87    O     0.78029   0.78029   0.63420   0.00000  Uiso   1.00
O88    O     0.21971   0.21971   0.36580   0.00000  Uiso   1.00
O89    O     0.63420   0.78029   0.21971   0.00000  Uiso   1.00
O90    O     0.36580   0.21971   0.78029   0.00000  Uiso   1.00
O91    O     0.21971   0.78029   0.36580   0.00000  Uiso   1.00
O92    O     0.78029   0.21971   0.63420   0.00000  Uiso   1.00
O93    O     0.36580   0.21971   0.21971   0.00000  Uiso   1.00
O94    O     0.36580   0.28029   0.28029   0.00000  Uiso   1.00
O95    O     0.63420   0.78029   0.78029   0.00000  Uiso   1.00
O96    O     0.78029   0.21971   0.36580   0.00000  Uiso   1.00
O97    O     0.21971   0.78029   0.63420   0.00000  Uiso   1.00
O98    O     0.63420   0.21971   0.78029   0.00000  Uiso   1.00
O99    O     0.36580   0.78029   0.21971   0.00000  Uiso   1.00
O100   O     0.21971   0.21971   0.63420   0.00000  Uiso   1.00
O101   O     0.78029   0.78029   0.36580   0.00000  Uiso   1.00
O102   O     0.78029   0.36580   0.21971   0.00000  Uiso   1.00
O103   O     0.21971   0.63420   0.78029   0.00000  Uiso   1.00
O104   O     0.78029   0.63420   0.78029   0.00000  Uiso   1.00
Zn1    Zn    0.20660   0.29340   0.20660   0.00000  Uiso   1.00
Zn2    Zn    0.70660   0.20660   0.20660   0.00000  Uiso   1.00
Zn3    Zn    0.29340   0.20660   0.79340   0.00000  Uiso   1.00
Zn4    Zn    0.70660   0.79340   0.20660   0.00000  Uiso   1.00
Zn5    Zn    0.29340   0.20660   0.20660   0.00000  Uiso   1.00
Zn6    Zn    0.70660   0.79340   0.79340   0.00000  Uiso   1.00
Zn7    Zn    0.29340   0.79340   0.20660   0.00000  Uiso   1.00
Zn8    Zn    0.70660   0.20660   0.79340   0.00000  Uiso   1.00
Zn9    Zn    0.79340   0.20660   0.70660   0.00000  Uiso   1.00
Zn10   Zn    0.20660   0.79340   0.29340   0.00000  Uiso   1.00
Zn11   Zn    0.20660   0.20660   0.70660   0.00000  Uiso   1.00
Zn12   Zn    0.79340   0.70660   0.79340   0.00000  Uiso   1.00
Zn13   Zn    0.79340   0.79340   0.29340   0.00000  Uiso   1.00
Zn14   Zn    0.20660   0.79340   0.70660   0.00000  Uiso   1.00
Zn15   Zn    0.79340   0.20660   0.29340   0.00000  Uiso   1.00
Zn16   Zn    0.79340   0.79340   0.70660   0.00000  Uiso   1.00
Zn17   Zn    0.20660   0.20660   0.29340   0.00000  Uiso   1.00
Zn18   Zn    0.70660   0.29340   0.70660   0.00000  Uiso   1.00
Zn19   Zn    0.29340   0.70660   0.29340   0.00000  Uiso   1.00
Zn20   Zn    0.70660   0.29340   0.29340   0.00000  Uiso   1.00
Zn21   Zn    0.29340   0.70660   0.70660   0.00000  Uiso   1.00
Zn22   Zn    0.29340   0.29340   0.29340   0.00000  Uiso   1.00
Zn23   Zn    0.20660   0.29340   0.79340   0.00000  Uiso   1.00
Zn24   Zn    0.70660   0.70660   0.70660   0.00000  Uiso   1.00
Zn25   Zn    0.29340   0.29340   0.70660   0.00000  Uiso   1.00
Zn26   Zn    0.70660   0.70660   0.29340   0.00000  Uiso   1.00
Zn27   Zn    0.79340   0.70660   0.20660   0.00000  Uiso   1.00
Zn28   Zn    0.79340   0.29340   0.79340   0.00000  Uiso   1.00
Zn29   Zn    0.20660   0.70660   0.20660   0.00000  Uiso   1.00
Zn30   Zn    0.79340   0.29340   0.20660   0.00000  Uiso   1.00
Zn31   Zn    0.20660   0.70660   0.79340   0.00000  Uiso   1.00
Zn32   Zn    0.29340   0.79340   0.79340   0.00000  Uiso   1.00
loop_
_geom_bond_atom_site_label_1
_geom_bond_atom_site_label_2
_geom_bond_distance
_geom_bond_site_symmetry_2
_ccdc_geom_bond_type
C1     C62     1.456   .     S
C1     O94     1.277   .     A
C1     O93     1.277   .     A
C2     C65     1.456   .     S
C2     O86     1.277   .     A
C2     O15     1.277   .     A
C3     C93     1.407   .     A
C3     N48     1.437   .     S
C3     C6      1.404   1_655 S
C4     C89     1.407   .     A
C4     N49     1.437   .     S
C4     C191    1.403   1_455 S
C5     N50     1.437   .     S
C5     C91     1.407   .     A
C5     C190    1.403   1_655 S
C6     N51     1.437   .     S
C6     C87     1.407   .     A
C6     C3      1.404   1_455 S
C7     C88     1.407   .     A
C7     N52     1.437   .     S
C7     C192    1.403   1_655 S
C8     N53     1.437   .     S
C8     C102    1.407   .     A
C8     C14     1.403   1_554 S
C9     C100    1.407   .     A
C9     N54     1.437   .     S
C9     C12     1.404   1_556 S
C10    C104    1.407   .     A
C10    N55     1.436   .     S
C10    C16     1.404   1_554 S
C11    N57     1.437   .     S
C11    C103    1.407   .     A
C11    C15     1.404   1_556 S
C12    C97     1.407   .     A
C12    N58     1.437   .     S
C12    C9      1.404   1_554 S
C13    O16     1.277   .     A
C13    O91     1.277   .     A
C13    C74     1.457   .     S
C14    C96     1.407   .     A
C14    N59     1.437   .     S
C14    C8      1.403   1_556 S
C15    N60     1.437   .     S
C15    C99     1.407   .     A
C15    C11     1.404   1_554 S
C16    C98     1.407   .     A
C16    N61     1.437   .     S
C16    C10     1.404   1_556 S
C17    N62     1.437   .     S
C17    C103    1.407   .     A
C17    C22     1.403   1_556 S
C18    C104    1.407   .     A
C18    N63     1.437   .     S
C18    C21     1.404   1_554 S
C19    N64     1.437   .     S
C19    C100    1.407   .     A
C19    C25     1.404   1_556 S
C20    N65     1.437   .     S
C20    C102    1.407   .     A
C20    C23     1.404   1_554 S
C21    N66     1.437   .     S
C21    C98     1.407   .     A
C21    C18     1.404   1_556 S
C22    N68     1.437   .     S
C22    C99     1.407   .     A
C22    C17     1.403   1_554 S
C23    N69     1.437   .     S
C23    C96     1.407   .     A
C23    C20     1.404   1_556 S
C24    O92     1.277   .     A
C24    O18     1.277   .     A
C24    C75     1.457   .     S
C25    N70     1.437   .     S
C25    C97     1.407   .     A
C25    C19     1.404   1_554 S
C26    N71     1.436   .     S
C26    C31     1.404   .     A
C26    C53     1.407   .     A
C27    N72     1.437   .     S
C27    C30     1.403   .     A
C27    C52     1.407   .     A
C28    C33     1.404   .     A
C28    N73     1.444   .     S
C28    C55     1.419   .     A
C29    C32     1.403   .     A
C29    C54     1.407   .     A
C29    N74     1.437   .     S
C30    N75     1.437   .     S
C30    C58     1.407   .     A
C31    N76     1.437   .     S
C31    C56     1.407   .     A
C32    N77     1.437   .     S
C32    C60     1.407   .     A
C33    C59     1.405   .     A
C33    N79     1.437   .     S
C34    C62     1.407   .     A
C34    C40     1.404   .     A
C34    N80     1.437   .     S
C35    C67     1.456   .     S
C35    O19     1.277   .     A
C35    O89     1.277   .     A
C36    C39     1.403   .     A
C36    C61     1.407   .     A
C36    N81     1.437   .     S
C37    C42     1.403   .     A
C37    N82     1.437   .     S
C37    C64     1.407   .     A
C38    C41     1.403   .     A
C38    N83     1.443   .     S
C38    C63     1.415   .     A
C39    N84     1.437   .     S
C39    C66     1.407   .     A
C40    C65     1.407   .     A
C40    N85     1.437   .     S
C41    C69     1.406   .     A
C41    N86     1.437   .     S
C42    N87     1.437   .     S
C42    C67     1.407   .     A
C43    C71     1.407   .     A
C43    N88     1.437   .     S
C43    C49     1.404   .     A
C44    C70     1.407   .     A
C44    C48     1.404   .     A
C44    N90     1.437   .     S
C45    N91     1.437   .     S
C45    C51     1.404   .     A
C45    C73     1.407   .     A
C46    O90     1.276   .     A
C46    O20     1.276   .     A
C46    C69     1.455   .     S
C47    C50     1.404   .     A
C47    N92     1.437   .     S
C47    C72     1.407   .     A
C48    N93     1.437   .     S
C48    C75     1.407   .     A
C49    C74     1.407   .     A
C49    N94     1.437   .     S
C50    C77     1.407   .     A
C50    N95     1.436   .     S
C51    N96     1.436   .     S
C51    C76     1.407   .     A
C52    C143    1.407   .     A
C52    C101    1.457   .     S
C53    C106    1.457   .     S
C53    C142    1.407   .     A
C54    C145    1.407   .     A
C54    C110    1.457   .     S
C55    C109    1.457   .     S
C55    C144    1.409   .     A
C56    C139    1.407   .     A
C56    C107    1.457   .     S
C57    C73     1.456   .     S
C57    O87     1.277   .     A
C57    O21     1.277   .     A
C58    C108    1.457   .     S
C58    C137    1.407   .     A
C59    C141    1.403   .     A
C59    C90     1.456   .     S
C60    C79     1.457   .     S
C60    C140    1.407   .     A
C61    C105    1.456   .     S
C61    C152    1.407   .     A
C62    C151    1.407   .     A
C63    C154    1.406   .     A
C63    C138    1.455   .     S
C64    C153    1.407   .     A
C64    C149    1.456   .     S
C65    C147    1.407   .     A
C66    C182    1.456   .     S
C66    C146    1.407   .     A
C67    C150    1.407   .     A
C68    O88     1.277   .     A
C68    C72     1.456   .     S
C68    O22     1.277   .     A
C69    C148    1.415   .     A
C70    C161    1.407   .     A
C70    C160    1.456   .     S
C71    C171    1.457   .     S
C71    C159    1.407   .     A
C72    C163    1.407   .     A
C73    C162    1.407   .     A
C74    C156    1.407   .     A
C75    C155    1.407   .     A
C76    C127    1.457   .     S
C76    C158    1.407   .     A
C77    C116    1.457   .     S
C77    C157    1.407   .     A
C78    C179    1.407   .     A
C78    C169    1.407   .     A
C78    C131    1.457   .     S
C79    O6      1.277   .     A
C79    O23     1.277   .     A
C80    C132    1.457   .     S
C80    C168    1.407   .     A
C80    C180    1.407   .     A
C81    C177    1.407   .     A
C81    C130    1.457   .     S
C81    C172    1.407   .     A
C82    C178    1.406   .     A
C82    C129    1.455   .     S
C82    C170    1.405   .     A
C83    C165    1.407   .     A
C83    C175    1.407   .     A
C83    C133    1.457   .     S
C84    C164    1.407   .     A
C84    C134    1.457   .     S
C84    C176    1.407   .     A
C85    C167    1.413   .     A
C85    C136    1.457   .     S
C85    C173    1.408   .     A
C86    C174    1.407   .     A
C86    C135    1.457   .     S
C86    C166    1.407   .     A
C87    C187    1.407   .     A
C87    C121    1.456   .     S
C88    C120    1.456   .     S
C88    C186    1.407   .     A
C89    C115    1.456   .     S
C89    C189    1.407   .     A
C90    O24     1.276   .     A
C90    O7      1.277   .     A
C91    C188    1.407   .     A
C91    C117    1.456   .     S
C92    C112    1.456   .     S
C92    C192    1.407   .     A
C92    C183    1.407   .     A
C93    C181    1.407   .     A
C93    C111    1.456   .     S
C94    C185    1.407   .     A
C94    C190    1.407   .     A
C94    C124    1.456   .     S
C95    C184    1.407   .     A
C95    C125    1.456   .     S
C95    C191    1.407   .     A
C96    C118    1.457   .     S
C97    C119    1.456   .     S
C98    C114    1.456   .     S
C99    C113    1.457   .     S
C100   C122    1.457   .     S
C101   O25     1.277   .     A
C101   O4      1.277   .     A
C102   C123    1.457   .     S
C103   C128    1.457   .     S
C104   C126    1.457   .     S
C105   O95     1.277   .     A
C105   O2      1.277   .     A
C106   O5      1.277   .     A
C106   O26     1.277   .     A
C107   O27     1.277   .     A
C107   O104    1.277   .     A
C108   O3      1.277   .     A
C108   O29     1.277   .     A
C109   O102    1.276   .     A
C109   O30     1.277   .     A
C110   O31     1.277   .     A
C110   O103    1.277   .     A
C111   O79     1.277   .     A
C111   O32     1.277   .     A
C112   O33     1.277   .     A
C112   O78     1.277   .     A
C113   O55     1.277   .     A
C113   O34     1.277   .     A
C114   O54     1.277   .     A
C114   O35     1.277   .     A
C115   O36     1.277   .     A
C115   O70     1.277   .     A
C116   O100    1.277   .     A
C116   O8      1.277   .     A
C117   O37     1.277   .     A
C117   O69     1.277   .     A
C118   O38     1.277   .     A
C118   O59     1.277   .     A
C119   O40     1.277   .     A
C119   O58     1.277   .     A
C120   O75     1.277   .     A
C120   O41     1.277   .     A
C121   O74     1.277   .     A
C121   O42     1.277   .     A
C122   O51     1.277   .     A
C122   O43     1.277   .     A
C123   O44     1.277   .     A
C123   O49     1.277   .     A
C124   O45     1.277   .     A
C124   O84     1.277   .     A
C125   O82     1.277   .     A
C125   O46     1.277   .     A
C126   O64     1.277   .     A
C126   O47     1.277   .     A
C127   O101    1.277   .     A
C127   O9      1.277   .     A
C128   O48     1.277   .     A
C128   O63     1.277   .     A
C129   O73     1.276   .     A
C129   O52     1.277   .     A
C130   O53     1.277   .     A
C130   O71     1.277   .     A
C131   O56     1.277   .     A
C131   O77     1.277   .     A
C132   O76     1.277   .     A
C132   O57     1.277   .     A
C133   O60     1.277   .     A
C133   O68     1.277   .     A
C134   O67     1.277   .     A
C134   O62     1.277   .     A
C135   O81     1.277   .     A
C135   O65     1.277   .     A
C136   O66     1.276   .     A
C136   O80     1.278   .     A
C137   N1      1.437   .     S
C137   C143    1.403   .     A
C138   O10     1.276   .     A
C138   O98     1.276   .     A
C139   C142    1.404   .     A
C139   N12     1.436   .     S
C140   N23     1.437   .     S
C140   C145    1.403   .     A
C141   C144    1.404   .     A
C141   N34     1.436   .     S
C142   N45     1.437   .     S
C143   N56     1.437   .     S
C144   N67     1.437   .     S
C145   N78     1.437   .     S
C146   N89     1.437   .     S
C146   C152    1.403   .     A
C147   N2      1.437   .     S
C147   C151    1.403   .     A
C148   C154    1.403   .     A
C148   N3      1.443   .     S
C149   O99     1.277   .     A
C149   O11     1.277   .     A
C150   C153    1.403   .     A
C150   N4      1.437   .     S
C151   N5      1.437   .     S
C152   N6      1.437   .     S
C153   N7      1.437   .     S
C154   N8      1.437   .     S
C155   C161    1.404   .     A
C155   N9      1.436   .     S
C156   N10     1.437   .     S
C156   C159    1.403   .     A
C157   N11     1.436   .     S
C157   C163    1.404   .     A
C158   N13     1.436   .     S
C158   C162    1.404   .     A
C159   N14     1.437   .     S
C160   O96     1.277   .     A
C160   O12     1.277   .     A
C161   N15     1.437   .     S
C162   N16     1.437   .     S
C163   N17     1.437   .     S
C164   N18     1.437   .     S
C164   C169    1.403   1_565 S
C165   N19     1.437   .     S
C165   C168    1.404   1_545 S
C166   N20     1.437   .     S
C166   C172    1.403   1_565 S
C167   N21     1.436   .     S
C167   C170    1.397   1_545 S
C168   N22     1.437   .     S
C168   C165    1.404   1_565 S
C169   N24     1.437   .     S
C169   C164    1.403   1_545 S
C170   N25     1.436   .     S
C170   C167    1.397   1_565 S
C171   O97     1.277   .     A
C171   O13     1.277   .     A
C172   N26     1.437   .     S
C172   C166    1.403   1_545 S
C173   N27     1.437   .     S
C173   C178    1.404   1_545 S
C174   N28     1.437   .     S
C174   C177    1.403   1_565 S
C175   N29     1.437   .     S
C175   C180    1.403   1_545 S
C176   N30     1.437   .     S
C176   C179    1.403   1_565 S
C177   N31     1.437   .     S
C177   C174    1.403   1_545 S
C178   N32     1.436   .     S
C178   C173    1.404   1_565 S
C179   N33     1.437   .     S
C179   C176    1.403   1_545 S
C180   N35     1.437   .     S
C180   C175    1.403   1_565 S
C181   N36     1.437   .     S
C181   C187    1.403   1_655 S
C182   O85     1.277   .     A
C182   O14     1.277   .     A
C183   N37     1.437   .     S
C183   C186    1.403   1_455 S
C184   N38     1.437   .     S
C184   C189    1.403   1_655 S
C185   N39     1.437   .     S
C185   C188    1.403   1_455 S
C186   N40     1.437   .     S
C186   C183    1.403   1_655 S
C187   N41     1.437   .     S
C187   C181    1.403   1_455 S
C188   N42     1.437   .     S
C188   C185    1.403   1_655 S
C189   N43     1.437   .     S
C189   C184    1.403   1_455 S
C190   N44     1.437   .     S
C190   C5      1.403   1_455 S
C191   N46     1.437   .     S
C191   C4      1.403   1_655 S
C192   N47     1.437   .     S
C192   C7      1.403   1_455 S
H1     N1      1.045   .     S
H2     N45     1.045   .     S
H3     N46     1.045   .     S
H4     N47     1.045   .     S
H5     N47     1.045   .     S
H6     N48     1.045   .     S
H7     N48     1.045   .     S
H8     N49     1.045   .     S
H9     N49     1.045   .     S
H10    N50     1.045   .     S
H11    N50     1.045   .     S
H12    N51     1.045   .     S
H13    N56     1.045   .     S
H14    N51     1.045   .     S
H15    N52     1.045   .     S
H16    N52     1.045   .     S
H17    N53     1.045   .     S
H18    N53     1.045   .     S
H19    N54     1.045   .     S
H20    N54     1.045   .     S
H21    N55     1.045   .     S
H22    N55     1.045   .     S
H23    N57     1.045   .     S
H24    N56     1.045   .     S
H25    N57     1.045   .     S
H26    N58     1.045   .     S
H27    N58     1.045   .     S
H28    N59     1.045   .     S
H29    N59     1.045   .     S
H30    N60     1.045   .     S
H31    N60     1.045   .     S
H32    N61     1.045   .     S
H33    N61     1.045   .     S
H34    N62     1.045   .     S
H35    N67     1.045   .     S
H36    N62     1.045   .     S
H37    N63     1.045   .     S
H38    N63     1.045   .     S
H39    N64     1.045   .     S
H40    N64     1.045   .     S
H41    N65     1.045   .     S
H42    N65     1.045   .     S
H43    N66     1.045   .     S
H44    N66     1.045   .     S
H45    N68     1.045   .     S
H46    N67     1.045   .     S
H47    N68     1.045   .     S
H48    N69     1.045   .     S
H49    N69     1.045   .     S
H50    N70     1.045   .     S
H51    N70     1.045   .     S
H52    N71     1.045   .     S
H53    N71     1.045   .     S
H54    N72     1.045   .     S
H55    N72     1.045   .     S
H56    N73     1.045   .     S
H57    N78     1.045   .     S
H58    N73     1.041   .     S
H59    N74     1.045   .     S
H60    N74     1.045   .     S
H61    N75     1.045   .     S
H62    N75     1.045   .     S
H63    N76     1.045   .     S
H64    N76     1.045   .     S
H65    N77     1.045   .     S
H66    N77     1.045   .     S
H67    N79     1.045   .     S
H68    N78     1.045   .     S
H69    N79     1.046   .     S
H70    N80     1.045   .     S
H71    N80     1.045   .     S
H72    N81     1.045   .     S
H73    N81     1.045   .     S
H74    N82     1.045   .     S
H75    N82     1.045   .     S
H76    N83     1.045   .     S
H77    N83     1.041   .     S
H78    N84     1.045   .     S
H79    N89     1.045   .     S
H80    N84     1.045   .     S
H81    N85     1.045   .     S
H82    N85     1.045   .     S
H83    N86     1.045   .     S
H84    N86     1.046   .     S
H85    N87     1.045   .     S
H86    N87     1.045   .     S
H87    N88     1.045   .     S
H88    N88     1.045   .     S
H89    N90     1.045   .     S
H90    N89     1.045   .     S
H91    N90     1.045   .     S
H92    N91     1.045   .     S
H93    N91     1.045   .     S
H94    N92     1.045   .     S
H95    N92     1.045   .     S
H96    N93     1.045   .     S
H97    N93     1.045   .     S
H98    N94     1.045   .     S
H99    N94     1.045   .     S
H100   N95     1.045   .     S
H101   N2      1.045   .     S
H102   N95     1.045   .     S
H103   N96     1.045   .     S
H104   N96     1.045   .     S
H105   N1      1.045   .     S
H106   N2      1.045   .     S
H107   N3      1.045   .     S
H108   N3      1.041   .     S
H109   N4      1.045   .     S
H110   N4      1.045   .     S
H111   N5      1.045   .     S
H112   N5      1.045   .     S
H113   N6      1.045   .     S
H114   N6      1.045   .     S
H115   N7      1.045   .     S
H116   N12     1.045   .     S
H117   N7      1.045   .     S
H118   N8      1.045   .     S
H119   N8      1.046   .     S
H120   N9      1.045   .     S
H121   N9      1.045   .     S
H122   N10     1.045   .     S
H123   N10     1.045   .     S
H124   N11     1.045   .     S
H125   N11     1.045   .     S
H126   N13     1.045   .     S
H127   N12     1.045   .     S
H128   N13     1.045   .     S
H129   N14     1.045   .     S
H130   N14     1.045   .     S
H131   N15     1.045   .     S
H132   N15     1.045   .     S
H133   N16     1.045   .     S
H134   N16     1.045   .     S
H135   N17     1.045   .     S
H136   N17     1.045   .     S
H137   N18     1.045   .     S
H138   N23     1.045   .     S
H139   N18     1.045   .     S
H140   N19     1.045   .     S
H141   N19     1.045   .     S
H142   N20     1.045   .     S
H143   N20     1.045   .     S
H144   N21     1.046   .     S
H145   N21     1.044   .     S
H146   N22     1.045   .     S
H147   N22     1.045   .     S
H148   N24     1.045   .     S
H149   N23     1.045   .     S
H150   N24     1.045   .     S
H151   N25     1.046   .     S
H152   N25     1.046   .     S
H153   N26     1.045   .     S
H154   N26     1.045   .     S
H155   N27     1.045   .     S
H156   N27     1.045   .     S
H157   N28     1.045   .     S
H158   N28     1.045   .     S
H159   N29     1.045   .     S
H160   N34     1.045   .     S
H161   N29     1.045   .     S
H162   N30     1.045   .     S
H163   N30     1.045   .     S
H164   N31     1.045   .     S
H165   N31     1.045   .     S
H166   N32     1.045   .     S
H167   N32     1.045   .     S
H168   N33     1.045   .     S
H169   N33     1.045   .     S
H170   N35     1.045   .     S
H171   N34     1.045   .     S
H172   N35     1.045   .     S
H173   N36     1.045   .     S
H174   N36     1.045   .     S
H175   N37     1.045   .     S
H176   N37     1.045   .     S
H177   N38     1.045   .     S
H178   N38     1.045   .     S
H179   N39     1.045   .     S
H180   N39     1.045   .     S
H181   N40     1.045   .     S
H182   N45     1.045   .     S
H183   N40     1.045   .     S
H184   N41     1.045   .     S
H185   N41     1.045   .     S
H186   N42     1.045   .     S
H187   N42     1.045   .     S
H188   N43     1.045   .     S
H189   N43     1.045   .     S
H190   N44     1.045   .     S
H191   N44     1.045   .     S
H192   N46     1.045   .     S
O1     Zn1     1.950   .     S
O1     Zn22    1.950   .     S
O1     Zn17    1.950   .     S
O1     Zn5     1.950   .     S
O2     Zn24    1.938   .     S
O3     Zn1     1.939   .     S
O4     Zn29    1.939   .     S
O5     Zn28    1.939   .     S
O6     Zn23    1.939   .     S
O7     Zn27    1.939   .     S
O8     Zn25    1.939   .     S
O9     Zn26    1.939   .     S
O10    Zn18    1.938   .     S
O11    Zn19    1.938   .     S
O12    Zn20    1.939   .     S
O13    Zn21    1.939   .     S
O14    Zn21    1.938   .     S
O15    Zn20    1.938   .     S
O16    Zn19    1.939   .     S
O17    Zn16    1.950   .     S
O17    Zn24    1.950   .     S
O17    Zn6     1.950   .     S
O17    Zn12    1.950   .     S
O18    Zn18    1.939   .     S
O19    Zn26    1.938   .     S
O20    Zn25    1.938   .     S
O21    Zn24    1.939   .     S
O22    Zn22    1.939   .     S
O23    Zn25    1.939   .     S
O24    Zn26    1.939   .     S
O25    Zn19    1.939   .     S
O26    Zn18    1.939   .     S
O27    Zn24    1.939   .     S
O28    Zn23    1.950   .     S
O28    Zn25    1.950   .     S
O28    Zn3     1.950   .     S
O28    Zn11    1.950   .     S
O29    Zn22    1.939   .     S
O30    Zn20    1.939   .     S
O31    Zn21    1.939   .     S
O32    Zn13    1.938   .     S
O33    Zn11    1.938   .     S
O34    Zn7     1.939   .     S
O35    Zn8     1.939   .     S
O36    Zn14    1.938   .     S
O37    Zn15    1.938   .     S
O38    Zn6     1.939   .     S
O39    Zn13    1.950   .     S
O39    Zn26    1.950   .     S
O39    Zn27    1.950   .     S
O39    Zn4     1.950   .     S
O40    Zn5     1.939   .     S
O41    Zn9     1.938   .     S
O42    Zn10    1.938   .     S
O43    Zn3     1.939   .     S
O44    Zn4     1.939   .     S
O45    Zn17    1.938   .     S
O46    Zn16    1.938   .     S
O47    Zn2     1.939   .     S
O48    Zn32    1.939   .     S
O49    Zn27    1.939   .     S
O50    Zn28    1.950   .     S
O50    Zn8     1.950   .     S
O50    Zn18    1.950   .     S
O50    Zn9     1.950   .     S
O51    Zn23    1.939   .     S
O52    Zn16    1.939   .     S
O53    Zn17    1.939   .     S
O54    Zn28    1.939   .     S
O55    Zn29    1.939   .     S
O56    Zn15    1.939   .     S
O57    Zn14    1.939   .     S
O58    Zn1     1.939   .     S
O59    Zn12    1.939   .     S
O60    Zn11    1.939   .     S
O61    Zn19    1.950   .     S
O61    Zn10    1.950   .     S
O61    Zn7     1.950   .     S
O61    Zn29    1.950   .     S
O62    Zn13    1.939   .     S
O63    Zn31    1.939   .     S
O64    Zn30    1.939   .     S
O65    Zn10    1.939   .     S
O66    Zn9     1.939   .     S
O67    Zn4     1.939   .     S
O68    Zn3     1.939   .     S
O69    Zn30    1.938   .     S
O70    Zn31    1.938   .     S
O71    Zn5     1.939   .     S
O72    Zn30    1.950   .     S
O72    Zn15    1.950   .     S
O72    Zn20    1.950   .     S
O72    Zn2     1.950   .     S
O73    Zn6     1.939   .     S
O74    Zn29    1.938   .     S
O75    Zn28    1.938   .     S
O76    Zn32    1.939   .     S
O77    Zn2     1.939   .     S
O78    Zn23    1.938   .     S
O79    Zn27    1.938   .     S
O80    Zn8     1.939   .     S
O81    Zn7     1.939   .     S
O82    Zn12    1.938   .     S
O83    Zn32    1.950   .     S
O83    Zn21    1.950   .     S
O83    Zn31    1.950   .     S
O83    Zn14    1.950   .     S
O84    Zn1     1.938   .     S
O85    Zn32    1.938   .     S
O86    Zn2     1.938   .     S
O87    Zn16    1.939   .     S
O88    Zn17    1.939   .     S
O89    Zn4     1.938   .     S
O90    Zn3     1.938   .     S
O91    Zn10    1.939   .     S
O92    Zn9     1.939   .     S
O93    Zn5     1.938   .     S
O94    Zn22    1.938   .     S
O95    Zn6     1.938   .     S
O96    Zn15    1.939   .     S
O97    Zn14    1.939   .     S
O98    Zn8     1.938   .     S
O99    Zn7     1.938   .     S
O100   Zn11    1.939   .     S
O101   Zn13    1.939   .     S
O102   Zn30    1.939   .     S
O103   Zn31    1.939   .     S
O104   Zn12    1.939   .     S
