data_str_m1_o2_o5_pcu_sym.37
_audit_creation_date              2020-01-03
_audit_creation_method            'Materials Studio'
_symmetry_space_group_name_H-M    'P1'
_symmetry_Int_Tables_number       1
_symmetry_cell_setting            triclinic
loop_
_symmetry_equiv_pos_as_xyz
  x,y,z
_cell_length_a                    24.5064
_cell_length_b                    24.5063
_cell_length_c                    22.3903
_cell_angle_alpha                 89.9989
_cell_angle_beta                  90.0005
_cell_angle_gamma                 90.0326
loop_
_atom_site_label
_atom_site_type_symbol
_atom_site_fract_x
_atom_site_fract_y
_atom_site_fract_z
_atom_site_U_iso_or_equiv
_atom_site_adp_type
_atom_site_occupancy
C1     C     0.22888   0.27112   0.25000   0.00000  Uiso   1.00
C2     C     0.22871   0.72871   0.25000   0.00000  Uiso   1.00
C3     C     0.20154   0.63474   0.26763   0.00000  Uiso   1.00
C4     C     0.36041   0.19768   0.71897   0.00000  Uiso   1.00
C5     C     0.63505   0.79863   0.26875   0.00000  Uiso   1.00
C6     C     0.18368   0.65325   0.70077   0.00000  Uiso   1.00
C7     C     0.79842   0.36531   0.26742   0.00000  Uiso   1.00
C8     C     0.34669   0.81646   0.29931   0.00000  Uiso   1.00
C9     C     0.63443   0.20183   0.73378   0.00000  Uiso   1.00
C10    C     0.18278   0.34603   0.29982   0.00000  Uiso   1.00
C11    C     0.82344   0.65919   0.69712   0.00000  Uiso   1.00
C12    C     0.65319   0.18367   0.29922   0.00000  Uiso   1.00
C13    C     0.72918   0.77081   0.75000   0.00000  Uiso   1.00
C14    C     0.36564   0.79813   0.73405   0.00000  Uiso   1.00
C15    C     0.81727   0.65402   0.29986   0.00000  Uiso   1.00
C16    C     0.17659   0.34083   0.69714   0.00000  Uiso   1.00
C17    C     0.14779   0.35220   0.25000   0.00000  Uiso   1.00
C18    C     0.85254   0.64746   0.75000   0.00000  Uiso   1.00
C19    C     0.35218   0.85218   0.25000   0.00000  Uiso   1.00
C20    C     0.64770   0.14770   0.75000   0.00000  Uiso   1.00
C21    C     0.85221   0.64779   0.25000   0.00000  Uiso   1.00
C22    C     0.14746   0.35254   0.75000   0.00000  Uiso   1.00
C23    C     0.64783   0.14783   0.25000   0.00000  Uiso   1.00
C24    C     0.27124   0.22876   0.25000   0.00000  Uiso   1.00
C25    C     0.35230   0.85230   0.75000   0.00000  Uiso   1.00
C26    C     0.85215   0.35215   0.75000   0.00000  Uiso   1.00
C27    C     0.14771   0.64771   0.25000   0.00000  Uiso   1.00
C28    C     0.64799   0.85200   0.75000   0.00000  Uiso   1.00
C29    C     0.35225   0.14775   0.25000   0.00000  Uiso   1.00
C30    C     0.14786   0.64785   0.75000   0.00000  Uiso   1.00
C31    C     0.85230   0.35230   0.25000   0.00000  Uiso   1.00
C32    C     0.35200   0.14799   0.75000   0.00000  Uiso   1.00
C33    C     0.64775   0.85225   0.25000   0.00000  Uiso   1.00
C34    C     0.14686   0.35170   0.10657   0.00000  Uiso   1.00
C35    C     0.22897   0.72897   0.75000   0.00000  Uiso   1.00
C36    C     0.83846   0.63130   0.89114   0.00000  Uiso   1.00
C37    C     0.34988   0.85531   0.10679   0.00000  Uiso   1.00
C38    C     0.73067   0.07543   0.83823   0.00000  Uiso   1.00
C39    C     0.85299   0.64813   0.10658   0.00000  Uiso   1.00
C40    C     0.16144   0.36864   0.89114   0.00000  Uiso   1.00
C41    C     0.65054   0.14437   0.10678   0.00000  Uiso   1.00
C42    C     0.26900   0.92488   0.83758   0.00000  Uiso   1.00
C43    C     0.85479   0.35038   0.89312   0.00000  Uiso   1.00
C44    C     0.07720   0.72853   0.15814   0.00000  Uiso   1.00
C45    C     0.70588   0.90115   0.87176   0.00000  Uiso   1.00
C46    C     0.77130   0.27130   0.25000   0.00000  Uiso   1.00
C47    C     0.27268   0.07842   0.15581   0.00000  Uiso   1.00
C48    C     0.14468   0.65035   0.89317   0.00000  Uiso   1.00
C49    C     0.92305   0.27121   0.15863   0.00000  Uiso   1.00
C50    C     0.29403   0.09878   0.87170   0.00000  Uiso   1.00
C51    C     0.72717   0.92143   0.15554   0.00000  Uiso   1.00
C52    C     0.59880   0.79407   0.62827   0.00000  Uiso   1.00
C53    C     0.42158   0.22734   0.34417   0.00000  Uiso   1.00
C54    C     0.85039   0.35479   0.60688   0.00000  Uiso   1.00
C55    C     0.22853   0.57719   0.34185   0.00000  Uiso   1.00
C56    C     0.40118   0.20596   0.62828   0.00000  Uiso   1.00
C57    C     0.27082   0.22918   0.75000   0.00000  Uiso   1.00
C58    C     0.57859   0.77284   0.34448   0.00000  Uiso   1.00
C59    C     0.15034   0.64468   0.60684   0.00000  Uiso   1.00
C60    C     0.77120   0.42306   0.34136   0.00000  Uiso   1.00
C61    C     0.35530   0.84988   0.39321   0.00000  Uiso   1.00
C62    C     0.57542   0.23070   0.66178   0.00000  Uiso   1.00
C63    C     0.14829   0.35314   0.39343   0.00000  Uiso   1.00
C64    C     0.86871   0.66154   0.60887   0.00000  Uiso   1.00
C65    C     0.64437   0.15051   0.39320   0.00000  Uiso   1.00
C66    C     0.42488   0.76903   0.66240   0.00000  Uiso   1.00
C67    C     0.85188   0.64701   0.39343   0.00000  Uiso   1.00
C68    C     0.72877   0.77124   0.25001   0.00000  Uiso   1.00
C69    C     0.13136   0.33856   0.60886   0.00000  Uiso   1.00
C70    C     0.00000   0.50000   0.47329   0.00000  Uiso   1.00
C71    C    -0.00000   0.50000   0.52671   0.00000  Uiso   1.00
C72    C     0.50000  -0.00000   0.47329   0.00000  Uiso   1.00
C73    C     0.77159   0.72840   0.75000   0.00000  Uiso   1.00
C74    C     0.50000  -0.00000   0.52671   0.00000  Uiso   1.00
C75    C     0.50000  -0.00000   0.97329   0.00000  Uiso   1.00
C76    C     0.50000  -0.00000   0.02671   0.00000  Uiso   1.00
C77    C    -0.00000   0.50000   0.97329   0.00000  Uiso   1.00
C78    C    -0.00000   0.50000   0.02670   0.00000  Uiso   1.00
C79    C    -0.00000   0.50000   0.09006   0.00000  Uiso   1.00
C80    C    -0.00000   0.50000   0.90994   0.00000  Uiso   1.00
C81    C     0.50000  -0.00000   0.09006   0.00000  Uiso   1.00
C82    C     0.50000  -0.00000   0.90994   0.00000  Uiso   1.00
C83    C     0.50000  -0.00000   0.59006   0.00000  Uiso   1.00
C84    C     0.27107   0.77107   0.25000   0.00000  Uiso   1.00
C85    C     0.50000  -0.00000   0.40994   0.00000  Uiso   1.00
C86    C    -0.00000   0.50000   0.59006   0.00000  Uiso   1.00
C87    C     0.00000   0.50000   0.40994   0.00000  Uiso   1.00
C88    C     0.10523   0.60523   0.25000   0.00000  Uiso   1.00
C89    C     0.89472   0.39472   0.75000   0.00000  Uiso   1.00
C90    C     0.60525   0.89475   0.25000   0.00000  Uiso   1.00
C91    C     0.39466   0.10533   0.75000   0.00000  Uiso   1.00
C92    C     0.89477   0.39478   0.25000   0.00000  Uiso   1.00
C93    C     0.10528   0.60528   0.75000   0.00000  Uiso   1.00
C94    C     0.39476   0.10524   0.25000   0.00000  Uiso   1.00
C95    C     0.72870   0.22870   0.75000   0.00000  Uiso   1.00
C96    C     0.60533   0.89466   0.75000   0.00000  Uiso   1.00
C97    C     0.89486   0.60514   0.75000   0.00000  Uiso   1.00
C98    C     0.10526   0.39474   0.25000   0.00000  Uiso   1.00
C99    C     0.39478   0.89478   0.75000   0.00000  Uiso   1.00
C100   C     0.60527   0.10527   0.25000   0.00000  Uiso   1.00
C101   C     0.10514   0.39486   0.75000   0.00000  Uiso   1.00
C102   C     0.89474   0.60526   0.25000   0.00000  Uiso   1.00
C103   C     0.60522   0.10522   0.75000   0.00000  Uiso   1.00
C104   C     0.39473   0.89473   0.25000   0.00000  Uiso   1.00
C105   C     0.19360   0.27630   0.20124   0.00000  Uiso   1.00
C106   C     0.77113   0.72888   0.25001   0.00000  Uiso   1.00
C107   C     0.80106   0.71731   0.80218   0.00000  Uiso   1.00
C108   C     0.27557   0.80703   0.20177   0.00000  Uiso   1.00
C109   C     0.74209   0.17490   0.76462   0.00000  Uiso   1.00
C110   C     0.80636   0.72364   0.20121   0.00000  Uiso   1.00
C111   C     0.19891   0.28265   0.80217   0.00000  Uiso   1.00
C112   C     0.72455   0.19286   0.20186   0.00000  Uiso   1.00
C113   C     0.25787   0.82516   0.76435   0.00000  Uiso   1.00
C114   C     0.80695   0.27557   0.79826   0.00000  Uiso   1.00
C115   C     0.17516   0.74183   0.23401   0.00000  Uiso   1.00
C116   C     0.73826   0.82041   0.77916   0.00000  Uiso   1.00
C117   C     0.22841   0.27159   0.75000   0.00000  Uiso   1.00
C118   C     0.25832   0.17541   0.23299   0.00000  Uiso   1.00
C119   C     0.19287   0.72463   0.79811   0.00000  Uiso   1.00
C120   C     0.82489   0.25814   0.23421   0.00000  Uiso   1.00
C121   C     0.26172   0.17957   0.77913   0.00000  Uiso   1.00
C122   C     0.74166   0.82457   0.23288   0.00000  Uiso   1.00
C123   C     0.67958   0.76173   0.72085   0.00000  Uiso   1.00
C124   C     0.32459   0.24168   0.26701   0.00000  Uiso   1.00
C125   C     0.77557   0.30695   0.70174   0.00000  Uiso   1.00
C126   C     0.24183   0.67516   0.26599   0.00000  Uiso   1.00
C127   C     0.32043   0.23827   0.72087   0.00000  Uiso   1.00
C128   C     0.72894   0.22894   0.25000   0.00000  Uiso   1.00
C129   C     0.67545   0.75835   0.26714   0.00000  Uiso   1.00
C130   C     0.22464   0.69287   0.70189   0.00000  Uiso   1.00
C131   C     0.75814   0.32489   0.26579   0.00000  Uiso   1.00
C132   C     0.30703   0.77557   0.29824   0.00000  Uiso   1.00
C133   C     0.67491   0.24209   0.73538   0.00000  Uiso   1.00
C134   C     0.22369   0.30640   0.29876   0.00000  Uiso   1.00
C135   C     0.78268   0.69893   0.69782   0.00000  Uiso   1.00
C136   C     0.69286   0.22455   0.29814   0.00000  Uiso   1.00
C137   C     0.32516   0.75787   0.73564   0.00000  Uiso   1.00
C138   C     0.77637   0.69365   0.29881   0.00000  Uiso   1.00
C139   C     0.27132   0.77131   0.75000   0.00000  Uiso   1.00
C140   C     0.21735   0.30109   0.69783   0.00000  Uiso   1.00
C141   C     0.15397   0.31721   0.20018   0.00000  Uiso   1.00
C142   C     0.84080   0.67655   0.80288   0.00000  Uiso   1.00
C143   C     0.31646   0.84669   0.20069   0.00000  Uiso   1.00
C144   C     0.70183   0.13443   0.76622   0.00000  Uiso   1.00
C145   C     0.84599   0.68273   0.20015   0.00000  Uiso   1.00
C146   C     0.15917   0.32341   0.80287   0.00000  Uiso   1.00
C147   C     0.68367   0.15319   0.20078   0.00000  Uiso   1.00
C148   C     0.29813   0.86564   0.76595   0.00000  Uiso   1.00
C149   C     0.84656   0.31653   0.79938   0.00000  Uiso   1.00
C150   C     0.77105   0.27104   0.75000   0.00000  Uiso   1.00
C151   C     0.13474   0.70154   0.23237   0.00000  Uiso   1.00
C152   C     0.69767   0.86040   0.78105   0.00000  Uiso   1.00
C153   C     0.29861   0.13501   0.23138   0.00000  Uiso   1.00
C154   C     0.15326   0.68368   0.79923   0.00000  Uiso   1.00
C155   C     0.86531   0.29842   0.23258   0.00000  Uiso   1.00
C156   C     0.30232   0.13959   0.78102   0.00000  Uiso   1.00
C157   C     0.70137   0.86496   0.23127   0.00000  Uiso   1.00
C158   C     0.63959   0.80232   0.71896   0.00000  Uiso   1.00
C159   C     0.36499   0.20139   0.26862   0.00000  Uiso   1.00
C160   C     0.81653   0.34656   0.70062   0.00000  Uiso   1.00
H1     H     0.19749   0.24929   0.16317   0.00000  Uiso   1.00
H2     H     0.16451   0.78365   0.22356   0.00000  Uiso   1.00
H3     H     0.14594   0.61608   0.56873   0.00000  Uiso   1.00
H4     H     0.17197   0.68162   0.59018   0.00000  Uiso   1.00
H5     H     0.76618   0.46687   0.35253   0.00000  Uiso   1.00
H6     H     0.80452   0.40676   0.37014   0.00000  Uiso   1.00
H7     H     0.73200   0.40228   0.35171   0.00000  Uiso   1.00
H8     H     0.34451   0.89169   0.37770   0.00000  Uiso   1.00
H9     H     0.38392   0.85430   0.43130   0.00000  Uiso   1.00
H10    H     0.31835   0.82831   0.40991   0.00000  Uiso   1.00
H11    H     0.53151   0.23676   0.65192   0.00000  Uiso   1.00
H12    H     0.59053   0.19774   0.63178   0.00000  Uiso   1.00
H13    H     0.77719   0.82847   0.80034   0.00000  Uiso   1.00
H14    H     0.59661   0.26978   0.65187   0.00000  Uiso   1.00
H15    H     0.10673   0.34225   0.37719   0.00000  Uiso   1.00
H16    H     0.14328   0.38120   0.43192   0.00000  Uiso   1.00
H17    H     0.16990   0.31613   0.40983   0.00000  Uiso   1.00
H18    H     0.87805   0.63775   0.56797   0.00000  Uiso   1.00
H19    H     0.90808   0.66983   0.63201   0.00000  Uiso   1.00
H20    H     0.84928   0.70045   0.59460   0.00000  Uiso   1.00
H21    H     0.65523   0.10867   0.37787   0.00000  Uiso   1.00
H22    H     0.61566   0.14618   0.43122   0.00000  Uiso   1.00
H23    H     0.68126   0.17215   0.40994   0.00000  Uiso   1.00
H24    H     0.21664   0.16488   0.22171   0.00000  Uiso   1.00
H25    H     0.46882   0.76295   0.65273   0.00000  Uiso   1.00
H26    H     0.40985   0.80188   0.63220   0.00000  Uiso   1.00
H27    H     0.40374   0.72991   0.65258   0.00000  Uiso   1.00
H28    H     0.89342   0.65788   0.37712   0.00000  Uiso   1.00
H29    H     0.85694   0.61898   0.43194   0.00000  Uiso   1.00
H30    H     0.83029   0.68403   0.40982   0.00000  Uiso   1.00
H31    H     0.12207   0.36236   0.56795   0.00000  Uiso   1.00
H32    H     0.09196   0.33029   0.63196   0.00000  Uiso   1.00
H33    H     0.15077   0.29963   0.59460   0.00000  Uiso   1.00
H34    H     0.19615   0.75234   0.83566   0.00000  Uiso   1.00
H35    H     0.83556   0.21629   0.22392   0.00000  Uiso   1.00
H36    H     0.22279   0.17151   0.80029   0.00000  Uiso   1.00
H37    H     0.78332   0.83508   0.22150   0.00000  Uiso   1.00
H38    H     0.67152   0.72281   0.69967   0.00000  Uiso   1.00
H39    H     0.33512   0.28336   0.27830   0.00000  Uiso   1.00
H40    H     0.74801   0.30352   0.66406   0.00000  Uiso   1.00
H41    H     0.79259   0.73952   0.84298   0.00000  Uiso   1.00
H42    H     0.28365   0.66451   0.27644   0.00000  Uiso   1.00
H43    H     0.32849   0.27721   0.69971   0.00000  Uiso   1.00
H44    H     0.66493   0.71668   0.27853   0.00000  Uiso   1.00
H45    H     0.25234   0.69615   0.66434   0.00000  Uiso   1.00
H46    H     0.71629   0.33556   0.27608   0.00000  Uiso   1.00
H47    H     0.30364   0.74803   0.33592   0.00000  Uiso   1.00
H48    H     0.66416   0.28410   0.72603   0.00000  Uiso   1.00
H49    H     0.25071   0.30250   0.33684   0.00000  Uiso   1.00
H50    H     0.76047   0.70741   0.65702   0.00000  Uiso   1.00
H51    H     0.69615   0.25219   0.33575   0.00000  Uiso   1.00
H52    H     0.24803   0.80365   0.16408   0.00000  Uiso   1.00
H53    H     0.33594   0.71583   0.72651   0.00000  Uiso   1.00
H54    H     0.74940   0.69759   0.33692   0.00000  Uiso   1.00
H55    H     0.23958   0.29264   0.65705   0.00000  Uiso   1.00
H56    H     0.15775   0.39326   0.12280   0.00000  Uiso   1.00
H57    H     0.11879   0.35671   0.06808   0.00000  Uiso   1.00
H58    H     0.18386   0.33008   0.09016   0.00000  Uiso   1.00
H59    H     0.86225   0.62195   0.93203   0.00000  Uiso   1.00
H60    H     0.83014   0.59193   0.86800   0.00000  Uiso   1.00
H61    H     0.79956   0.65075   0.90543   0.00000  Uiso   1.00
H62    H     0.39169   0.84451   0.12230   0.00000  Uiso   1.00
H63    H     0.78410   0.16415   0.77397   0.00000  Uiso   1.00
H64    H     0.35430   0.88392   0.06870   0.00000  Uiso   1.00
H65    H     0.32831   0.81836   0.09009   0.00000  Uiso   1.00
H66    H     0.73673   0.03152   0.84811   0.00000  Uiso   1.00
H67    H     0.69770   0.09054   0.86822   0.00000  Uiso   1.00
H68    H     0.76975   0.09661   0.84815   0.00000  Uiso   1.00
H69    H     0.84211   0.60659   0.12289   0.00000  Uiso   1.00
H70    H     0.88101   0.64307   0.06806   0.00000  Uiso   1.00
H71    H     0.81596   0.66973   0.09019   0.00000  Uiso   1.00
H72    H     0.13764   0.37793   0.93205   0.00000  Uiso   1.00
H73    H     0.16970   0.40803   0.86804   0.00000  Uiso   1.00
H74    H     0.80242   0.75061   0.16310   0.00000  Uiso   1.00
H75    H     0.20036   0.34923   0.90541   0.00000  Uiso   1.00
H76    H     0.60870   0.15526   0.12211   0.00000  Uiso   1.00
H77    H     0.64620   0.11566   0.06877   0.00000  Uiso   1.00
H78    H     0.67220   0.18125   0.09004   0.00000  Uiso   1.00
H79    H     0.26293   0.96883   0.84725   0.00000  Uiso   1.00
H80    H     0.30183   0.90985   0.86780   0.00000  Uiso   1.00
H81    H     0.22987   0.90375   0.84738   0.00000  Uiso   1.00
H82    H     0.84415   0.39214   0.87734   0.00000  Uiso   1.00
H83    H     0.88321   0.35491   0.93137   0.00000  Uiso   1.00
H84    H     0.81771   0.32895   0.90970   0.00000  Uiso   1.00
H85    H     0.20736   0.26042   0.84296   0.00000  Uiso   1.00
H86    H     0.03341   0.73355   0.14682   0.00000  Uiso   1.00
H87    H     0.09354   0.69511   0.12955   0.00000  Uiso   1.00
H88    H     0.09803   0.76769   0.14769   0.00000  Uiso   1.00
H89    H     0.66611   0.88299   0.88544   0.00000  Uiso   1.00
H90    H     0.70943   0.94130   0.89427   0.00000  Uiso   1.00
H91    H     0.74026   0.87534   0.88760   0.00000  Uiso   1.00
H92    H     0.26766   0.03480   0.14377   0.00000  Uiso   1.00
H93    H     0.30663   0.09501   0.12811   0.00000  Uiso   1.00
H94    H     0.23378   0.09951   0.14491   0.00000  Uiso   1.00
H95    H     0.15553   0.60854   0.87771   0.00000  Uiso   1.00
H96    H     0.75219   0.19615   0.16425   0.00000  Uiso   1.00
H97    H     0.11608   0.64594   0.93126   0.00000  Uiso   1.00
H98    H     0.18160   0.67199   0.90983   0.00000  Uiso   1.00
H99    H     0.96687   0.26619   0.14746   0.00000  Uiso   1.00
H100   H     0.90675   0.30453   0.12986   0.00000  Uiso   1.00
H101   H     0.90228   0.23200   0.14828   0.00000  Uiso   1.00
H102   H     0.33377   0.11698   0.88545   0.00000  Uiso   1.00
H103   H     0.29049   0.05862   0.89419   0.00000  Uiso   1.00
H104   H     0.25961   0.12455   0.88752   0.00000  Uiso   1.00
H105   H     0.73217   0.96503   0.14340   0.00000  Uiso   1.00
H106   H     0.69316   0.90481   0.12795   0.00000  Uiso   1.00
H107   H     0.21583   0.83594   0.77348   0.00000  Uiso   1.00
H108   H     0.76603   0.90031   0.14459   0.00000  Uiso   1.00
H109   H     0.61699   0.83383   0.61455   0.00000  Uiso   1.00
H110   H     0.55865   0.79053   0.60578   0.00000  Uiso   1.00
H111   H     0.62459   0.75967   0.61244   0.00000  Uiso   1.00
H112   H     0.46521   0.23234   0.35622   0.00000  Uiso   1.00
H113   H     0.40498   0.19341   0.37189   0.00000  Uiso   1.00
H114   H     0.40052   0.26625   0.35505   0.00000  Uiso   1.00
H115   H     0.89215   0.34415   0.62266   0.00000  Uiso   1.00
H116   H     0.85492   0.38321   0.56863   0.00000  Uiso   1.00
H117   H     0.82896   0.31771   0.59031   0.00000  Uiso   1.00
H118   H     0.80352   0.24801   0.83593   0.00000  Uiso   1.00
H119   H     0.23355   0.53341   0.35317   0.00000  Uiso   1.00
H120   H     0.19510   0.59354   0.37044   0.00000  Uiso   1.00
H121   H     0.26769   0.59802   0.35231   0.00000  Uiso   1.00
H122   H     0.38296   0.16623   0.61454   0.00000  Uiso   1.00
H123   H     0.44134   0.20948   0.60578   0.00000  Uiso   1.00
H124   H     0.37543   0.24040   0.61247   0.00000  Uiso   1.00
H125   H     0.53498   0.76783   0.35661   0.00000  Uiso   1.00
H126   H     0.59520   0.80686   0.37206   0.00000  Uiso   1.00
H127   H     0.59970   0.73398   0.35544   0.00000  Uiso   1.00
H128   H     0.10853   0.65552   0.62230   0.00000  Uiso   1.00
O1     O    -0.00000   0.50000   0.25000   0.00000  Uiso   1.00
O2     O    -0.00000   0.45454   0.88202   0.00000  Uiso   1.00
O3     O     0.54546  -0.00000   0.11798   0.00000  Uiso   1.00
O4     O     0.45454  -0.00000   0.88202   0.00000  Uiso   1.00
O5     O     0.50000   0.95454   0.61798   0.00000  Uiso   1.00
O6     O     0.50000   0.04546   0.38202   0.00000  Uiso   1.00
O7     O     0.95454   0.50000   0.61798   0.00000  Uiso   1.00
O8     O     0.04546   0.50000   0.38202   0.00000  Uiso   1.00
O9     O     0.50000   0.04546   0.61798   0.00000  Uiso   1.00
O10    O     0.50000   0.95454   0.38202   0.00000  Uiso   1.00
O11    O     0.04546   0.50000   0.61798   0.00000  Uiso   1.00
O12    O    -0.00000   0.50000   0.75000   0.00000  Uiso   1.00
O13    O     0.95454   0.50000   0.38202   0.00000  Uiso   1.00
O14    O     0.06399   0.60947   0.21539   0.00000  Uiso   1.00
O15    O     0.93601   0.39053   0.78461   0.00000  Uiso   1.00
O16    O     0.60947   0.93601   0.21539   0.00000  Uiso   1.00
O17    O     0.39053   0.06399   0.78461   0.00000  Uiso   1.00
O18    O     0.93601   0.39053   0.21539   0.00000  Uiso   1.00
O19    O     0.06399   0.60947   0.78461   0.00000  Uiso   1.00
O20    O     0.39053   0.06399   0.21539   0.00000  Uiso   1.00
O21    O     0.60947   0.93601   0.78461   0.00000  Uiso   1.00
O22    O     0.93601   0.60947   0.78461   0.00000  Uiso   1.00
O23    O     0.50000  -0.00000   0.25000   0.00000  Uiso   1.00
O24    O     0.06399   0.39053   0.21539   0.00000  Uiso   1.00
O25    O     0.39053   0.93601   0.78461   0.00000  Uiso   1.00
O26    O     0.60947   0.06399   0.21539   0.00000  Uiso   1.00
O27    O     0.06399   0.39053   0.78461   0.00000  Uiso   1.00
O28    O     0.93601   0.60947   0.21539   0.00000  Uiso   1.00
O29    O     0.60947   0.06399   0.78461   0.00000  Uiso   1.00
O30    O     0.39053   0.93601   0.21539   0.00000  Uiso   1.00
O31    O     0.56399   0.10947   0.71539   0.00000  Uiso   1.00
O32    O     0.43601   0.89053   0.28461   0.00000  Uiso   1.00
O33    O     0.10947   0.43601   0.71539   0.00000  Uiso   1.00
O34    O     0.50000  -0.00000   0.75000   0.00000  Uiso   1.00
O35    O     0.89053   0.56399   0.28461   0.00000  Uiso   1.00
O36    O     0.43601   0.89053   0.71539   0.00000  Uiso   1.00
O37    O     0.56399   0.10947   0.28461   0.00000  Uiso   1.00
O38    O     0.89053   0.56399   0.71539   0.00000  Uiso   1.00
O39    O     0.10947   0.43601   0.28461   0.00000  Uiso   1.00
O40    O     0.43601   0.10947   0.28461   0.00000  Uiso   1.00
O41    O     0.56399   0.89053   0.71539   0.00000  Uiso   1.00
O42    O     0.89053   0.43601   0.28461   0.00000  Uiso   1.00
O43    O     0.10947   0.56399   0.71539   0.00000  Uiso   1.00
O44    O     0.56399   0.89053   0.28461   0.00000  Uiso   1.00
O45    O    -0.00000   0.45454   0.11798   0.00000  Uiso   1.00
O46    O     0.43601   0.10947   0.71539   0.00000  Uiso   1.00
O47    O     0.10947   0.56399   0.28461   0.00000  Uiso   1.00
O48    O     0.89053   0.43601   0.71539   0.00000  Uiso   1.00
O49    O     0.11990   0.32127   0.15115   0.00000  Uiso   1.00
O50    O     0.86950   0.66672   0.85495   0.00000  Uiso   1.00
O51    O     0.31977   0.88145   0.15218   0.00000  Uiso   1.00
O52    O     0.71624   0.08078   0.77751   0.00000  Uiso   1.00
O53    O     0.87999   0.67862   0.15108   0.00000  Uiso   1.00
O54    O     0.13044   0.33321   0.85492   0.00000  Uiso   1.00
O55    O     0.68048   0.11832   0.15236   0.00000  Uiso   1.00
O56    O    -0.00000   0.54546   0.88202   0.00000  Uiso   1.00
O57    O     0.28369   0.91933   0.77695   0.00000  Uiso   1.00
O58    O     0.88110   0.32003   0.84804   0.00000  Uiso   1.00
O59    O     0.08135   0.71576   0.21943   0.00000  Uiso   1.00
O60    O     0.70844   0.90939   0.80944   0.00000  Uiso   1.00
O61    O     0.28448   0.08181   0.21739   0.00000  Uiso   1.00
O62    O     0.11850   0.68038   0.84774   0.00000  Uiso   1.00
O63    O     0.91873   0.28418   0.21985   0.00000  Uiso   1.00
O64    O     0.29154   0.09057   0.80938   0.00000  Uiso   1.00
O65    O     0.71548   0.91814   0.21714   0.00000  Uiso   1.00
O66    O     0.59059   0.79155   0.69059   0.00000  Uiso   1.00
O67    O     0.45454  -0.00000   0.11798   0.00000  Uiso   1.00
O68    O     0.41819   0.21552   0.28261   0.00000  Uiso   1.00
O69    O     0.82004   0.38110   0.65195   0.00000  Uiso   1.00
O70    O     0.21576   0.58135   0.28057   0.00000  Uiso   1.00
O71    O     0.40941   0.20845   0.69060   0.00000  Uiso   1.00
O72    O     0.58187   0.78452   0.28287   0.00000  Uiso   1.00
O73    O     0.18038   0.61850   0.65226   0.00000  Uiso   1.00
O74    O     0.78418   0.41874   0.28015   0.00000  Uiso   1.00
O75    O     0.38144   0.81977   0.34782   0.00000  Uiso   1.00
O76    O     0.58078   0.21625   0.72250   0.00000  Uiso   1.00
O77    O     0.17873   0.38009   0.34885   0.00000  Uiso   1.00
O78    O     0.54546  -0.00000   0.88202   0.00000  Uiso   1.00
O79    O     0.83328   0.63050   0.64505   0.00000  Uiso   1.00
O80    O     0.61832   0.18048   0.34764   0.00000  Uiso   1.00
O81    O     0.41932   0.78369   0.72303   0.00000  Uiso   1.00
O82    O     0.82139   0.62001   0.34893   0.00000  Uiso   1.00
O83    O     0.16679   0.36956   0.64508   0.00000  Uiso   1.00
O84    O     0.00000   0.54546   0.11798   0.00000  Uiso   1.00
Zn1    Zn    0.06497   0.50000   0.29947   0.00000  Uiso   1.00
Zn2    Zn    0.43503  -0.00000   0.20053   0.00000  Uiso   1.00
Zn3    Zn   -0.00000   0.43503   0.79947   0.00000  Uiso   1.00
Zn4    Zn    0.00000   0.56497   0.20053   0.00000  Uiso   1.00
Zn5    Zn    0.43503  -0.00000   0.79947   0.00000  Uiso   1.00
Zn6    Zn    0.56497  -0.00000   0.20053   0.00000  Uiso   1.00
Zn7    Zn   -0.00000   0.56497   0.79947   0.00000  Uiso   1.00
Zn8    Zn   -0.00000   0.43503   0.20053   0.00000  Uiso   1.00
Zn9    Zn    0.93503   0.50000   0.70053   0.00000  Uiso   1.00
Zn10   Zn    0.50000   0.93503   0.29947   0.00000  Uiso   1.00
Zn11   Zn    0.50000   0.06497   0.70053   0.00000  Uiso   1.00
Zn12   Zn    0.93503   0.50000   0.29947   0.00000  Uiso   1.00
Zn13   Zn    0.06497   0.50000   0.70053   0.00000  Uiso   1.00
Zn14   Zn    0.50000   0.06497   0.29947   0.00000  Uiso   1.00
Zn15   Zn    0.50000   0.93503   0.70053   0.00000  Uiso   1.00
Zn16   Zn    0.56497  -0.00000   0.79947   0.00000  Uiso   1.00
loop_
_geom_bond_atom_site_label_1
_geom_bond_atom_site_label_2
_geom_bond_distance
_geom_bond_site_symmetry_2
_ccdc_geom_bond_type
C1     C24     1.469   .     S
C1     C105    1.398   .     A
C1     C134    1.398   .     A
C2     C84     1.468   .     S
C2     C115    1.398   .     A
C2     C126    1.398   .     A
C3     C126    1.399   .     A
C3     O70     1.385   .     S
C3     C27     1.413   .     A
C4     C32     1.417   .     A
C4     C127    1.397   .     A
C4     O71     1.384   .     S
C5     C33     1.414   .     A
C5     O72     1.385   .     S
C5     C129    1.399   .     A
C6     C30     1.415   .     A
C6     C130    1.396   .     A
C6     O73     1.382   .     S
C7     C131    1.399   .     A
C7     O74     1.385   .     S
C7     C31     1.413   .     A
C8     C19     1.415   .     A
C8     O75     1.383   .     S
C8     C132    1.396   .     A
C9     O76     1.385   .     S
C9     C133    1.399   .     A
C9     C20     1.413   .     A
C10    O77     1.383   .     S
C10    C17     1.415   .     A
C10    C134    1.396   .     A
C11    C18     1.412   .     A
C11    C135    1.396   .     A
C11    O79     1.383   .     S
C12    C23     1.415   .     A
C12    O80     1.383   .     S
C12    C136    1.396   .     A
C13    C73     1.470   .     S
C13    C123    1.398   .     A
C13    C116    1.397   .     A
C14    C137    1.399   .     A
C14    O81     1.385   .     S
C14    C25     1.413   .     A
C15    O82     1.383   .     S
C15    C138    1.396   .     A
C15    C21     1.415   .     A
C16    C140    1.396   .     A
C16    O83     1.383   .     S
C16    C22     1.412   .     A
C17    C98     1.475   .     S
C17    C141    1.415   .     A
C18    C97     1.467   .     S
C18    C142    1.412   .     A
C19    C104    1.474   .     S
C19    C143    1.415   .     A
C20    C144    1.413   .     A
C20    C103    1.472   .     S
C21    C102    1.474   .     S
C21    C145    1.415   .     A
C22    C146    1.412   .     A
C22    C101    1.467   .     S
C23    C147    1.415   .     A
C23    C100    1.475   .     S
C24    C124    1.398   .     A
C24    C118    1.398   .     A
C25    C99     1.472   .     S
C25    C148    1.413   .     A
C26    C149    1.415   .     A
C26    C160    1.415   .     A
C26    C89     1.475   .     S
C27    C151    1.413   .     A
C27    C88     1.472   .     S
C28    C96     1.479   .     S
C28    C158    1.417   .     A
C28    C152    1.417   .     A
C29    C94     1.473   .     S
C29    C159    1.414   .     A
C29    C153    1.414   .     A
C30    C154    1.415   .     A
C30    C93     1.475   .     S
C31    C155    1.413   .     A
C31    C92     1.472   .     S
C32    C156    1.417   .     A
C32    C91     1.479   .     S
C33    C157    1.414   .     A
C33    C90     1.474   .     S
C34    H57     1.109   .     S
C34    O49     1.410   .     S
C34    H56     1.114   .     S
C34    H58     1.113   .     S
C35    C139    1.467   .     S
C35    C130    1.398   .     A
C35    C119    1.398   .     A
C36    O50     1.410   .     S
C36    H59     1.109   .     S
C36    H61     1.113   .     S
C36    H60     1.114   .     S
C37    H65     1.113   .     S
C37    H62     1.114   .     S
C37    O51     1.410   .     S
C37    H64     1.109   .     S
C38    H66     1.109   .     S
C38    O52     1.411   .     S
C38    H67     1.114   .     S
C38    H68     1.112   .     S
C39    H69     1.114   .     S
C39    H70     1.109   .     S
C39    O53     1.410   .     S
C39    H71     1.113   .     S
C40    H72     1.109   .     S
C40    H73     1.114   .     S
C40    H75     1.113   .     S
C40    O54     1.410   .     S
C41    H78     1.113   .     S
C41    H77     1.109   .     S
C41    H76     1.114   .     S
C41    O55     1.410   .     S
C42    H80     1.114   .     S
C42    H81     1.111   .     S
C42    O57     1.411   .     S
C42    H79     1.109   .     S
C43    H84     1.113   .     S
C43    H82     1.114   .     S
C43    H83     1.109   .     S
C43    O58     1.410   .     S
C44    O59     1.411   .     S
C44    H87     1.114   .     S
C44    H88     1.112   .     S
C44    H86     1.109   .     S
C45    H89     1.114   .     S
C45    H91     1.112   .     S
C45    O60     1.411   .     S
C45    H90     1.109   .     S
C46    C120    1.398   .     A
C46    C128    1.468   .     S
C46    C131    1.398   .     A
C47    H94     1.112   .     S
C47    O61     1.411   .     S
C47    H93     1.114   .     S
C47    H92     1.109   .     S
C48    H98     1.113   .     S
C48    H95     1.114   .     S
C48    H97     1.109   .     S
C48    O62     1.410   .     S
C49    O63     1.411   .     S
C49    H100    1.114   .     S
C49    H99     1.109   .     S
C49    H101    1.112   .     S
C50    H104    1.112   .     S
C50    H103    1.109   .     S
C50    O64     1.411   .     S
C50    H102    1.114   .     S
C51    H105    1.109   .     S
C51    O65     1.411   .     S
C51    H108    1.112   .     S
C51    H106    1.114   .     S
C52    H110    1.109   .     S
C52    O66     1.411   .     S
C52    H109    1.114   .     S
C52    H111    1.112   .     S
C53    H114    1.112   .     S
C53    H112    1.109   .     S
C53    H113    1.114   .     S
C53    O68     1.411   .     S
C54    H116    1.109   .     S
C54    H117    1.113   .     S
C54    H115    1.114   .     S
C54    O69     1.410   .     S
C55    H119    1.109   .     S
C55    O70     1.411   .     S
C55    H121    1.112   .     S
C55    H120    1.114   .     S
C56    H123    1.109   .     S
C56    H122    1.114   .     S
C56    H124    1.112   .     S
C56    O71     1.411   .     S
C57    C127    1.398   .     A
C57    C117    1.470   .     S
C57    C121    1.398   .     A
C58    H126    1.114   .     S
C58    O72     1.411   .     S
C58    H127    1.112   .     S
C58    H125    1.109   .     S
C59    H4      1.113   .     S
C59    H3      1.109   .     S
C59    H128    1.114   .     S
C59    O73     1.410   .     S
C60    H5      1.109   .     S
C60    H7      1.112   .     S
C60    H6      1.114   .     S
C60    O74     1.411   .     S
C61    H9      1.109   .     S
C61    H8      1.114   .     S
C61    O75     1.410   .     S
C61    H10     1.113   .     S
C62    H11     1.109   .     S
C62    O76     1.411   .     S
C62    H14     1.112   .     S
C62    H12     1.114   .     S
C63    O77     1.410   .     S
C63    H16     1.109   .     S
C63    H15     1.114   .     S
C63    H17     1.113   .     S
C64    O79     1.410   .     S
C64    H19     1.114   .     S
C64    H18     1.110   .     S
C64    H20     1.113   .     S
C65    O80     1.410   .     S
C65    H22     1.109   .     S
C65    H23     1.113   .     S
C65    H21     1.114   .     S
C66    H26     1.114   .     S
C66    H27     1.111   .     S
C66    H25     1.109   .     S
C66    O81     1.411   .     S
C67    H30     1.113   .     S
C67    H28     1.114   .     S
C67    O82     1.410   .     S
C67    H29     1.109   .     S
C68    C122    1.398   .     A
C68    C129    1.398   .     A
C68    C106    1.469   .     S
C69    H31     1.109   .     S
C69    H33     1.113   .     S
C69    H32     1.114   .     S
C69    O83     1.410   .     S
C70    C87     1.418   .     S
C70    C71     1.196   .     S
C71    C86     1.418   .     S
C72    C85     1.418   .     S
C72    C74     1.196   .     S
C73    C135    1.400   .     A
C73    C107    1.400   .     A
C74    C83     1.418   .     S
C75    C82     1.418   .     S
C75    C76     1.196   1_556 S
C76    C81     1.418   .     S
C76    C75     1.196   1_554 S
C77    C80     1.418   .     S
C77    C78     1.196   1_556 S
C78    C79     1.418   .     S
C78    C77     1.196   1_554 S
C79    O45     1.277   .     A
C79    O84     1.277   .     S
C80    O2      1.277   .     A
C80    O56     1.277   .     A
C81    O3      1.277   .     S
C81    O67     1.277   .     S
C82    O4      1.277   .     S
C82    O78     1.277   .     S
C83    O9      1.277   .     A
C83    O5      1.277   1_545 S
C84    C132    1.398   .     A
C84    C108    1.398   .     A
C85    O10     1.277   1_545 A
C85    O6      1.277   .     S
C86    O7      1.277   1_455 A
C86    O11     1.277   .     S
C87    O8      1.277   .     A
C87    O13     1.277   1_455 S
C88    O14     1.278   .     A
C88    O47     1.278   .     A
C89    O15     1.279   .     A
C89    O48     1.279   .     A
C90    O16     1.278   .     A
C90    O44     1.278   .     A
C91    O46     1.280   .     A
C91    O17     1.280   .     A
C92    O18     1.278   .     A
C92    O42     1.278   .     A
C93    O19     1.279   .     A
C93    O43     1.279   .     A
C94    O20     1.278   .     A
C94    O40     1.278   .     A
C95    C109    1.398   .     A
C95    C133    1.398   .     A
C95    C150    1.467   .     S
C96    O21     1.280   .     A
C96    O41     1.280   .     A
C97    O22     1.276   .     A
C97    O38     1.276   .     A
C98    O39     1.278   .     A
C98    O24     1.278   .     A
C99    O36     1.278   .     A
C99    O25     1.278   .     A
C100   O37     1.279   .     A
C100   O26     1.279   .     A
C101   O27     1.276   .     A
C101   O33     1.276   .     A
C102   O28     1.278   .     A
C102   O35     1.278   .     A
C103   O31     1.278   .     A
C103   O29     1.278   .     A
C104   O30     1.278   .     A
C104   O32     1.278   .     A
C105   H1      1.084   .     S
C105   C141    1.396   .     A
C106   C138    1.398   .     A
C106   C110    1.398   .     A
C107   H41     1.083   .     S
C107   C142    1.396   .     A
C108   H52     1.084   .     S
C108   C143    1.396   .     A
C109   C144    1.399   .     A
C109   H63     1.083   .     S
C110   C145    1.396   .     A
C110   H74     1.084   .     S
C111   C146    1.396   .     A
C111   C117    1.400   .     A
C111   H85     1.083   .     S
C112   H96     1.084   .     S
C112   C147    1.396   .     A
C112   C128    1.398   .     A
C113   H107    1.083   .     S
C113   C139    1.398   .     A
C113   C148    1.399   .     A
C114   C150    1.398   .     A
C114   C149    1.396   .     A
C114   H118    1.084   .     S
C115   C151    1.399   .     A
C115   H2      1.083   .     S
C116   H13     1.083   .     S
C116   C152    1.397   .     A
C117   C140    1.400   .     A
C118   C153    1.399   .     A
C118   H24     1.083   .     S
C119   C154    1.396   .     A
C119   H34     1.084   .     S
C120   C155    1.399   .     A
C120   H35     1.083   .     S
C121   C156    1.397   .     A
C121   H36     1.083   .     S
C122   C157    1.399   .     A
C122   H37     1.083   .     S
C123   H38     1.083   .     S
C123   C158    1.397   .     A
C124   H39     1.083   .     S
C124   C159    1.399   .     A
C125   H40     1.084   .     S
C125   C150    1.398   .     A
C125   C160    1.396   .     A
C126   H42     1.083   .     S
C127   H43     1.083   .     S
C128   C136    1.398   .     A
C129   H44     1.083   .     S
C130   H45     1.084   .     S
C131   H46     1.083   .     S
C132   H47     1.084   .     S
C133   H48     1.083   .     S
C134   H49     1.084   .     S
C135   H50     1.083   .     S
C136   H51     1.084   .     S
C137   C139    1.398   .     A
C137   H53     1.083   .     S
C138   H54     1.084   .     S
C140   H55     1.083   .     S
C141   O49     1.383   .     S
C142   O50     1.383   .     S
C143   O51     1.383   .     S
C144   O52     1.385   .     S
C145   O53     1.383   .     S
C146   O54     1.383   .     S
C147   O55     1.383   .     S
C148   O57     1.385   .     S
C149   O58     1.382   .     S
C151   O59     1.385   .     S
C152   O60     1.384   .     S
C153   O61     1.385   .     S
C154   O62     1.382   .     S
C155   O63     1.385   .     S
C156   O64     1.384   .     S
C157   O65     1.385   .     S
C158   O66     1.384   .     S
C159   O68     1.385   .     S
C160   O69     1.382   .     S
O1     Zn8     1.940   .     S
O1     Zn12    1.940   1_455 S
O1     Zn1     1.940   .     S
O1     Zn4     1.940   .     S
O2     Zn3     1.909   .     S
O3     Zn6     1.909   .     S
O4     Zn5     1.909   .     S
O5     Zn15    1.909   .     S
O5     C83     1.277   1_565 S
O6     Zn14    1.909   .     S
O7     C86     1.277   1_655 A
O7     Zn9     1.909   .     S
O8     Zn1     1.909   .     S
O9     Zn11    1.909   .     S
O10    Zn10    1.909   .     S
O10    C85     1.277   1_565 A
O11    Zn13    1.909   .     S
O12    Zn3     1.940   .     S
O12    Zn7     1.940   .     S
O12    Zn9     1.940   1_455 S
O12    Zn13    1.940   .     S
O13    Zn12    1.909   .     S
O13    C87     1.277   1_655 S
O14    Zn4     1.938   .     S
O15    Zn3     1.938   1_655 S
O16    Zn6     1.939   1_565 S
O17    Zn5     1.939   .     S
O18    Zn8     1.938   1_655 S
O19    Zn7     1.938   .     S
O20    Zn2     1.939   .     S
O21    Zn16    1.939   1_565 S
O22    Zn7     1.939   1_655 S
O23    Zn14    1.940   .     S
O23    Zn2     1.940   .     S
O23    Zn6     1.940   .     S
O23    Zn10    1.940   1_545 S
O24    Zn8     1.939   .     S
O25    Zn5     1.938   1_565 S
O26    Zn6     1.938   .     S
O27    Zn3     1.939   .     S
O28    Zn4     1.939   1_655 S
O29    Zn16    1.938   .     S
O30    Zn2     1.938   1_565 S
O31    Zn11    1.938   .     S
O32    Zn10    1.938   .     S
O33    Zn13    1.939   .     S
O34    Zn15    1.940   1_545 S
O34    Zn5     1.940   .     S
O34    Zn11    1.940   .     S
O34    Zn16    1.940   .     S
O35    Zn12    1.939   .     S
O36    Zn15    1.938   .     S
O37    Zn14    1.938   .     S
O38    Zn9     1.939   .     S
O39    Zn1     1.939   .     S
O40    Zn14    1.939   .     S
O41    Zn15    1.939   .     S
O42    Zn12    1.938   .     S
O43    Zn13    1.938   .     S
O44    Zn10    1.939   .     S
O45    Zn8     1.909   .     S
O46    Zn11    1.939   .     S
O47    Zn1     1.938   .     S
O48    Zn9     1.938   .     S
O56    Zn7     1.909   .     S
O67    Zn2     1.909   .     S
O78    Zn16    1.909   .     S
O84    Zn4     1.909   .     S
Zn2    O30     1.938   1_545 S
Zn3    O15     1.938   1_455 S
Zn4    O28     1.939   1_455 S
Zn5    O25     1.938   1_545 S
Zn6    O16     1.939   1_545 S
Zn7    O22     1.939   1_455 S
Zn8    O18     1.938   1_455 S
Zn9    O12     1.940   1_655 S
Zn10   O23     1.940   1_565 S
Zn12   O1      1.940   1_655 S
Zn15   O34     1.940   1_565 S
Zn16   O21     1.939   1_545 S
