data_str_m1_o5_o17_pcu_sym.90
_audit_creation_date              2020-01-03
_audit_creation_method            'Materials Studio'
_symmetry_space_group_name_H-M    'P1'
_symmetry_Int_Tables_number       1
_symmetry_cell_setting            triclinic
loop_
_symmetry_equiv_pos_as_xyz
  x,y,z
_cell_length_a                    31.7945
_cell_length_b                    31.7945
_cell_length_c                    34.4846
_cell_angle_alpha                 90.0000
_cell_angle_beta                  90.0000
_cell_angle_gamma                 89.9298
loop_
_atom_site_label
_atom_site_type_symbol
_atom_site_fract_x
_atom_site_fract_y
_atom_site_fract_z
_atom_site_U_iso_or_equiv
_atom_site_adp_type
_atom_site_occupancy
C1     C     0.25000  -0.00000   0.35594   0.00000  Uiso   1.00
C2     C     0.33002   0.41998   0.75000   0.00000  Uiso   1.00
C3     C     0.43560   0.20865   0.02018   0.00000  Uiso   1.00
C4     C     0.31228   0.04450   0.97985   0.00000  Uiso   1.00
C5     C     0.18772   0.45550   0.02015   0.00000  Uiso   1.00
C6     C     0.43560   0.20865   0.97982   0.00000  Uiso   1.00
C7     C     0.06440   0.29135   0.02018   0.00000  Uiso   1.00
C8     C     0.00790   0.34673   0.39039   0.00000  Uiso   1.00
C9     C     0.02923   0.38484   0.37256   0.00000  Uiso   1.00
C10    C     0.49210   0.15327   0.60961   0.00000  Uiso   1.00
C11    C     0.47078   0.11516   0.62744   0.00000  Uiso   1.00
C12    C     0.16312   0.45634   0.39038   0.00000  Uiso   1.00
C13    C     0.41997   0.16997   0.25000   0.00000  Uiso   1.00
C14    C     0.13843   0.42464   0.36654   0.00000  Uiso   1.00
C15    C     0.33688   0.04366   0.60962   0.00000  Uiso   1.00
C16    C     0.36157   0.07536   0.63346   0.00000  Uiso   1.00
C17    C     0.49210   0.15327   0.39039   0.00000  Uiso   1.00
C18    C     0.47077   0.11516   0.37256   0.00000  Uiso   1.00
C19    C     0.00790   0.34673   0.60961   0.00000  Uiso   1.00
C20    C     0.02922   0.38484   0.62744   0.00000  Uiso   1.00
C21    C     0.33688   0.04366   0.39038   0.00000  Uiso   1.00
C22    C     0.36157   0.07536   0.36654   0.00000  Uiso   1.00
C23    C     0.16312   0.45634   0.60962   0.00000  Uiso   1.00
C24    C     0.08003   0.33003   0.75000   0.00000  Uiso   1.00
C25    C     0.13843   0.42463   0.63346   0.00000  Uiso   1.00
C26    C     0.29366   0.08688   0.89038   0.00000  Uiso   1.00
C27    C     0.32536   0.11157   0.86654   0.00000  Uiso   1.00
C28    C     0.20634   0.41312   0.10962   0.00000  Uiso   1.00
C29    C     0.17464   0.38843   0.13346   0.00000  Uiso   1.00
C30    C     0.40327   0.24210   0.89039   0.00000  Uiso   1.00
C31    C     0.36516   0.22078   0.87256   0.00000  Uiso   1.00
C32    C     0.09673   0.25790   0.10961   0.00000  Uiso   1.00
C33    C     0.13484   0.27923   0.12744   0.00000  Uiso   1.00
C34    C     0.20634   0.41312   0.89038   0.00000  Uiso   1.00
C35    C     0.33002   0.41998   0.25000   0.00000  Uiso   1.00
C36    C     0.17464   0.38843   0.86654   0.00000  Uiso   1.00
C37    C     0.29366   0.08688   0.10962   0.00000  Uiso   1.00
C38    C     0.32537   0.11156   0.13346   0.00000  Uiso   1.00
C39    C     0.09673   0.25790   0.89039   0.00000  Uiso   1.00
C40    C     0.13484   0.27922   0.87256   0.00000  Uiso   1.00
C41    C     0.40327   0.24210   0.10961   0.00000  Uiso   1.00
C42    C     0.36516   0.22078   0.12744   0.00000  Uiso   1.00
C43    C     0.16998   0.08002   0.75000   0.00000  Uiso   1.00
C44    C     0.08003   0.33003   0.25000   0.00000  Uiso   1.00
C45    C     0.41997   0.16997   0.75000   0.00000  Uiso   1.00
C46    C     0.16998   0.41998   0.75000   0.00000  Uiso   1.00
C47    C     0.33002   0.08002   0.25000   0.00000  Uiso   1.00
C48    C     0.41998   0.33002   0.75000   0.00000  Uiso   1.00
C49    C     0.25000  -0.00000   0.64406   0.00000  Uiso   1.00
C50    C     0.08002   0.16998   0.25000   0.00000  Uiso   1.00
C51    C     0.33002   0.08002   0.75000   0.00000  Uiso   1.00
C52    C     0.16998   0.41998   0.25000   0.00000  Uiso   1.00
C53    C     0.08002   0.16998   0.75000   0.00000  Uiso   1.00
C54    C     0.41998   0.33002   0.25000   0.00000  Uiso   1.00
C55    C     0.13833   0.38833   0.25000   0.00000  Uiso   1.00
C56    C     0.36167   0.11167   0.75000   0.00000  Uiso   1.00
C57    C     0.11167   0.13833   0.25000   0.00000  Uiso   1.00
C58    C     0.38833   0.36167   0.75000   0.00000  Uiso   1.00
C59    C     0.36167   0.11167   0.25000   0.00000  Uiso   1.00
C60    C     0.00000   0.25000   0.35590   0.00000  Uiso   1.00
C61    C     0.13833   0.38833   0.75000   0.00000  Uiso   1.00
C62    C     0.38833   0.36167   0.25000   0.00000  Uiso   1.00
C63    C     0.11167   0.13833   0.75000   0.00000  Uiso   1.00
C64    C     0.13833   0.11167   0.75000   0.00000  Uiso   1.00
C65    C     0.36167   0.38833   0.25000   0.00000  Uiso   1.00
C66    C     0.11168   0.36168   0.75000   0.00000  Uiso   1.00
C67    C     0.38832   0.13832   0.25000   0.00000  Uiso   1.00
C68    C     0.36167   0.38833   0.75000   0.00000  Uiso   1.00
C69    C     0.13833   0.11167   0.25000   0.00000  Uiso   1.00
C70    C     0.38832   0.13832   0.75000   0.00000  Uiso   1.00
C71    C     0.00000   0.25000   0.64410   0.00000  Uiso   1.00
C72    C     0.11168   0.36168   0.25000   0.00000  Uiso   1.00
C73    C     0.01955   0.28311   0.41836   0.00000  Uiso   1.00
C74    C     0.48045   0.21689   0.58164   0.00000  Uiso   1.00
C75    C     0.22637   0.46960   0.41854   0.00000  Uiso   1.00
C76    C     0.27363   0.03040   0.58146   0.00000  Uiso   1.00
C77    C     0.48045   0.21689   0.41836   0.00000  Uiso   1.00
C78    C     0.01955   0.28311   0.58164   0.00000  Uiso   1.00
C79    C     0.27363   0.03040   0.41854   0.00000  Uiso   1.00
C80    C     0.22637   0.46960   0.58146   0.00000  Uiso   1.00
C81    C     0.28040   0.02363   0.91853   0.00000  Uiso   1.00
C82    C     0.00000   0.25000   0.85590   0.00000  Uiso   1.00
C83    C     0.21960   0.47637   0.08146   0.00000  Uiso   1.00
C84    C     0.46689   0.23045   0.91836   0.00000  Uiso   1.00
C85    C     0.03311   0.26955   0.08164   0.00000  Uiso   1.00
C86    C     0.21960   0.47637   0.91853   0.00000  Uiso   1.00
C87    C     0.28040   0.02363   0.08146   0.00000  Uiso   1.00
C88    C     0.03311   0.26955   0.91836   0.00000  Uiso   1.00
C89    C     0.46689   0.23045   0.08164   0.00000  Uiso   1.00
C90    C     0.00000   0.25000   0.39822   0.00000  Uiso   1.00
C91    C     0.00000   0.25000   0.60179   0.00000  Uiso   1.00
C92    C     0.25000  -0.00000   0.39832   0.00000  Uiso   1.00
C93    C     0.00000   0.25000   0.14410   0.00000  Uiso   1.00
C94    C     0.25000  -0.00000   0.60168   0.00000  Uiso   1.00
C95    C     0.25000   0.00000   0.89832   0.00000  Uiso   1.00
C96    C     0.25000   0.00000   0.10168   0.00000  Uiso   1.00
C97    C     0.00000   0.25000   0.89821   0.00000  Uiso   1.00
C98    C     0.00000   0.25000   0.10179   0.00000  Uiso   1.00
C99    C     0.47943   0.21740   0.45911   0.00000  Uiso   1.00
C100   C     0.02057   0.28260   0.54089   0.00000  Uiso   1.00
C101   C     0.27271   0.03115   0.45919   0.00000  Uiso   1.00
C102   C     0.22729   0.46885   0.54081   0.00000  Uiso   1.00
C103   C     0.02057   0.28260   0.45911   0.00000  Uiso   1.00
C104   C     0.25000  -0.00000   0.85594   0.00000  Uiso   1.00
C105   C     0.47943   0.21740   0.54089   0.00000  Uiso   1.00
C106   C     0.22729   0.46885   0.45919   0.00000  Uiso   1.00
C107   C     0.27271   0.03115   0.54081   0.00000  Uiso   1.00
C108   C     0.21885   0.47729   0.95919   0.00000  Uiso   1.00
C109   C     0.28115   0.02271   0.04081   0.00000  Uiso   1.00
C110   C     0.03260   0.27057   0.95911   0.00000  Uiso   1.00
C111   C     0.46740   0.22943   0.04089   0.00000  Uiso   1.00
C112   C     0.28115   0.02271   0.95919   0.00000  Uiso   1.00
C113   C     0.21885   0.47729   0.04081   0.00000  Uiso   1.00
C114   C     0.46740   0.22943   0.95911   0.00000  Uiso   1.00
C115   C     0.25000  -0.00000   0.14406   0.00000  Uiso   1.00
C116   C     0.03260   0.27057   0.04089   0.00000  Uiso   1.00
C117   C     0.00000   0.25000   0.47952   0.00000  Uiso   1.00
C118   C     0.00000   0.25000   0.52048   0.00000  Uiso   1.00
C119   C     0.25000  -0.00000   0.47956   0.00000  Uiso   1.00
C120   C     0.25000  -0.00000   0.52044   0.00000  Uiso   1.00
C121   C     0.25000   0.00000   0.97956   0.00000  Uiso   1.00
C122   C     0.25000   0.00000   0.02044   0.00000  Uiso   1.00
C123   C     0.00000   0.25000   0.97952   0.00000  Uiso   1.00
C124   C     0.00000   0.25000   0.02048   0.00000  Uiso   1.00
C125   C     0.45865   0.18560   0.47982   0.00000  Uiso   1.00
C126   C     0.16998   0.08002   0.25000   0.00000  Uiso   1.00
C127   C     0.04135   0.31440   0.52018   0.00000  Uiso   1.00
C128   C     0.29450   0.06228   0.47985   0.00000  Uiso   1.00
C129   C     0.20550   0.43772   0.52015   0.00000  Uiso   1.00
C130   C     0.04135   0.31440   0.47982   0.00000  Uiso   1.00
C131   C     0.45865   0.18560   0.52018   0.00000  Uiso   1.00
C132   C     0.20550   0.43772   0.47985   0.00000  Uiso   1.00
C133   C     0.29450   0.06228   0.52015   0.00000  Uiso   1.00
C134   C     0.18772   0.45550   0.97985   0.00000  Uiso   1.00
C135   C     0.31228   0.04450   0.02015   0.00000  Uiso   1.00
C136   C     0.06440   0.29135   0.97982   0.00000  Uiso   1.00
H137   H     0.44239   0.16042   0.46491   0.00000  Uiso   1.00
H138   H     0.33675   0.06183   0.03503   0.00000  Uiso   1.00
H139   H     0.08958   0.30761   0.96491   0.00000  Uiso   1.00
H140   H     0.41042   0.19239   0.03509   0.00000  Uiso   1.00
H141   H     0.33675   0.06183   0.96497   0.00000  Uiso   1.00
H142   H     0.16325   0.43817   0.03503   0.00000  Uiso   1.00
H143   H     0.41042   0.19239   0.96491   0.00000  Uiso   1.00
H144   H     0.08958   0.30761   0.03509   0.00000  Uiso   1.00
H145   H     0.49175   0.35713   0.41746   0.00000  Uiso   1.00
H146   H     0.48401   0.33489   0.36950   0.00000  Uiso   1.00
H147   H     0.04647   0.37557   0.34587   0.00000  Uiso   1.00
H148   H     0.05761   0.33958   0.53509   0.00000  Uiso   1.00
H149   H     0.00529   0.40893   0.36498   0.00000  Uiso   1.00
H150   H     0.05162   0.39859   0.39374   0.00000  Uiso   1.00
H151   H     0.01600   0.16511   0.63050   0.00000  Uiso   1.00
H152   H     0.00825   0.14287   0.58254   0.00000  Uiso   1.00
H153   H     0.44838   0.10141   0.60626   0.00000  Uiso   1.00
H154   H     0.49471   0.09107   0.63502   0.00000  Uiso   1.00
H155   H     0.45353   0.12443   0.65413   0.00000  Uiso   1.00
H156   H     0.16526   0.48602   0.37332   0.00000  Uiso   1.00
H157   H     0.14551   0.46258   0.41772   0.00000  Uiso   1.00
H158   H     0.13340   0.39545   0.38360   0.00000  Uiso   1.00
H159   H     0.31183   0.08675   0.46497   0.00000  Uiso   1.00
H160   H     0.10749   0.43822   0.35842   0.00000  Uiso   1.00
H161   H     0.15592   0.41677   0.33967   0.00000  Uiso   1.00
H162   H     0.35449   0.03742   0.58228   0.00000  Uiso   1.00
H163   H     0.33474   0.01398   0.62668   0.00000  Uiso   1.00
H164   H     0.34408   0.08323   0.66033   0.00000  Uiso   1.00
H165   H     0.39251   0.06178   0.64158   0.00000  Uiso   1.00
H166   H     0.36660   0.10455   0.61640   0.00000  Uiso   1.00
H167   H     0.00825   0.14287   0.41746   0.00000  Uiso   1.00
H168   H     0.01599   0.16511   0.36950   0.00000  Uiso   1.00
H169   H     0.45353   0.12443   0.34587   0.00000  Uiso   1.00
H170   H     0.18817   0.41325   0.53503   0.00000  Uiso   1.00
H171   H     0.49471   0.09107   0.36498   0.00000  Uiso   1.00
H172   H     0.44838   0.10141   0.39374   0.00000  Uiso   1.00
H173   H     0.48400   0.33489   0.63050   0.00000  Uiso   1.00
H174   H     0.49175   0.35713   0.58254   0.00000  Uiso   1.00
H175   H     0.05162   0.39859   0.60626   0.00000  Uiso   1.00
H176   H     0.00528   0.40893   0.63502   0.00000  Uiso   1.00
H177   H     0.04647   0.37557   0.65413   0.00000  Uiso   1.00
H178   H     0.33474   0.01398   0.37332   0.00000  Uiso   1.00
H179   H     0.35449   0.03743   0.41772   0.00000  Uiso   1.00
H180   H     0.36660   0.10455   0.38360   0.00000  Uiso   1.00
H181   H     0.05761   0.33958   0.46491   0.00000  Uiso   1.00
H182   H     0.39251   0.06178   0.35842   0.00000  Uiso   1.00
H183   H     0.34408   0.08323   0.33966   0.00000  Uiso   1.00
H184   H     0.14551   0.46258   0.58228   0.00000  Uiso   1.00
H185   H     0.16526   0.48601   0.62669   0.00000  Uiso   1.00
H186   H     0.15592   0.41676   0.66033   0.00000  Uiso   1.00
H187   H     0.10749   0.43822   0.64158   0.00000  Uiso   1.00
H188   H     0.13340   0.39544   0.61639   0.00000  Uiso   1.00
H189   H     0.28742   0.10449   0.91772   0.00000  Uiso   1.00
H190   H     0.26398   0.08474   0.87332   0.00000  Uiso   1.00
H191   H     0.33323   0.09408   0.83966   0.00000  Uiso   1.00
H192   H     0.44239   0.16042   0.53509   0.00000  Uiso   1.00
H193   H     0.31178   0.14251   0.85842   0.00000  Uiso   1.00
H194   H     0.35455   0.11660   0.88360   0.00000  Uiso   1.00
H195   H     0.23602   0.41526   0.12668   0.00000  Uiso   1.00
H196   H     0.21257   0.39551   0.08228   0.00000  Uiso   1.00
H197   H     0.14545   0.38340   0.11640   0.00000  Uiso   1.00
H198   H     0.18822   0.35749   0.14158   0.00000  Uiso   1.00
H199   H     0.16677   0.40592   0.16034   0.00000  Uiso   1.00
H200   H     0.41511   0.26599   0.86950   0.00000  Uiso   1.00
H201   H     0.39287   0.25825   0.91746   0.00000  Uiso   1.00
H202   H     0.35141   0.19838   0.89374   0.00000  Uiso   1.00
H203   H     0.18817   0.41325   0.46497   0.00000  Uiso   1.00
H204   H     0.34107   0.24471   0.86498   0.00000  Uiso   1.00
H205   H     0.37443   0.20353   0.84587   0.00000  Uiso   1.00
H206   H     0.10713   0.24175   0.08254   0.00000  Uiso   1.00
H207   H     0.08489   0.23401   0.13050   0.00000  Uiso   1.00
H208   H     0.12557   0.29647   0.15413   0.00000  Uiso   1.00
H209   H     0.15893   0.25529   0.13502   0.00000  Uiso   1.00
H210   H     0.14859   0.30162   0.10626   0.00000  Uiso   1.00
H211   H     0.21258   0.39551   0.91772   0.00000  Uiso   1.00
H212   H     0.23602   0.41526   0.87332   0.00000  Uiso   1.00
H213   H     0.16677   0.40592   0.83966   0.00000  Uiso   1.00
H214   H     0.31183   0.08675   0.53503   0.00000  Uiso   1.00
H215   H     0.18822   0.35749   0.85842   0.00000  Uiso   1.00
H216   H     0.14545   0.38340   0.88360   0.00000  Uiso   1.00
H217   H     0.26399   0.08474   0.12669   0.00000  Uiso   1.00
H218   H     0.28742   0.10448   0.08229   0.00000  Uiso   1.00
H219   H     0.35456   0.11660   0.11639   0.00000  Uiso   1.00
H220   H     0.31179   0.14251   0.14158   0.00000  Uiso   1.00
H221   H     0.33325   0.09407   0.16033   0.00000  Uiso   1.00
H222   H     0.08489   0.23401   0.86950   0.00000  Uiso   1.00
H223   H     0.10713   0.24175   0.91746   0.00000  Uiso   1.00
H224   H     0.14859   0.30162   0.89374   0.00000  Uiso   1.00
H225   H     0.16325   0.43817   0.96497   0.00000  Uiso   1.00
H226   H     0.15893   0.25529   0.86498   0.00000  Uiso   1.00
H227   H     0.12557   0.29647   0.84587   0.00000  Uiso   1.00
H228   H     0.39287   0.25825   0.08254   0.00000  Uiso   1.00
H229   H     0.41511   0.26600   0.13050   0.00000  Uiso   1.00
H230   H     0.37443   0.20353   0.15413   0.00000  Uiso   1.00
H231   H     0.34107   0.24472   0.13502   0.00000  Uiso   1.00
H232   H     0.35141   0.19838   0.10626   0.00000  Uiso   1.00
O233   O     0.25000  -0.00000   0.25000   0.00000  Uiso   1.00
O234   O     0.25000   0.46538   0.66251   0.00000  Uiso   1.00
O235   O     0.46539   0.25000   0.33749   0.00000  Uiso   1.00
O236   O     0.03462   0.25000   0.66251   0.00000  Uiso   1.00
O237   O     0.00000   0.21538   0.83749   0.00000  Uiso   1.00
O238   O     0.00000   0.28461   0.16251   0.00000  Uiso   1.00
O239   O     0.28462  -0.00000   0.83749   0.00000  Uiso   1.00
O240   O     0.21539  -0.00000   0.16251   0.00000  Uiso   1.00
O241   O     0.00000   0.28461   0.83749   0.00000  Uiso   1.00
O242   O     0.00000   0.21538   0.16251   0.00000  Uiso   1.00
O243   O     0.21539  -0.00000   0.83749   0.00000  Uiso   1.00
O244   O     0.25000  -0.00000   0.75000   0.00000  Uiso   1.00
O245   O     0.28462  -0.00000   0.16251   0.00000  Uiso   1.00
O246   O     0.20127   0.08332   0.27298   0.00000  Uiso   1.00
O247   O     0.29874   0.41668   0.72702   0.00000  Uiso   1.00
O248   O     0.41668   0.20126   0.27298   0.00000  Uiso   1.00
O249   O     0.08332   0.29873   0.72702   0.00000  Uiso   1.00
O250   O     0.29874   0.41668   0.27298   0.00000  Uiso   1.00
O251   O     0.20127   0.08332   0.72702   0.00000  Uiso   1.00
O252   O     0.08332   0.29873   0.27298   0.00000  Uiso   1.00
O253   O     0.41668   0.20126   0.72702   0.00000  Uiso   1.00
O254   O     0.20127   0.41668   0.72702   0.00000  Uiso   1.00
O255   O     0.00000   0.25000   0.25000   0.00000  Uiso   1.00
O256   O     0.29874   0.08332   0.27298   0.00000  Uiso   1.00
O257   O     0.41668   0.29873   0.72702   0.00000  Uiso   1.00
O258   O     0.08332   0.20126   0.27298   0.00000  Uiso   1.00
O259   O     0.29874   0.08332   0.72702   0.00000  Uiso   1.00
O260   O     0.20127   0.41668   0.27298   0.00000  Uiso   1.00
O261   O     0.08332   0.20126   0.72702   0.00000  Uiso   1.00
O262   O     0.41668   0.29873   0.27298   0.00000  Uiso   1.00
O263   O     0.45127   0.33332   0.77298   0.00000  Uiso   1.00
O264   O     0.04874   0.16668   0.22702   0.00000  Uiso   1.00
O265   O     0.16668   0.45126   0.77298   0.00000  Uiso   1.00
O266   O     0.00000   0.25000   0.75000   0.00000  Uiso   1.00
O267   O     0.33332   0.04873   0.22702   0.00000  Uiso   1.00
O268   O     0.04874   0.16668   0.77298   0.00000  Uiso   1.00
O269   O     0.45127   0.33332   0.22702   0.00000  Uiso   1.00
O270   O     0.33332   0.04873   0.77298   0.00000  Uiso   1.00
O271   O     0.16668   0.45126   0.22702   0.00000  Uiso   1.00
O272   O     0.45127   0.16668   0.22702   0.00000  Uiso   1.00
O273   O     0.04874   0.33332   0.77298   0.00000  Uiso   1.00
O274   O     0.16668   0.04873   0.22702   0.00000  Uiso   1.00
O275   O     0.33332   0.45126   0.77298   0.00000  Uiso   1.00
O276   O     0.04874   0.33332   0.22702   0.00000  Uiso   1.00
O277   O     0.25000   0.46538   0.33749   0.00000  Uiso   1.00
O278   O     0.45127   0.16668   0.77298   0.00000  Uiso   1.00
O279   O     0.33332   0.45126   0.22702   0.00000  Uiso   1.00
O280   O     0.16668   0.04873   0.77298   0.00000  Uiso   1.00
O281   O     0.03851   0.31556   0.39809   0.00000  Uiso   1.00
O282   O     0.46149   0.18444   0.60191   0.00000  Uiso   1.00
O283   O     0.20341   0.43970   0.39843   0.00000  Uiso   1.00
O284   O     0.29659   0.06030   0.60157   0.00000  Uiso   1.00
O285   O     0.46149   0.18444   0.39809   0.00000  Uiso   1.00
O286   O     0.03851   0.31556   0.60191   0.00000  Uiso   1.00
O287   O     0.29659   0.06030   0.39843   0.00000  Uiso   1.00
O288   O     0.25000   0.03461   0.66251   0.00000  Uiso   1.00
O289   O     0.20341   0.43970   0.60157   0.00000  Uiso   1.00
O290   O     0.31030   0.04659   0.89843   0.00000  Uiso   1.00
O291   O     0.18970   0.45341   0.10157   0.00000  Uiso   1.00
O292   O     0.43444   0.21149   0.89809   0.00000  Uiso   1.00
O293   O     0.06556   0.28851   0.10191   0.00000  Uiso   1.00
O294   O     0.18970   0.45341   0.89843   0.00000  Uiso   1.00
O295   O     0.31030   0.04659   0.10157   0.00000  Uiso   1.00
O296   O     0.06556   0.28851   0.89809   0.00000  Uiso   1.00
O297   O     0.43444   0.21149   0.10191   0.00000  Uiso   1.00
O298   O     0.03462   0.25000   0.33749   0.00000  Uiso   1.00
O299   O     0.46539   0.25000   0.66251   0.00000  Uiso   1.00
O300   O     0.25000   0.03461   0.33749   0.00000  Uiso   1.00
Zn301  Zn    0.20053  -0.00000   0.21730   0.00000  Uiso   1.00
Zn302  Zn    0.04948   0.25000   0.28270   0.00000  Uiso   1.00
Zn303  Zn    0.25000   0.45052   0.71730   0.00000  Uiso   1.00
Zn304  Zn    0.25000   0.04947   0.28270   0.00000  Uiso   1.00
Zn305  Zn    0.04948   0.25000   0.71730   0.00000  Uiso   1.00
Zn306  Zn    0.45053   0.25000   0.28270   0.00000  Uiso   1.00
Zn307  Zn    0.25000   0.04947   0.71730   0.00000  Uiso   1.00
Zn308  Zn    0.25000   0.45052   0.28270   0.00000  Uiso   1.00
Zn309  Zn    0.29948  -0.00000   0.78270   0.00000  Uiso   1.00
Zn310  Zn    0.00000   0.20052   0.21730   0.00000  Uiso   1.00
Zn311  Zn    0.00000   0.29947   0.78270   0.00000  Uiso   1.00
Zn312  Zn    0.29948  -0.00000   0.21730   0.00000  Uiso   1.00
Zn313  Zn    0.20053  -0.00000   0.78270   0.00000  Uiso   1.00
Zn314  Zn    0.00000   0.29947   0.21730   0.00000  Uiso   1.00
Zn315  Zn    0.00000   0.20052   0.78270   0.00000  Uiso   1.00
Zn316  Zn    0.45053   0.25000   0.71730   0.00000  Uiso   1.00
C317   C     0.75000  -0.00000   0.35594   0.00000  Uiso   1.00
C318   C     0.83002   0.41998   0.75000   0.00000  Uiso   1.00
C319   C     0.93560   0.20865   0.02018   0.00000  Uiso   1.00
C320   C     0.81228   0.04450   0.97985   0.00000  Uiso   1.00
C321   C     0.68772   0.45550   0.02015   0.00000  Uiso   1.00
C322   C     0.93560   0.20865   0.97982   0.00000  Uiso   1.00
C323   C     0.56440   0.29135   0.02018   0.00000  Uiso   1.00
C324   C     0.50790   0.34673   0.39039   0.00000  Uiso   1.00
C325   C     0.52923   0.38484   0.37256   0.00000  Uiso   1.00
C326   C     0.99210   0.15327   0.60961   0.00000  Uiso   1.00
C327   C     0.97078   0.11516   0.62744   0.00000  Uiso   1.00
C328   C     0.66312   0.45634   0.39038   0.00000  Uiso   1.00
C329   C     0.91997   0.16997   0.25000   0.00000  Uiso   1.00
C330   C     0.63843   0.42464   0.36654   0.00000  Uiso   1.00
C331   C     0.83688   0.04366   0.60962   0.00000  Uiso   1.00
C332   C     0.86157   0.07536   0.63346   0.00000  Uiso   1.00
C333   C     0.99210   0.15327   0.39039   0.00000  Uiso   1.00
C334   C     0.97077   0.11516   0.37256   0.00000  Uiso   1.00
C335   C     0.50790   0.34673   0.60961   0.00000  Uiso   1.00
C336   C     0.52922   0.38484   0.62744   0.00000  Uiso   1.00
C337   C     0.83688   0.04366   0.39038   0.00000  Uiso   1.00
C338   C     0.86157   0.07536   0.36654   0.00000  Uiso   1.00
C339   C     0.66312   0.45634   0.60962   0.00000  Uiso   1.00
C340   C     0.58003   0.33003   0.75000   0.00000  Uiso   1.00
C341   C     0.63843   0.42463   0.63346   0.00000  Uiso   1.00
C342   C     0.79366   0.08688   0.89038   0.00000  Uiso   1.00
C343   C     0.82536   0.11157   0.86654   0.00000  Uiso   1.00
C344   C     0.70634   0.41312   0.10962   0.00000  Uiso   1.00
C345   C     0.67464   0.38843   0.13346   0.00000  Uiso   1.00
C346   C     0.90327   0.24210   0.89039   0.00000  Uiso   1.00
C347   C     0.86516   0.22078   0.87256   0.00000  Uiso   1.00
C348   C     0.59673   0.25790   0.10961   0.00000  Uiso   1.00
C349   C     0.63484   0.27923   0.12744   0.00000  Uiso   1.00
C350   C     0.70634   0.41312   0.89038   0.00000  Uiso   1.00
C351   C     0.83002   0.41998   0.25000   0.00000  Uiso   1.00
C352   C     0.67464   0.38843   0.86654   0.00000  Uiso   1.00
C353   C     0.79366   0.08688   0.10962   0.00000  Uiso   1.00
C354   C     0.82537   0.11156   0.13346   0.00000  Uiso   1.00
C355   C     0.59673   0.25790   0.89039   0.00000  Uiso   1.00
C356   C     0.63484   0.27922   0.87256   0.00000  Uiso   1.00
C357   C     0.90327   0.24210   0.10961   0.00000  Uiso   1.00
C358   C     0.86516   0.22078   0.12744   0.00000  Uiso   1.00
C359   C     0.66998   0.08002   0.75000   0.00000  Uiso   1.00
C360   C     0.58003   0.33003   0.25000   0.00000  Uiso   1.00
C361   C     0.91997   0.16997   0.75000   0.00000  Uiso   1.00
C362   C     0.66998   0.41998   0.75000   0.00000  Uiso   1.00
C363   C     0.83002   0.08002   0.25000   0.00000  Uiso   1.00
C364   C     0.91998   0.33002   0.75000   0.00000  Uiso   1.00
C365   C     0.75000  -0.00000   0.64406   0.00000  Uiso   1.00
C366   C     0.58002   0.16998   0.25000   0.00000  Uiso   1.00
C367   C     0.83002   0.08002   0.75000   0.00000  Uiso   1.00
C368   C     0.66998   0.41998   0.25000   0.00000  Uiso   1.00
C369   C     0.58002   0.16998   0.75000   0.00000  Uiso   1.00
C370   C     0.91998   0.33002   0.25000   0.00000  Uiso   1.00
C371   C     0.63833   0.38833   0.25000   0.00000  Uiso   1.00
C372   C     0.86167   0.11167   0.75000   0.00000  Uiso   1.00
C373   C     0.61167   0.13833   0.25000   0.00000  Uiso   1.00
C374   C     0.88833   0.36167   0.75000   0.00000  Uiso   1.00
C375   C     0.86167   0.11167   0.25000   0.00000  Uiso   1.00
C376   C     0.50000   0.25000   0.35590   0.00000  Uiso   1.00
C377   C     0.63833   0.38833   0.75000   0.00000  Uiso   1.00
C378   C     0.88833   0.36167   0.25000   0.00000  Uiso   1.00
C379   C     0.61167   0.13833   0.75000   0.00000  Uiso   1.00
C380   C     0.63833   0.11167   0.75000   0.00000  Uiso   1.00
C381   C     0.86167   0.38833   0.25000   0.00000  Uiso   1.00
C382   C     0.61168   0.36168   0.75000   0.00000  Uiso   1.00
C383   C     0.88832   0.13832   0.25000   0.00000  Uiso   1.00
C384   C     0.86167   0.38833   0.75000   0.00000  Uiso   1.00
C385   C     0.63833   0.11167   0.25000   0.00000  Uiso   1.00
C386   C     0.88832   0.13832   0.75000   0.00000  Uiso   1.00
C387   C     0.50000   0.25000   0.64410   0.00000  Uiso   1.00
C388   C     0.61168   0.36168   0.25000   0.00000  Uiso   1.00
C389   C     0.51955   0.28311   0.41836   0.00000  Uiso   1.00
C390   C     0.98045   0.21689   0.58164   0.00000  Uiso   1.00
C391   C     0.72637   0.46960   0.41854   0.00000  Uiso   1.00
C392   C     0.77363   0.03040   0.58146   0.00000  Uiso   1.00
C393   C     0.98045   0.21689   0.41836   0.00000  Uiso   1.00
C394   C     0.51955   0.28311   0.58164   0.00000  Uiso   1.00
C395   C     0.77363   0.03040   0.41854   0.00000  Uiso   1.00
C396   C     0.72637   0.46960   0.58146   0.00000  Uiso   1.00
C397   C     0.78040   0.02363   0.91853   0.00000  Uiso   1.00
C398   C     0.50000   0.25000   0.85590   0.00000  Uiso   1.00
C399   C     0.71960   0.47637   0.08146   0.00000  Uiso   1.00
C400   C     0.96689   0.23045   0.91836   0.00000  Uiso   1.00
C401   C     0.53311   0.26955   0.08164   0.00000  Uiso   1.00
C402   C     0.71960   0.47637   0.91853   0.00000  Uiso   1.00
C403   C     0.78040   0.02363   0.08146   0.00000  Uiso   1.00
C404   C     0.53311   0.26955   0.91836   0.00000  Uiso   1.00
C405   C     0.96689   0.23045   0.08164   0.00000  Uiso   1.00
C406   C     0.50000   0.25000   0.39822   0.00000  Uiso   1.00
C407   C     0.50000   0.25000   0.60179   0.00000  Uiso   1.00
C408   C     0.75000  -0.00000   0.39832   0.00000  Uiso   1.00
C409   C     0.50000   0.25000   0.14410   0.00000  Uiso   1.00
C410   C     0.75000  -0.00000   0.60168   0.00000  Uiso   1.00
C411   C     0.75000   0.00000   0.89832   0.00000  Uiso   1.00
C412   C     0.75000   0.00000   0.10168   0.00000  Uiso   1.00
C413   C     0.50000   0.25000   0.89821   0.00000  Uiso   1.00
C414   C     0.50000   0.25000   0.10179   0.00000  Uiso   1.00
C415   C     0.97943   0.21740   0.45911   0.00000  Uiso   1.00
C416   C     0.52057   0.28260   0.54089   0.00000  Uiso   1.00
C417   C     0.77271   0.03115   0.45919   0.00000  Uiso   1.00
C418   C     0.72729   0.46885   0.54081   0.00000  Uiso   1.00
C419   C     0.52057   0.28260   0.45911   0.00000  Uiso   1.00
C420   C     0.75000  -0.00000   0.85594   0.00000  Uiso   1.00
C421   C     0.97943   0.21740   0.54089   0.00000  Uiso   1.00
C422   C     0.72729   0.46885   0.45919   0.00000  Uiso   1.00
C423   C     0.77271   0.03115   0.54081   0.00000  Uiso   1.00
C424   C     0.71885   0.47729   0.95919   0.00000  Uiso   1.00
C425   C     0.78115   0.02271   0.04081   0.00000  Uiso   1.00
C426   C     0.53260   0.27057   0.95911   0.00000  Uiso   1.00
C427   C     0.96740   0.22943   0.04089   0.00000  Uiso   1.00
C428   C     0.78115   0.02271   0.95919   0.00000  Uiso   1.00
C429   C     0.71885   0.47729   0.04081   0.00000  Uiso   1.00
C430   C     0.96740   0.22943   0.95911   0.00000  Uiso   1.00
C431   C     0.75000  -0.00000   0.14406   0.00000  Uiso   1.00
C432   C     0.53260   0.27057   0.04089   0.00000  Uiso   1.00
C433   C     0.50000   0.25000   0.47952   0.00000  Uiso   1.00
C434   C     0.50000   0.25000   0.52048   0.00000  Uiso   1.00
C435   C     0.75000  -0.00000   0.47956   0.00000  Uiso   1.00
C436   C     0.75000  -0.00000   0.52044   0.00000  Uiso   1.00
C437   C     0.75000   0.00000   0.97956   0.00000  Uiso   1.00
C438   C     0.75000   0.00000   0.02044   0.00000  Uiso   1.00
C439   C     0.50000   0.25000   0.97952   0.00000  Uiso   1.00
C440   C     0.50000   0.25000   0.02048   0.00000  Uiso   1.00
C441   C     0.95865   0.18560   0.47982   0.00000  Uiso   1.00
C442   C     0.66998   0.08002   0.25000   0.00000  Uiso   1.00
C443   C     0.54135   0.31440   0.52018   0.00000  Uiso   1.00
C444   C     0.79450   0.06228   0.47985   0.00000  Uiso   1.00
C445   C     0.70550   0.43772   0.52015   0.00000  Uiso   1.00
C446   C     0.54135   0.31440   0.47982   0.00000  Uiso   1.00
C447   C     0.95865   0.18560   0.52018   0.00000  Uiso   1.00
C448   C     0.70550   0.43772   0.47985   0.00000  Uiso   1.00
C449   C     0.79450   0.06228   0.52015   0.00000  Uiso   1.00
C450   C     0.68772   0.45550   0.97985   0.00000  Uiso   1.00
C451   C     0.81228   0.04450   0.02015   0.00000  Uiso   1.00
C452   C     0.56440   0.29135   0.97982   0.00000  Uiso   1.00
H453   H     0.94239   0.16042   0.46491   0.00000  Uiso   1.00
H454   H     0.83675   0.06183   0.03503   0.00000  Uiso   1.00
H455   H     0.58958   0.30761   0.96491   0.00000  Uiso   1.00
H456   H     0.91042   0.19239   0.03509   0.00000  Uiso   1.00
H457   H     0.83675   0.06183   0.96497   0.00000  Uiso   1.00
H458   H     0.66325   0.43817   0.03503   0.00000  Uiso   1.00
H459   H     0.91042   0.19239   0.96491   0.00000  Uiso   1.00
H460   H     0.58958   0.30761   0.03509   0.00000  Uiso   1.00
H461   H     0.99175   0.35713   0.41746   0.00000  Uiso   1.00
H462   H     0.98401   0.33489   0.36950   0.00000  Uiso   1.00
H463   H     0.54647   0.37557   0.34587   0.00000  Uiso   1.00
H464   H     0.55761   0.33958   0.53509   0.00000  Uiso   1.00
H465   H     0.50529   0.40893   0.36498   0.00000  Uiso   1.00
H466   H     0.55162   0.39859   0.39374   0.00000  Uiso   1.00
H467   H     0.51600   0.16511   0.63050   0.00000  Uiso   1.00
H468   H     0.50825   0.14287   0.58254   0.00000  Uiso   1.00
H469   H     0.94838   0.10141   0.60626   0.00000  Uiso   1.00
H470   H     0.99471   0.09107   0.63502   0.00000  Uiso   1.00
H471   H     0.95353   0.12443   0.65413   0.00000  Uiso   1.00
H472   H     0.66526   0.48602   0.37332   0.00000  Uiso   1.00
H473   H     0.64551   0.46258   0.41772   0.00000  Uiso   1.00
H474   H     0.63340   0.39545   0.38360   0.00000  Uiso   1.00
H475   H     0.81183   0.08675   0.46497   0.00000  Uiso   1.00
H476   H     0.60749   0.43822   0.35842   0.00000  Uiso   1.00
H477   H     0.65592   0.41677   0.33967   0.00000  Uiso   1.00
H478   H     0.85449   0.03742   0.58228   0.00000  Uiso   1.00
H479   H     0.83474   0.01398   0.62668   0.00000  Uiso   1.00
H480   H     0.84408   0.08323   0.66033   0.00000  Uiso   1.00
H481   H     0.89251   0.06178   0.64158   0.00000  Uiso   1.00
H482   H     0.86660   0.10455   0.61640   0.00000  Uiso   1.00
H483   H     0.50825   0.14287   0.41746   0.00000  Uiso   1.00
H484   H     0.51599   0.16511   0.36950   0.00000  Uiso   1.00
H485   H     0.95353   0.12443   0.34587   0.00000  Uiso   1.00
H486   H     0.68817   0.41325   0.53503   0.00000  Uiso   1.00
H487   H     0.99471   0.09107   0.36498   0.00000  Uiso   1.00
H488   H     0.94838   0.10141   0.39374   0.00000  Uiso   1.00
H489   H     0.98400   0.33489   0.63050   0.00000  Uiso   1.00
H490   H     0.99175   0.35713   0.58254   0.00000  Uiso   1.00
H491   H     0.55162   0.39859   0.60626   0.00000  Uiso   1.00
H492   H     0.50528   0.40893   0.63502   0.00000  Uiso   1.00
H493   H     0.54647   0.37557   0.65413   0.00000  Uiso   1.00
H494   H     0.83474   0.01398   0.37332   0.00000  Uiso   1.00
H495   H     0.85449   0.03743   0.41772   0.00000  Uiso   1.00
H496   H     0.86660   0.10455   0.38360   0.00000  Uiso   1.00
H497   H     0.55761   0.33958   0.46491   0.00000  Uiso   1.00
H498   H     0.89251   0.06178   0.35842   0.00000  Uiso   1.00
H499   H     0.84408   0.08323   0.33966   0.00000  Uiso   1.00
H500   H     0.64551   0.46258   0.58228   0.00000  Uiso   1.00
H501   H     0.66526   0.48601   0.62669   0.00000  Uiso   1.00
H502   H     0.65592   0.41676   0.66033   0.00000  Uiso   1.00
H503   H     0.60749   0.43822   0.64158   0.00000  Uiso   1.00
H504   H     0.63340   0.39544   0.61639   0.00000  Uiso   1.00
H505   H     0.78742   0.10449   0.91772   0.00000  Uiso   1.00
H506   H     0.76398   0.08474   0.87332   0.00000  Uiso   1.00
H507   H     0.83323   0.09408   0.83966   0.00000  Uiso   1.00
H508   H     0.94239   0.16042   0.53509   0.00000  Uiso   1.00
H509   H     0.81178   0.14251   0.85842   0.00000  Uiso   1.00
H510   H     0.85455   0.11660   0.88360   0.00000  Uiso   1.00
H511   H     0.73602   0.41526   0.12668   0.00000  Uiso   1.00
H512   H     0.71257   0.39551   0.08228   0.00000  Uiso   1.00
H513   H     0.64545   0.38340   0.11640   0.00000  Uiso   1.00
H514   H     0.68822   0.35749   0.14158   0.00000  Uiso   1.00
H515   H     0.66677   0.40592   0.16034   0.00000  Uiso   1.00
H516   H     0.91511   0.26599   0.86950   0.00000  Uiso   1.00
H517   H     0.89287   0.25825   0.91746   0.00000  Uiso   1.00
H518   H     0.85141   0.19838   0.89374   0.00000  Uiso   1.00
H519   H     0.68817   0.41325   0.46497   0.00000  Uiso   1.00
H520   H     0.84107   0.24471   0.86498   0.00000  Uiso   1.00
H521   H     0.87443   0.20353   0.84587   0.00000  Uiso   1.00
H522   H     0.60713   0.24175   0.08254   0.00000  Uiso   1.00
H523   H     0.58489   0.23401   0.13050   0.00000  Uiso   1.00
H524   H     0.62557   0.29647   0.15413   0.00000  Uiso   1.00
H525   H     0.65893   0.25529   0.13502   0.00000  Uiso   1.00
H526   H     0.64859   0.30162   0.10626   0.00000  Uiso   1.00
H527   H     0.71258   0.39551   0.91772   0.00000  Uiso   1.00
H528   H     0.73602   0.41526   0.87332   0.00000  Uiso   1.00
H529   H     0.66677   0.40592   0.83966   0.00000  Uiso   1.00
H530   H     0.81183   0.08675   0.53503   0.00000  Uiso   1.00
H531   H     0.68822   0.35749   0.85842   0.00000  Uiso   1.00
H532   H     0.64545   0.38340   0.88360   0.00000  Uiso   1.00
H533   H     0.76399   0.08474   0.12669   0.00000  Uiso   1.00
H534   H     0.78742   0.10448   0.08229   0.00000  Uiso   1.00
H535   H     0.85456   0.11660   0.11639   0.00000  Uiso   1.00
H536   H     0.81179   0.14251   0.14158   0.00000  Uiso   1.00
H537   H     0.83325   0.09407   0.16033   0.00000  Uiso   1.00
H538   H     0.58489   0.23401   0.86950   0.00000  Uiso   1.00
H539   H     0.60713   0.24175   0.91746   0.00000  Uiso   1.00
H540   H     0.64859   0.30162   0.89374   0.00000  Uiso   1.00
H541   H     0.66325   0.43817   0.96497   0.00000  Uiso   1.00
H542   H     0.65893   0.25529   0.86498   0.00000  Uiso   1.00
H543   H     0.62557   0.29647   0.84587   0.00000  Uiso   1.00
H544   H     0.89287   0.25825   0.08254   0.00000  Uiso   1.00
H545   H     0.91511   0.26600   0.13050   0.00000  Uiso   1.00
H546   H     0.87443   0.20353   0.15413   0.00000  Uiso   1.00
H547   H     0.84107   0.24472   0.13502   0.00000  Uiso   1.00
H548   H     0.85141   0.19838   0.10626   0.00000  Uiso   1.00
O549   O     0.75000  -0.00000   0.25000   0.00000  Uiso   1.00
O550   O     0.75000   0.46538   0.66251   0.00000  Uiso   1.00
O551   O     0.96539   0.25000   0.33749   0.00000  Uiso   1.00
O552   O     0.53462   0.25000   0.66251   0.00000  Uiso   1.00
O553   O     0.50000   0.21538   0.83749   0.00000  Uiso   1.00
O554   O     0.50000   0.28461   0.16251   0.00000  Uiso   1.00
O555   O     0.78462  -0.00000   0.83749   0.00000  Uiso   1.00
O556   O     0.71539  -0.00000   0.16251   0.00000  Uiso   1.00
O557   O     0.50000   0.28461   0.83749   0.00000  Uiso   1.00
O558   O     0.50000   0.21538   0.16251   0.00000  Uiso   1.00
O559   O     0.71539  -0.00000   0.83749   0.00000  Uiso   1.00
O560   O     0.75000  -0.00000   0.75000   0.00000  Uiso   1.00
O561   O     0.78462  -0.00000   0.16251   0.00000  Uiso   1.00
O562   O     0.70127   0.08332   0.27298   0.00000  Uiso   1.00
O563   O     0.79874   0.41668   0.72702   0.00000  Uiso   1.00
O564   O     0.91668   0.20126   0.27298   0.00000  Uiso   1.00
O565   O     0.58332   0.29873   0.72702   0.00000  Uiso   1.00
O566   O     0.79874   0.41668   0.27298   0.00000  Uiso   1.00
O567   O     0.70127   0.08332   0.72702   0.00000  Uiso   1.00
O568   O     0.58332   0.29873   0.27298   0.00000  Uiso   1.00
O569   O     0.91668   0.20126   0.72702   0.00000  Uiso   1.00
O570   O     0.70127   0.41668   0.72702   0.00000  Uiso   1.00
O571   O     0.50000   0.25000   0.25000   0.00000  Uiso   1.00
O572   O     0.79874   0.08332   0.27298   0.00000  Uiso   1.00
O573   O     0.91668   0.29873   0.72702   0.00000  Uiso   1.00
O574   O     0.58332   0.20126   0.27298   0.00000  Uiso   1.00
O575   O     0.79874   0.08332   0.72702   0.00000  Uiso   1.00
O576   O     0.70127   0.41668   0.27298   0.00000  Uiso   1.00
O577   O     0.58332   0.20126   0.72702   0.00000  Uiso   1.00
O578   O     0.91668   0.29873   0.27298   0.00000  Uiso   1.00
O579   O     0.95127   0.33332   0.77298   0.00000  Uiso   1.00
O580   O     0.54874   0.16668   0.22702   0.00000  Uiso   1.00
O581   O     0.66668   0.45126   0.77298   0.00000  Uiso   1.00
O582   O     0.50000   0.25000   0.75000   0.00000  Uiso   1.00
O583   O     0.83332   0.04873   0.22702   0.00000  Uiso   1.00
O584   O     0.54874   0.16668   0.77298   0.00000  Uiso   1.00
O585   O     0.95127   0.33332   0.22702   0.00000  Uiso   1.00
O586   O     0.83332   0.04873   0.77298   0.00000  Uiso   1.00
O587   O     0.66668   0.45126   0.22702   0.00000  Uiso   1.00
O588   O     0.95127   0.16668   0.22702   0.00000  Uiso   1.00
O589   O     0.54874   0.33332   0.77298   0.00000  Uiso   1.00
O590   O     0.66668   0.04873   0.22702   0.00000  Uiso   1.00
O591   O     0.83332   0.45126   0.77298   0.00000  Uiso   1.00
O592   O     0.54874   0.33332   0.22702   0.00000  Uiso   1.00
O593   O     0.75000   0.46538   0.33749   0.00000  Uiso   1.00
O594   O     0.95127   0.16668   0.77298   0.00000  Uiso   1.00
O595   O     0.83332   0.45126   0.22702   0.00000  Uiso   1.00
O596   O     0.66668   0.04873   0.77298   0.00000  Uiso   1.00
O597   O     0.53851   0.31556   0.39809   0.00000  Uiso   1.00
O598   O     0.96149   0.18444   0.60191   0.00000  Uiso   1.00
O599   O     0.70341   0.43970   0.39843   0.00000  Uiso   1.00
O600   O     0.79659   0.06030   0.60157   0.00000  Uiso   1.00
O601   O     0.96149   0.18444   0.39809   0.00000  Uiso   1.00
O602   O     0.53851   0.31556   0.60191   0.00000  Uiso   1.00
O603   O     0.79659   0.06030   0.39843   0.00000  Uiso   1.00
O604   O     0.75000   0.03461   0.66251   0.00000  Uiso   1.00
O605   O     0.70341   0.43970   0.60157   0.00000  Uiso   1.00
O606   O     0.81030   0.04659   0.89843   0.00000  Uiso   1.00
O607   O     0.68970   0.45341   0.10157   0.00000  Uiso   1.00
O608   O     0.93444   0.21149   0.89809   0.00000  Uiso   1.00
O609   O     0.56556   0.28851   0.10191   0.00000  Uiso   1.00
O610   O     0.68970   0.45341   0.89843   0.00000  Uiso   1.00
O611   O     0.81030   0.04659   0.10157   0.00000  Uiso   1.00
O612   O     0.56556   0.28851   0.89809   0.00000  Uiso   1.00
O613   O     0.93444   0.21149   0.10191   0.00000  Uiso   1.00
O614   O     0.53462   0.25000   0.33749   0.00000  Uiso   1.00
O615   O     0.96539   0.25000   0.66251   0.00000  Uiso   1.00
O616   O     0.75000   0.03461   0.33749   0.00000  Uiso   1.00
Zn617  Zn    0.70053  -0.00000   0.21730   0.00000  Uiso   1.00
Zn618  Zn    0.54948   0.25000   0.28270   0.00000  Uiso   1.00
Zn619  Zn    0.75000   0.45052   0.71730   0.00000  Uiso   1.00
Zn620  Zn    0.75000   0.04947   0.28270   0.00000  Uiso   1.00
Zn621  Zn    0.54948   0.25000   0.71730   0.00000  Uiso   1.00
Zn622  Zn    0.95053   0.25000   0.28270   0.00000  Uiso   1.00
Zn623  Zn    0.75000   0.04947   0.71730   0.00000  Uiso   1.00
Zn624  Zn    0.75000   0.45052   0.28270   0.00000  Uiso   1.00
Zn625  Zn    0.79948  -0.00000   0.78270   0.00000  Uiso   1.00
Zn626  Zn    0.50000   0.20052   0.21730   0.00000  Uiso   1.00
Zn627  Zn    0.50000   0.29947   0.78270   0.00000  Uiso   1.00
Zn628  Zn    0.79948  -0.00000   0.21730   0.00000  Uiso   1.00
Zn629  Zn    0.70053  -0.00000   0.78270   0.00000  Uiso   1.00
Zn630  Zn    0.50000   0.29947   0.21730   0.00000  Uiso   1.00
Zn631  Zn    0.50000   0.20052   0.78270   0.00000  Uiso   1.00
Zn632  Zn    0.95053   0.25000   0.71730   0.00000  Uiso   1.00
C633   C     0.25000   0.50000   0.35594   0.00000  Uiso   1.00
C634   C     0.33002   0.91998   0.75000   0.00000  Uiso   1.00
C635   C     0.43560   0.70865   0.02018   0.00000  Uiso   1.00
C636   C     0.31228   0.54450   0.97985   0.00000  Uiso   1.00
C637   C     0.18772   0.95550   0.02015   0.00000  Uiso   1.00
C638   C     0.43560   0.70865   0.97982   0.00000  Uiso   1.00
C639   C     0.06440   0.79135   0.02018   0.00000  Uiso   1.00
C640   C     0.00790   0.84673   0.39039   0.00000  Uiso   1.00
C641   C     0.02923   0.88484   0.37256   0.00000  Uiso   1.00
C642   C     0.49210   0.65327   0.60961   0.00000  Uiso   1.00
C643   C     0.47078   0.61516   0.62744   0.00000  Uiso   1.00
C644   C     0.16312   0.95634   0.39038   0.00000  Uiso   1.00
C645   C     0.41997   0.66997   0.25000   0.00000  Uiso   1.00
C646   C     0.13843   0.92464   0.36654   0.00000  Uiso   1.00
C647   C     0.33688   0.54366   0.60962   0.00000  Uiso   1.00
C648   C     0.36157   0.57536   0.63346   0.00000  Uiso   1.00
C649   C     0.49210   0.65327   0.39039   0.00000  Uiso   1.00
C650   C     0.47077   0.61516   0.37256   0.00000  Uiso   1.00
C651   C     0.00790   0.84673   0.60961   0.00000  Uiso   1.00
C652   C     0.02922   0.88484   0.62744   0.00000  Uiso   1.00
C653   C     0.33688   0.54366   0.39038   0.00000  Uiso   1.00
C654   C     0.36157   0.57536   0.36654   0.00000  Uiso   1.00
C655   C     0.16312   0.95634   0.60962   0.00000  Uiso   1.00
C656   C     0.08003   0.83003   0.75000   0.00000  Uiso   1.00
C657   C     0.13843   0.92463   0.63346   0.00000  Uiso   1.00
C658   C     0.29366   0.58688   0.89038   0.00000  Uiso   1.00
C659   C     0.32536   0.61157   0.86654   0.00000  Uiso   1.00
C660   C     0.20634   0.91312   0.10962   0.00000  Uiso   1.00
C661   C     0.17464   0.88843   0.13346   0.00000  Uiso   1.00
C662   C     0.40327   0.74210   0.89039   0.00000  Uiso   1.00
C663   C     0.36516   0.72078   0.87256   0.00000  Uiso   1.00
C664   C     0.09673   0.75790   0.10961   0.00000  Uiso   1.00
C665   C     0.13484   0.77923   0.12744   0.00000  Uiso   1.00
C666   C     0.20634   0.91312   0.89038   0.00000  Uiso   1.00
C667   C     0.33002   0.91998   0.25000   0.00000  Uiso   1.00
C668   C     0.17464   0.88843   0.86654   0.00000  Uiso   1.00
C669   C     0.29366   0.58688   0.10962   0.00000  Uiso   1.00
C670   C     0.32537   0.61156   0.13346   0.00000  Uiso   1.00
C671   C     0.09673   0.75790   0.89039   0.00000  Uiso   1.00
C672   C     0.13484   0.77922   0.87256   0.00000  Uiso   1.00
C673   C     0.40327   0.74210   0.10961   0.00000  Uiso   1.00
C674   C     0.36516   0.72078   0.12744   0.00000  Uiso   1.00
C675   C     0.16998   0.58002   0.75000   0.00000  Uiso   1.00
C676   C     0.08003   0.83003   0.25000   0.00000  Uiso   1.00
C677   C     0.41997   0.66997   0.75000   0.00000  Uiso   1.00
C678   C     0.16998   0.91998   0.75000   0.00000  Uiso   1.00
C679   C     0.33002   0.58002   0.25000   0.00000  Uiso   1.00
C680   C     0.41998   0.83002   0.75000   0.00000  Uiso   1.00
C681   C     0.25000   0.50000   0.64406   0.00000  Uiso   1.00
C682   C     0.08002   0.66998   0.25000   0.00000  Uiso   1.00
C683   C     0.33002   0.58002   0.75000   0.00000  Uiso   1.00
C684   C     0.16998   0.91998   0.25000   0.00000  Uiso   1.00
C685   C     0.08002   0.66998   0.75000   0.00000  Uiso   1.00
C686   C     0.41998   0.83002   0.25000   0.00000  Uiso   1.00
C687   C     0.13833   0.88833   0.25000   0.00000  Uiso   1.00
C688   C     0.36167   0.61167   0.75000   0.00000  Uiso   1.00
C689   C     0.11167   0.63833   0.25000   0.00000  Uiso   1.00
C690   C     0.38833   0.86167   0.75000   0.00000  Uiso   1.00
C691   C     0.36167   0.61167   0.25000   0.00000  Uiso   1.00
C692   C     0.00000   0.75000   0.35590   0.00000  Uiso   1.00
C693   C     0.13833   0.88833   0.75000   0.00000  Uiso   1.00
C694   C     0.38833   0.86167   0.25000   0.00000  Uiso   1.00
C695   C     0.11167   0.63833   0.75000   0.00000  Uiso   1.00
C696   C     0.13833   0.61167   0.75000   0.00000  Uiso   1.00
C697   C     0.36167   0.88833   0.25000   0.00000  Uiso   1.00
C698   C     0.11168   0.86168   0.75000   0.00000  Uiso   1.00
C699   C     0.38832   0.63832   0.25000   0.00000  Uiso   1.00
C700   C     0.36167   0.88833   0.75000   0.00000  Uiso   1.00
C701   C     0.13833   0.61167   0.25000   0.00000  Uiso   1.00
C702   C     0.38832   0.63832   0.75000   0.00000  Uiso   1.00
C703   C     0.00000   0.75000   0.64410   0.00000  Uiso   1.00
C704   C     0.11168   0.86168   0.25000   0.00000  Uiso   1.00
C705   C     0.01955   0.78311   0.41836   0.00000  Uiso   1.00
C706   C     0.48045   0.71689   0.58164   0.00000  Uiso   1.00
C707   C     0.22637   0.96960   0.41854   0.00000  Uiso   1.00
C708   C     0.27363   0.53040   0.58146   0.00000  Uiso   1.00
C709   C     0.48045   0.71689   0.41836   0.00000  Uiso   1.00
C710   C     0.01955   0.78311   0.58164   0.00000  Uiso   1.00
C711   C     0.27363   0.53040   0.41854   0.00000  Uiso   1.00
C712   C     0.22637   0.96960   0.58146   0.00000  Uiso   1.00
C713   C     0.28040   0.52363   0.91853   0.00000  Uiso   1.00
C714   C     0.00000   0.75000   0.85590   0.00000  Uiso   1.00
C715   C     0.21960   0.97637   0.08146   0.00000  Uiso   1.00
C716   C     0.46689   0.73045   0.91836   0.00000  Uiso   1.00
C717   C     0.03311   0.76955   0.08164   0.00000  Uiso   1.00
C718   C     0.21960   0.97637   0.91853   0.00000  Uiso   1.00
C719   C     0.28040   0.52363   0.08146   0.00000  Uiso   1.00
C720   C     0.03311   0.76955   0.91836   0.00000  Uiso   1.00
C721   C     0.46689   0.73045   0.08164   0.00000  Uiso   1.00
C722   C     0.00000   0.75000   0.39822   0.00000  Uiso   1.00
C723   C     0.00000   0.75000   0.60179   0.00000  Uiso   1.00
C724   C     0.25000   0.50000   0.39832   0.00000  Uiso   1.00
C725   C     0.00000   0.75000   0.14410   0.00000  Uiso   1.00
C726   C     0.25000   0.50000   0.60168   0.00000  Uiso   1.00
C727   C     0.25000   0.50000   0.89832   0.00000  Uiso   1.00
C728   C     0.25000   0.50000   0.10168   0.00000  Uiso   1.00
C729   C     0.00000   0.75000   0.89821   0.00000  Uiso   1.00
C730   C     0.00000   0.75000   0.10179   0.00000  Uiso   1.00
C731   C     0.47943   0.71740   0.45911   0.00000  Uiso   1.00
C732   C     0.02057   0.78260   0.54089   0.00000  Uiso   1.00
C733   C     0.27271   0.53115   0.45919   0.00000  Uiso   1.00
C734   C     0.22729   0.96885   0.54081   0.00000  Uiso   1.00
C735   C     0.02057   0.78260   0.45911   0.00000  Uiso   1.00
C736   C     0.25000   0.50000   0.85594   0.00000  Uiso   1.00
C737   C     0.47943   0.71740   0.54089   0.00000  Uiso   1.00
C738   C     0.22729   0.96885   0.45919   0.00000  Uiso   1.00
C739   C     0.27271   0.53115   0.54081   0.00000  Uiso   1.00
C740   C     0.21885   0.97729   0.95919   0.00000  Uiso   1.00
C741   C     0.28115   0.52271   0.04081   0.00000  Uiso   1.00
C742   C     0.03260   0.77057   0.95911   0.00000  Uiso   1.00
C743   C     0.46740   0.72943   0.04089   0.00000  Uiso   1.00
C744   C     0.28115   0.52271   0.95919   0.00000  Uiso   1.00
C745   C     0.21885   0.97729   0.04081   0.00000  Uiso   1.00
C746   C     0.46740   0.72943   0.95911   0.00000  Uiso   1.00
C747   C     0.25000   0.50000   0.14406   0.00000  Uiso   1.00
C748   C     0.03260   0.77057   0.04089   0.00000  Uiso   1.00
C749   C     0.00000   0.75000   0.47952   0.00000  Uiso   1.00
C750   C     0.00000   0.75000   0.52048   0.00000  Uiso   1.00
C751   C     0.25000   0.50000   0.47956   0.00000  Uiso   1.00
C752   C     0.25000   0.50000   0.52044   0.00000  Uiso   1.00
C753   C     0.25000   0.50000   0.97956   0.00000  Uiso   1.00
C754   C     0.25000   0.50000   0.02044   0.00000  Uiso   1.00
C755   C     0.00000   0.75000   0.97952   0.00000  Uiso   1.00
C756   C     0.00000   0.75000   0.02048   0.00000  Uiso   1.00
C757   C     0.45865   0.68560   0.47982   0.00000  Uiso   1.00
C758   C     0.16998   0.58002   0.25000   0.00000  Uiso   1.00
C759   C     0.04135   0.81440   0.52018   0.00000  Uiso   1.00
C760   C     0.29450   0.56228   0.47985   0.00000  Uiso   1.00
C761   C     0.20550   0.93772   0.52015   0.00000  Uiso   1.00
C762   C     0.04135   0.81440   0.47982   0.00000  Uiso   1.00
C763   C     0.45865   0.68560   0.52018   0.00000  Uiso   1.00
C764   C     0.20550   0.93772   0.47985   0.00000  Uiso   1.00
C765   C     0.29450   0.56228   0.52015   0.00000  Uiso   1.00
C766   C     0.18772   0.95550   0.97985   0.00000  Uiso   1.00
C767   C     0.31228   0.54450   0.02015   0.00000  Uiso   1.00
C768   C     0.06440   0.79135   0.97982   0.00000  Uiso   1.00
H769   H     0.44239   0.66042   0.46491   0.00000  Uiso   1.00
H770   H     0.33675   0.56183   0.03503   0.00000  Uiso   1.00
H771   H     0.08958   0.80761   0.96491   0.00000  Uiso   1.00
H772   H     0.41042   0.69239   0.03509   0.00000  Uiso   1.00
H773   H     0.33675   0.56183   0.96497   0.00000  Uiso   1.00
H774   H     0.16325   0.93817   0.03503   0.00000  Uiso   1.00
H775   H     0.41042   0.69239   0.96491   0.00000  Uiso   1.00
H776   H     0.08958   0.80761   0.03509   0.00000  Uiso   1.00
H777   H     0.49175   0.85713   0.41746   0.00000  Uiso   1.00
H778   H     0.48401   0.83489   0.36950   0.00000  Uiso   1.00
H779   H     0.04647   0.87557   0.34587   0.00000  Uiso   1.00
H780   H     0.05761   0.83958   0.53509   0.00000  Uiso   1.00
H781   H     0.00529   0.90893   0.36498   0.00000  Uiso   1.00
H782   H     0.05162   0.89859   0.39374   0.00000  Uiso   1.00
H783   H     0.01600   0.66511   0.63050   0.00000  Uiso   1.00
H784   H     0.00825   0.64287   0.58254   0.00000  Uiso   1.00
H785   H     0.44838   0.60141   0.60626   0.00000  Uiso   1.00
H786   H     0.49471   0.59107   0.63502   0.00000  Uiso   1.00
H787   H     0.45353   0.62443   0.65413   0.00000  Uiso   1.00
H788   H     0.16526   0.98602   0.37332   0.00000  Uiso   1.00
H789   H     0.14551   0.96258   0.41772   0.00000  Uiso   1.00
H790   H     0.13340   0.89545   0.38360   0.00000  Uiso   1.00
H791   H     0.31183   0.58675   0.46497   0.00000  Uiso   1.00
H792   H     0.10749   0.93822   0.35842   0.00000  Uiso   1.00
H793   H     0.15592   0.91677   0.33967   0.00000  Uiso   1.00
H794   H     0.35449   0.53742   0.58228   0.00000  Uiso   1.00
H795   H     0.33474   0.51398   0.62668   0.00000  Uiso   1.00
H796   H     0.34408   0.58323   0.66033   0.00000  Uiso   1.00
H797   H     0.39251   0.56178   0.64158   0.00000  Uiso   1.00
H798   H     0.36660   0.60455   0.61640   0.00000  Uiso   1.00
H799   H     0.00825   0.64287   0.41746   0.00000  Uiso   1.00
H800   H     0.01599   0.66511   0.36950   0.00000  Uiso   1.00
H801   H     0.45353   0.62443   0.34587   0.00000  Uiso   1.00
H802   H     0.18817   0.91325   0.53503   0.00000  Uiso   1.00
H803   H     0.49471   0.59107   0.36498   0.00000  Uiso   1.00
H804   H     0.44838   0.60141   0.39374   0.00000  Uiso   1.00
H805   H     0.48400   0.83489   0.63050   0.00000  Uiso   1.00
H806   H     0.49175   0.85713   0.58254   0.00000  Uiso   1.00
H807   H     0.05162   0.89859   0.60626   0.00000  Uiso   1.00
H808   H     0.00528   0.90893   0.63502   0.00000  Uiso   1.00
H809   H     0.04647   0.87557   0.65413   0.00000  Uiso   1.00
H810   H     0.33474   0.51398   0.37332   0.00000  Uiso   1.00
H811   H     0.35449   0.53743   0.41772   0.00000  Uiso   1.00
H812   H     0.36660   0.60455   0.38360   0.00000  Uiso   1.00
H813   H     0.05761   0.83958   0.46491   0.00000  Uiso   1.00
H814   H     0.39251   0.56178   0.35842   0.00000  Uiso   1.00
H815   H     0.34408   0.58323   0.33966   0.00000  Uiso   1.00
H816   H     0.14551   0.96258   0.58228   0.00000  Uiso   1.00
H817   H     0.16526   0.98601   0.62669   0.00000  Uiso   1.00
H818   H     0.15592   0.91676   0.66033   0.00000  Uiso   1.00
H819   H     0.10749   0.93822   0.64158   0.00000  Uiso   1.00
H820   H     0.13340   0.89544   0.61639   0.00000  Uiso   1.00
H821   H     0.28742   0.60449   0.91772   0.00000  Uiso   1.00
H822   H     0.26398   0.58474   0.87332   0.00000  Uiso   1.00
H823   H     0.33323   0.59408   0.83966   0.00000  Uiso   1.00
H824   H     0.44239   0.66042   0.53509   0.00000  Uiso   1.00
H825   H     0.31178   0.64251   0.85842   0.00000  Uiso   1.00
H826   H     0.35455   0.61660   0.88360   0.00000  Uiso   1.00
H827   H     0.23602   0.91526   0.12668   0.00000  Uiso   1.00
H828   H     0.21257   0.89551   0.08228   0.00000  Uiso   1.00
H829   H     0.14545   0.88340   0.11640   0.00000  Uiso   1.00
H830   H     0.18822   0.85749   0.14158   0.00000  Uiso   1.00
H831   H     0.16677   0.90592   0.16034   0.00000  Uiso   1.00
H832   H     0.41511   0.76599   0.86950   0.00000  Uiso   1.00
H833   H     0.39287   0.75825   0.91746   0.00000  Uiso   1.00
H834   H     0.35141   0.69838   0.89374   0.00000  Uiso   1.00
H835   H     0.18817   0.91325   0.46497   0.00000  Uiso   1.00
H836   H     0.34107   0.74471   0.86498   0.00000  Uiso   1.00
H837   H     0.37443   0.70353   0.84587   0.00000  Uiso   1.00
H838   H     0.10713   0.74175   0.08254   0.00000  Uiso   1.00
H839   H     0.08489   0.73401   0.13050   0.00000  Uiso   1.00
H840   H     0.12557   0.79647   0.15413   0.00000  Uiso   1.00
H841   H     0.15893   0.75529   0.13502   0.00000  Uiso   1.00
H842   H     0.14859   0.80162   0.10626   0.00000  Uiso   1.00
H843   H     0.21258   0.89551   0.91772   0.00000  Uiso   1.00
H844   H     0.23602   0.91526   0.87332   0.00000  Uiso   1.00
H845   H     0.16677   0.90592   0.83966   0.00000  Uiso   1.00
H846   H     0.31183   0.58675   0.53503   0.00000  Uiso   1.00
H847   H     0.18822   0.85749   0.85842   0.00000  Uiso   1.00
H848   H     0.14545   0.88340   0.88360   0.00000  Uiso   1.00
H849   H     0.26399   0.58474   0.12669   0.00000  Uiso   1.00
H850   H     0.28742   0.60448   0.08229   0.00000  Uiso   1.00
H851   H     0.35456   0.61660   0.11639   0.00000  Uiso   1.00
H852   H     0.31179   0.64251   0.14158   0.00000  Uiso   1.00
H853   H     0.33325   0.59407   0.16033   0.00000  Uiso   1.00
H854   H     0.08489   0.73401   0.86950   0.00000  Uiso   1.00
H855   H     0.10713   0.74175   0.91746   0.00000  Uiso   1.00
H856   H     0.14859   0.80162   0.89374   0.00000  Uiso   1.00
H857   H     0.16325   0.93817   0.96497   0.00000  Uiso   1.00
H858   H     0.15893   0.75529   0.86498   0.00000  Uiso   1.00
H859   H     0.12557   0.79647   0.84587   0.00000  Uiso   1.00
H860   H     0.39287   0.75825   0.08254   0.00000  Uiso   1.00
H861   H     0.41511   0.76600   0.13050   0.00000  Uiso   1.00
H862   H     0.37443   0.70353   0.15413   0.00000  Uiso   1.00
H863   H     0.34107   0.74472   0.13502   0.00000  Uiso   1.00
H864   H     0.35141   0.69838   0.10626   0.00000  Uiso   1.00
O865   O     0.25000   0.50000   0.25000   0.00000  Uiso   1.00
O866   O     0.25000   0.96538   0.66251   0.00000  Uiso   1.00
O867   O     0.46539   0.75000   0.33749   0.00000  Uiso   1.00
O868   O     0.03462   0.75000   0.66251   0.00000  Uiso   1.00
O869   O     0.00000   0.71538   0.83749   0.00000  Uiso   1.00
O870   O     0.00000   0.78461   0.16251   0.00000  Uiso   1.00
O871   O     0.28462   0.50000   0.83749   0.00000  Uiso   1.00
O872   O     0.21539   0.50000   0.16251   0.00000  Uiso   1.00
O873   O     0.00000   0.78461   0.83749   0.00000  Uiso   1.00
O874   O     0.00000   0.71538   0.16251   0.00000  Uiso   1.00
O875   O     0.21539   0.50000   0.83749   0.00000  Uiso   1.00
O876   O     0.25000   0.50000   0.75000   0.00000  Uiso   1.00
O877   O     0.28462   0.50000   0.16251   0.00000  Uiso   1.00
O878   O     0.20127   0.58332   0.27298   0.00000  Uiso   1.00
O879   O     0.29874   0.91668   0.72702   0.00000  Uiso   1.00
O880   O     0.41668   0.70126   0.27298   0.00000  Uiso   1.00
O881   O     0.08332   0.79873   0.72702   0.00000  Uiso   1.00
O882   O     0.29874   0.91668   0.27298   0.00000  Uiso   1.00
O883   O     0.20127   0.58332   0.72702   0.00000  Uiso   1.00
O884   O     0.08332   0.79873   0.27298   0.00000  Uiso   1.00
O885   O     0.41668   0.70126   0.72702   0.00000  Uiso   1.00
O886   O     0.20127   0.91668   0.72702   0.00000  Uiso   1.00
O887   O     0.00000   0.75000   0.25000   0.00000  Uiso   1.00
O888   O     0.29874   0.58332   0.27298   0.00000  Uiso   1.00
O889   O     0.41668   0.79873   0.72702   0.00000  Uiso   1.00
O890   O     0.08332   0.70126   0.27298   0.00000  Uiso   1.00
O891   O     0.29874   0.58332   0.72702   0.00000  Uiso   1.00
O892   O     0.20127   0.91668   0.27298   0.00000  Uiso   1.00
O893   O     0.08332   0.70126   0.72702   0.00000  Uiso   1.00
O894   O     0.41668   0.79873   0.27298   0.00000  Uiso   1.00
O895   O     0.45127   0.83332   0.77298   0.00000  Uiso   1.00
O896   O     0.04874   0.66668   0.22702   0.00000  Uiso   1.00
O897   O     0.16668   0.95126   0.77298   0.00000  Uiso   1.00
O898   O     0.00000   0.75000   0.75000   0.00000  Uiso   1.00
O899   O     0.33332   0.54873   0.22702   0.00000  Uiso   1.00
O900   O     0.04874   0.66668   0.77298   0.00000  Uiso   1.00
O901   O     0.45127   0.83332   0.22702   0.00000  Uiso   1.00
O902   O     0.33332   0.54873   0.77298   0.00000  Uiso   1.00
O903   O     0.16668   0.95126   0.22702   0.00000  Uiso   1.00
O904   O     0.45127   0.66668   0.22702   0.00000  Uiso   1.00
O905   O     0.04874   0.83332   0.77298   0.00000  Uiso   1.00
O906   O     0.16668   0.54873   0.22702   0.00000  Uiso   1.00
O907   O     0.33332   0.95126   0.77298   0.00000  Uiso   1.00
O908   O     0.04874   0.83332   0.22702   0.00000  Uiso   1.00
O909   O     0.25000   0.96538   0.33749   0.00000  Uiso   1.00
O910   O     0.45127   0.66668   0.77298   0.00000  Uiso   1.00
O911   O     0.33332   0.95126   0.22702   0.00000  Uiso   1.00
O912   O     0.16668   0.54873   0.77298   0.00000  Uiso   1.00
O913   O     0.03851   0.81556   0.39809   0.00000  Uiso   1.00
O914   O     0.46149   0.68444   0.60191   0.00000  Uiso   1.00
O915   O     0.20341   0.93970   0.39843   0.00000  Uiso   1.00
O916   O     0.29659   0.56030   0.60157   0.00000  Uiso   1.00
O917   O     0.46149   0.68444   0.39809   0.00000  Uiso   1.00
O918   O     0.03851   0.81556   0.60191   0.00000  Uiso   1.00
O919   O     0.29659   0.56030   0.39843   0.00000  Uiso   1.00
O920   O     0.25000   0.53461   0.66251   0.00000  Uiso   1.00
O921   O     0.20341   0.93970   0.60157   0.00000  Uiso   1.00
O922   O     0.31030   0.54659   0.89843   0.00000  Uiso   1.00
O923   O     0.18970   0.95341   0.10157   0.00000  Uiso   1.00
O924   O     0.43444   0.71149   0.89809   0.00000  Uiso   1.00
O925   O     0.06556   0.78851   0.10191   0.00000  Uiso   1.00
O926   O     0.18970   0.95341   0.89843   0.00000  Uiso   1.00
O927   O     0.31030   0.54659   0.10157   0.00000  Uiso   1.00
O928   O     0.06556   0.78851   0.89809   0.00000  Uiso   1.00
O929   O     0.43444   0.71149   0.10191   0.00000  Uiso   1.00
O930   O     0.03462   0.75000   0.33749   0.00000  Uiso   1.00
O931   O     0.46539   0.75000   0.66251   0.00000  Uiso   1.00
O932   O     0.25000   0.53461   0.33749   0.00000  Uiso   1.00
Zn933  Zn    0.20053   0.50000   0.21730   0.00000  Uiso   1.00
Zn934  Zn    0.04948   0.75000   0.28270   0.00000  Uiso   1.00
Zn935  Zn    0.25000   0.95052   0.71730   0.00000  Uiso   1.00
Zn936  Zn    0.25000   0.54947   0.28270   0.00000  Uiso   1.00
Zn937  Zn    0.04948   0.75000   0.71730   0.00000  Uiso   1.00
Zn938  Zn    0.45053   0.75000   0.28270   0.00000  Uiso   1.00
Zn939  Zn    0.25000   0.54947   0.71730   0.00000  Uiso   1.00
Zn940  Zn    0.25000   0.95052   0.28270   0.00000  Uiso   1.00
Zn941  Zn    0.29948   0.50000   0.78270   0.00000  Uiso   1.00
Zn942  Zn    0.00000   0.70052   0.21730   0.00000  Uiso   1.00
Zn943  Zn    0.00000   0.79947   0.78270   0.00000  Uiso   1.00
Zn944  Zn    0.29948   0.50000   0.21730   0.00000  Uiso   1.00
Zn945  Zn    0.20053   0.50000   0.78270   0.00000  Uiso   1.00
Zn946  Zn    0.00000   0.79947   0.21730   0.00000  Uiso   1.00
Zn947  Zn    0.00000   0.70052   0.78270   0.00000  Uiso   1.00
Zn948  Zn    0.45053   0.75000   0.71730   0.00000  Uiso   1.00
C949   C     0.75000   0.50000   0.35594   0.00000  Uiso   1.00
C950   C     0.83002   0.91998   0.75000   0.00000  Uiso   1.00
C951   C     0.93560   0.70865   0.02018   0.00000  Uiso   1.00
C952   C     0.81228   0.54450   0.97985   0.00000  Uiso   1.00
C953   C     0.68772   0.95550   0.02015   0.00000  Uiso   1.00
C954   C     0.93560   0.70865   0.97982   0.00000  Uiso   1.00
C955   C     0.56440   0.79135   0.02018   0.00000  Uiso   1.00
C956   C     0.50790   0.84673   0.39039   0.00000  Uiso   1.00
C957   C     0.52923   0.88484   0.37256   0.00000  Uiso   1.00
C958   C     0.99210   0.65327   0.60961   0.00000  Uiso   1.00
C959   C     0.97078   0.61516   0.62744   0.00000  Uiso   1.00
C960   C     0.66312   0.95634   0.39038   0.00000  Uiso   1.00
C961   C     0.91997   0.66997   0.25000   0.00000  Uiso   1.00
C962   C     0.63843   0.92464   0.36654   0.00000  Uiso   1.00
C963   C     0.83688   0.54366   0.60962   0.00000  Uiso   1.00
C964   C     0.86157   0.57536   0.63346   0.00000  Uiso   1.00
C965   C     0.99210   0.65327   0.39039   0.00000  Uiso   1.00
C966   C     0.97077   0.61516   0.37256   0.00000  Uiso   1.00
C967   C     0.50790   0.84673   0.60961   0.00000  Uiso   1.00
C968   C     0.52922   0.88484   0.62744   0.00000  Uiso   1.00
C969   C     0.83688   0.54366   0.39038   0.00000  Uiso   1.00
C970   C     0.86157   0.57536   0.36654   0.00000  Uiso   1.00
C971   C     0.66312   0.95634   0.60962   0.00000  Uiso   1.00
C972   C     0.58003   0.83003   0.75000   0.00000  Uiso   1.00
C973   C     0.63843   0.92463   0.63346   0.00000  Uiso   1.00
C974   C     0.79366   0.58688   0.89038   0.00000  Uiso   1.00
C975   C     0.82536   0.61157   0.86654   0.00000  Uiso   1.00
C976   C     0.70634   0.91312   0.10962   0.00000  Uiso   1.00
C977   C     0.67464   0.88843   0.13346   0.00000  Uiso   1.00
C978   C     0.90327   0.74210   0.89039   0.00000  Uiso   1.00
C979   C     0.86516   0.72078   0.87256   0.00000  Uiso   1.00
C980   C     0.59673   0.75790   0.10961   0.00000  Uiso   1.00
C981   C     0.63484   0.77923   0.12744   0.00000  Uiso   1.00
C982   C     0.70634   0.91312   0.89038   0.00000  Uiso   1.00
C983   C     0.83002   0.91998   0.25000   0.00000  Uiso   1.00
C984   C     0.67464   0.88843   0.86654   0.00000  Uiso   1.00
C985   C     0.79366   0.58688   0.10962   0.00000  Uiso   1.00
C986   C     0.82537   0.61156   0.13346   0.00000  Uiso   1.00
C987   C     0.59673   0.75790   0.89039   0.00000  Uiso   1.00
C988   C     0.63484   0.77922   0.87256   0.00000  Uiso   1.00
C989   C     0.90327   0.74210   0.10961   0.00000  Uiso   1.00
C990   C     0.86516   0.72078   0.12744   0.00000  Uiso   1.00
C991   C     0.66998   0.58002   0.75000   0.00000  Uiso   1.00
C992   C     0.58003   0.83003   0.25000   0.00000  Uiso   1.00
C993   C     0.91997   0.66997   0.75000   0.00000  Uiso   1.00
C994   C     0.66998   0.91998   0.75000   0.00000  Uiso   1.00
C995   C     0.83002   0.58002   0.25000   0.00000  Uiso   1.00
C996   C     0.91998   0.83002   0.75000   0.00000  Uiso   1.00
C997   C     0.75000   0.50000   0.64406   0.00000  Uiso   1.00
C998   C     0.58002   0.66998   0.25000   0.00000  Uiso   1.00
C999   C     0.83002   0.58002   0.75000   0.00000  Uiso   1.00
C1000  C     0.66998   0.91998   0.25000   0.00000  Uiso   1.00
C1001  C     0.58002   0.66998   0.75000   0.00000  Uiso   1.00
C1002  C     0.91998   0.83002   0.25000   0.00000  Uiso   1.00
C1003  C     0.63833   0.88833   0.25000   0.00000  Uiso   1.00
C1004  C     0.86167   0.61167   0.75000   0.00000  Uiso   1.00
C1005  C     0.61167   0.63833   0.25000   0.00000  Uiso   1.00
C1006  C     0.88833   0.86167   0.75000   0.00000  Uiso   1.00
C1007  C     0.86167   0.61167   0.25000   0.00000  Uiso   1.00
C1008  C     0.50000   0.75000   0.35590   0.00000  Uiso   1.00
C1009  C     0.63833   0.88833   0.75000   0.00000  Uiso   1.00
C1010  C     0.88833   0.86167   0.25000   0.00000  Uiso   1.00
C1011  C     0.61167   0.63833   0.75000   0.00000  Uiso   1.00
C1012  C     0.63833   0.61167   0.75000   0.00000  Uiso   1.00
C1013  C     0.86167   0.88833   0.25000   0.00000  Uiso   1.00
C1014  C     0.61168   0.86168   0.75000   0.00000  Uiso   1.00
C1015  C     0.88832   0.63832   0.25000   0.00000  Uiso   1.00
C1016  C     0.86167   0.88833   0.75000   0.00000  Uiso   1.00
C1017  C     0.63833   0.61167   0.25000   0.00000  Uiso   1.00
C1018  C     0.88832   0.63832   0.75000   0.00000  Uiso   1.00
C1019  C     0.50000   0.75000   0.64410   0.00000  Uiso   1.00
C1020  C     0.61168   0.86168   0.25000   0.00000  Uiso   1.00
C1021  C     0.51955   0.78311   0.41836   0.00000  Uiso   1.00
C1022  C     0.98045   0.71689   0.58164   0.00000  Uiso   1.00
C1023  C     0.72637   0.96960   0.41854   0.00000  Uiso   1.00
C1024  C     0.77363   0.53040   0.58146   0.00000  Uiso   1.00
C1025  C     0.98045   0.71689   0.41836   0.00000  Uiso   1.00
C1026  C     0.51955   0.78311   0.58164   0.00000  Uiso   1.00
C1027  C     0.77363   0.53040   0.41854   0.00000  Uiso   1.00
C1028  C     0.72637   0.96960   0.58146   0.00000  Uiso   1.00
C1029  C     0.78040   0.52363   0.91853   0.00000  Uiso   1.00
C1030  C     0.50000   0.75000   0.85590   0.00000  Uiso   1.00
C1031  C     0.71960   0.97637   0.08146   0.00000  Uiso   1.00
C1032  C     0.96689   0.73045   0.91836   0.00000  Uiso   1.00
C1033  C     0.53311   0.76955   0.08164   0.00000  Uiso   1.00
C1034  C     0.71960   0.97637   0.91853   0.00000  Uiso   1.00
C1035  C     0.78040   0.52363   0.08146   0.00000  Uiso   1.00
C1036  C     0.53311   0.76955   0.91836   0.00000  Uiso   1.00
C1037  C     0.96689   0.73045   0.08164   0.00000  Uiso   1.00
C1038  C     0.50000   0.75000   0.39822   0.00000  Uiso   1.00
C1039  C     0.50000   0.75000   0.60179   0.00000  Uiso   1.00
C1040  C     0.75000   0.50000   0.39832   0.00000  Uiso   1.00
C1041  C     0.50000   0.75000   0.14410   0.00000  Uiso   1.00
C1042  C     0.75000   0.50000   0.60168   0.00000  Uiso   1.00
C1043  C     0.75000   0.50000   0.89832   0.00000  Uiso   1.00
C1044  C     0.75000   0.50000   0.10168   0.00000  Uiso   1.00
C1045  C     0.50000   0.75000   0.89821   0.00000  Uiso   1.00
C1046  C     0.50000   0.75000   0.10179   0.00000  Uiso   1.00
C1047  C     0.97943   0.71740   0.45911   0.00000  Uiso   1.00
C1048  C     0.52057   0.78260   0.54089   0.00000  Uiso   1.00
C1049  C     0.77271   0.53115   0.45919   0.00000  Uiso   1.00
C1050  C     0.72729   0.96885   0.54081   0.00000  Uiso   1.00
C1051  C     0.52057   0.78260   0.45911   0.00000  Uiso   1.00
C1052  C     0.75000   0.50000   0.85594   0.00000  Uiso   1.00
C1053  C     0.97943   0.71740   0.54089   0.00000  Uiso   1.00
C1054  C     0.72729   0.96885   0.45919   0.00000  Uiso   1.00
C1055  C     0.77271   0.53115   0.54081   0.00000  Uiso   1.00
C1056  C     0.71885   0.97729   0.95919   0.00000  Uiso   1.00
C1057  C     0.78115   0.52271   0.04081   0.00000  Uiso   1.00
C1058  C     0.53260   0.77057   0.95911   0.00000  Uiso   1.00
C1059  C     0.96740   0.72943   0.04089   0.00000  Uiso   1.00
C1060  C     0.78115   0.52271   0.95919   0.00000  Uiso   1.00
C1061  C     0.71885   0.97729   0.04081   0.00000  Uiso   1.00
C1062  C     0.96740   0.72943   0.95911   0.00000  Uiso   1.00
C1063  C     0.75000   0.50000   0.14406   0.00000  Uiso   1.00
C1064  C     0.53260   0.77057   0.04089   0.00000  Uiso   1.00
C1065  C     0.50000   0.75000   0.47952   0.00000  Uiso   1.00
C1066  C     0.50000   0.75000   0.52048   0.00000  Uiso   1.00
C1067  C     0.75000   0.50000   0.47956   0.00000  Uiso   1.00
C1068  C     0.75000   0.50000   0.52044   0.00000  Uiso   1.00
C1069  C     0.75000   0.50000   0.97956   0.00000  Uiso   1.00
C1070  C     0.75000   0.50000   0.02044   0.00000  Uiso   1.00
C1071  C     0.50000   0.75000   0.97952   0.00000  Uiso   1.00
C1072  C     0.50000   0.75000   0.02048   0.00000  Uiso   1.00
C1073  C     0.95865   0.68560   0.47982   0.00000  Uiso   1.00
C1074  C     0.66998   0.58002   0.25000   0.00000  Uiso   1.00
C1075  C     0.54135   0.81440   0.52018   0.00000  Uiso   1.00
C1076  C     0.79450   0.56228   0.47985   0.00000  Uiso   1.00
C1077  C     0.70550   0.93772   0.52015   0.00000  Uiso   1.00
C1078  C     0.54135   0.81440   0.47982   0.00000  Uiso   1.00
C1079  C     0.95865   0.68560   0.52018   0.00000  Uiso   1.00
C1080  C     0.70550   0.93772   0.47985   0.00000  Uiso   1.00
C1081  C     0.79450   0.56228   0.52015   0.00000  Uiso   1.00
C1082  C     0.68772   0.95550   0.97985   0.00000  Uiso   1.00
C1083  C     0.81228   0.54450   0.02015   0.00000  Uiso   1.00
C1084  C     0.56440   0.79135   0.97982   0.00000  Uiso   1.00
H1085  H     0.94239   0.66042   0.46491   0.00000  Uiso   1.00
H1086  H     0.83675   0.56183   0.03503   0.00000  Uiso   1.00
H1087  H     0.58958   0.80761   0.96491   0.00000  Uiso   1.00
H1088  H     0.91042   0.69239   0.03509   0.00000  Uiso   1.00
H1089  H     0.83675   0.56183   0.96497   0.00000  Uiso   1.00
H1090  H     0.66325   0.93817   0.03503   0.00000  Uiso   1.00
H1091  H     0.91042   0.69239   0.96491   0.00000  Uiso   1.00
H1092  H     0.58958   0.80761   0.03509   0.00000  Uiso   1.00
H1093  H     0.99175   0.85713   0.41746   0.00000  Uiso   1.00
H1094  H     0.98401   0.83489   0.36950   0.00000  Uiso   1.00
H1095  H     0.54647   0.87557   0.34587   0.00000  Uiso   1.00
H1096  H     0.55761   0.83958   0.53509   0.00000  Uiso   1.00
H1097  H     0.50529   0.90893   0.36498   0.00000  Uiso   1.00
H1098  H     0.55162   0.89859   0.39374   0.00000  Uiso   1.00
H1099  H     0.51600   0.66511   0.63050   0.00000  Uiso   1.00
H1100  H     0.50825   0.64287   0.58254   0.00000  Uiso   1.00
H1101  H     0.94838   0.60141   0.60626   0.00000  Uiso   1.00
H1102  H     0.99471   0.59107   0.63502   0.00000  Uiso   1.00
H1103  H     0.95353   0.62443   0.65413   0.00000  Uiso   1.00
H1104  H     0.66526   0.98602   0.37332   0.00000  Uiso   1.00
H1105  H     0.64551   0.96258   0.41772   0.00000  Uiso   1.00
H1106  H     0.63340   0.89545   0.38360   0.00000  Uiso   1.00
H1107  H     0.81183   0.58675   0.46497   0.00000  Uiso   1.00
H1108  H     0.60749   0.93822   0.35842   0.00000  Uiso   1.00
H1109  H     0.65592   0.91677   0.33967   0.00000  Uiso   1.00
H1110  H     0.85449   0.53742   0.58228   0.00000  Uiso   1.00
H1111  H     0.83474   0.51398   0.62668   0.00000  Uiso   1.00
H1112  H     0.84408   0.58323   0.66033   0.00000  Uiso   1.00
H1113  H     0.89251   0.56178   0.64158   0.00000  Uiso   1.00
H1114  H     0.86660   0.60455   0.61640   0.00000  Uiso   1.00
H1115  H     0.50825   0.64287   0.41746   0.00000  Uiso   1.00
H1116  H     0.51599   0.66511   0.36950   0.00000  Uiso   1.00
H1117  H     0.95353   0.62443   0.34587   0.00000  Uiso   1.00
H1118  H     0.68817   0.91325   0.53503   0.00000  Uiso   1.00
H1119  H     0.99471   0.59107   0.36498   0.00000  Uiso   1.00
H1120  H     0.94838   0.60141   0.39374   0.00000  Uiso   1.00
H1121  H     0.98400   0.83489   0.63050   0.00000  Uiso   1.00
H1122  H     0.99175   0.85713   0.58254   0.00000  Uiso   1.00
H1123  H     0.55162   0.89859   0.60626   0.00000  Uiso   1.00
H1124  H     0.50528   0.90893   0.63502   0.00000  Uiso   1.00
H1125  H     0.54647   0.87557   0.65413   0.00000  Uiso   1.00
H1126  H     0.83474   0.51398   0.37332   0.00000  Uiso   1.00
H1127  H     0.85449   0.53743   0.41772   0.00000  Uiso   1.00
H1128  H     0.86660   0.60455   0.38360   0.00000  Uiso   1.00
H1129  H     0.55761   0.83958   0.46491   0.00000  Uiso   1.00
H1130  H     0.89251   0.56178   0.35842   0.00000  Uiso   1.00
H1131  H     0.84408   0.58323   0.33966   0.00000  Uiso   1.00
H1132  H     0.64551   0.96258   0.58228   0.00000  Uiso   1.00
H1133  H     0.66526   0.98601   0.62669   0.00000  Uiso   1.00
H1134  H     0.65592   0.91676   0.66033   0.00000  Uiso   1.00
H1135  H     0.60749   0.93822   0.64158   0.00000  Uiso   1.00
H1136  H     0.63340   0.89544   0.61639   0.00000  Uiso   1.00
H1137  H     0.78742   0.60449   0.91772   0.00000  Uiso   1.00
H1138  H     0.76398   0.58474   0.87332   0.00000  Uiso   1.00
H1139  H     0.83323   0.59408   0.83966   0.00000  Uiso   1.00
H1140  H     0.94239   0.66042   0.53509   0.00000  Uiso   1.00
H1141  H     0.81178   0.64251   0.85842   0.00000  Uiso   1.00
H1142  H     0.85455   0.61660   0.88360   0.00000  Uiso   1.00
H1143  H     0.73602   0.91526   0.12668   0.00000  Uiso   1.00
H1144  H     0.71257   0.89551   0.08228   0.00000  Uiso   1.00
H1145  H     0.64545   0.88340   0.11640   0.00000  Uiso   1.00
H1146  H     0.68822   0.85749   0.14158   0.00000  Uiso   1.00
H1147  H     0.66677   0.90592   0.16034   0.00000  Uiso   1.00
H1148  H     0.91511   0.76599   0.86950   0.00000  Uiso   1.00
H1149  H     0.89287   0.75825   0.91746   0.00000  Uiso   1.00
H1150  H     0.85141   0.69838   0.89374   0.00000  Uiso   1.00
H1151  H     0.68817   0.91325   0.46497   0.00000  Uiso   1.00
H1152  H     0.84107   0.74471   0.86498   0.00000  Uiso   1.00
H1153  H     0.87443   0.70353   0.84587   0.00000  Uiso   1.00
H1154  H     0.60713   0.74175   0.08254   0.00000  Uiso   1.00
H1155  H     0.58489   0.73401   0.13050   0.00000  Uiso   1.00
H1156  H     0.62557   0.79647   0.15413   0.00000  Uiso   1.00
H1157  H     0.65893   0.75529   0.13502   0.00000  Uiso   1.00
H1158  H     0.64859   0.80162   0.10626   0.00000  Uiso   1.00
H1159  H     0.71258   0.89551   0.91772   0.00000  Uiso   1.00
H1160  H     0.73602   0.91526   0.87332   0.00000  Uiso   1.00
H1161  H     0.66677   0.90592   0.83966   0.00000  Uiso   1.00
H1162  H     0.81183   0.58675   0.53503   0.00000  Uiso   1.00
H1163  H     0.68822   0.85749   0.85842   0.00000  Uiso   1.00
H1164  H     0.64545   0.88340   0.88360   0.00000  Uiso   1.00
H1165  H     0.76399   0.58474   0.12669   0.00000  Uiso   1.00
H1166  H     0.78742   0.60448   0.08229   0.00000  Uiso   1.00
H1167  H     0.85456   0.61660   0.11639   0.00000  Uiso   1.00
H1168  H     0.81179   0.64251   0.14158   0.00000  Uiso   1.00
H1169  H     0.83325   0.59407   0.16033   0.00000  Uiso   1.00
H1170  H     0.58489   0.73401   0.86950   0.00000  Uiso   1.00
H1171  H     0.60713   0.74175   0.91746   0.00000  Uiso   1.00
H1172  H     0.64859   0.80162   0.89374   0.00000  Uiso   1.00
H1173  H     0.66325   0.93817   0.96497   0.00000  Uiso   1.00
H1174  H     0.65893   0.75529   0.86498   0.00000  Uiso   1.00
H1175  H     0.62557   0.79647   0.84587   0.00000  Uiso   1.00
H1176  H     0.89287   0.75825   0.08254   0.00000  Uiso   1.00
H1177  H     0.91511   0.76600   0.13050   0.00000  Uiso   1.00
H1178  H     0.87443   0.70353   0.15413   0.00000  Uiso   1.00
H1179  H     0.84107   0.74472   0.13502   0.00000  Uiso   1.00
H1180  H     0.85141   0.69838   0.10626   0.00000  Uiso   1.00
O1181  O     0.75000   0.50000   0.25000   0.00000  Uiso   1.00
O1182  O     0.75000   0.96538   0.66251   0.00000  Uiso   1.00
O1183  O     0.96539   0.75000   0.33749   0.00000  Uiso   1.00
O1184  O     0.53462   0.75000   0.66251   0.00000  Uiso   1.00
O1185  O     0.50000   0.71538   0.83749   0.00000  Uiso   1.00
O1186  O     0.50000   0.78461   0.16251   0.00000  Uiso   1.00
O1187  O     0.78462   0.50000   0.83749   0.00000  Uiso   1.00
O1188  O     0.71539   0.50000   0.16251   0.00000  Uiso   1.00
O1189  O     0.50000   0.78461   0.83749   0.00000  Uiso   1.00
O1190  O     0.50000   0.71538   0.16251   0.00000  Uiso   1.00
O1191  O     0.71539   0.50000   0.83749   0.00000  Uiso   1.00
O1192  O     0.75000   0.50000   0.75000   0.00000  Uiso   1.00
O1193  O     0.78462   0.50000   0.16251   0.00000  Uiso   1.00
O1194  O     0.70127   0.58332   0.27298   0.00000  Uiso   1.00
O1195  O     0.79874   0.91668   0.72702   0.00000  Uiso   1.00
O1196  O     0.91668   0.70126   0.27298   0.00000  Uiso   1.00
O1197  O     0.58332   0.79873   0.72702   0.00000  Uiso   1.00
O1198  O     0.79874   0.91668   0.27298   0.00000  Uiso   1.00
O1199  O     0.70127   0.58332   0.72702   0.00000  Uiso   1.00
O1200  O     0.58332   0.79873   0.27298   0.00000  Uiso   1.00
O1201  O     0.91668   0.70126   0.72702   0.00000  Uiso   1.00
O1202  O     0.70127   0.91668   0.72702   0.00000  Uiso   1.00
O1203  O     0.50000   0.75000   0.25000   0.00000  Uiso   1.00
O1204  O     0.79874   0.58332   0.27298   0.00000  Uiso   1.00
O1205  O     0.91668   0.79873   0.72702   0.00000  Uiso   1.00
O1206  O     0.58332   0.70126   0.27298   0.00000  Uiso   1.00
O1207  O     0.79874   0.58332   0.72702   0.00000  Uiso   1.00
O1208  O     0.70127   0.91668   0.27298   0.00000  Uiso   1.00
O1209  O     0.58332   0.70126   0.72702   0.00000  Uiso   1.00
O1210  O     0.91668   0.79873   0.27298   0.00000  Uiso   1.00
O1211  O     0.95127   0.83332   0.77298   0.00000  Uiso   1.00
O1212  O     0.54874   0.66668   0.22702   0.00000  Uiso   1.00
O1213  O     0.66668   0.95126   0.77298   0.00000  Uiso   1.00
O1214  O     0.50000   0.75000   0.75000   0.00000  Uiso   1.00
O1215  O     0.83332   0.54873   0.22702   0.00000  Uiso   1.00
O1216  O     0.54874   0.66668   0.77298   0.00000  Uiso   1.00
O1217  O     0.95127   0.83332   0.22702   0.00000  Uiso   1.00
O1218  O     0.83332   0.54873   0.77298   0.00000  Uiso   1.00
O1219  O     0.66668   0.95126   0.22702   0.00000  Uiso   1.00
O1220  O     0.95127   0.66668   0.22702   0.00000  Uiso   1.00
O1221  O     0.54874   0.83332   0.77298   0.00000  Uiso   1.00
O1222  O     0.66668   0.54873   0.22702   0.00000  Uiso   1.00
O1223  O     0.83332   0.95126   0.77298   0.00000  Uiso   1.00
O1224  O     0.54874   0.83332   0.22702   0.00000  Uiso   1.00
O1225  O     0.75000   0.96538   0.33749   0.00000  Uiso   1.00
O1226  O     0.95127   0.66668   0.77298   0.00000  Uiso   1.00
O1227  O     0.83332   0.95126   0.22702   0.00000  Uiso   1.00
O1228  O     0.66668   0.54873   0.77298   0.00000  Uiso   1.00
O1229  O     0.53851   0.81556   0.39809   0.00000  Uiso   1.00
O1230  O     0.96149   0.68444   0.60191   0.00000  Uiso   1.00
O1231  O     0.70341   0.93970   0.39843   0.00000  Uiso   1.00
O1232  O     0.79659   0.56030   0.60157   0.00000  Uiso   1.00
O1233  O     0.96149   0.68444   0.39809   0.00000  Uiso   1.00
O1234  O     0.53851   0.81556   0.60191   0.00000  Uiso   1.00
O1235  O     0.79659   0.56030   0.39843   0.00000  Uiso   1.00
O1236  O     0.75000   0.53461   0.66251   0.00000  Uiso   1.00
O1237  O     0.70341   0.93970   0.60157   0.00000  Uiso   1.00
O1238  O     0.81030   0.54659   0.89843   0.00000  Uiso   1.00
O1239  O     0.68970   0.95341   0.10157   0.00000  Uiso   1.00
O1240  O     0.93444   0.71149   0.89809   0.00000  Uiso   1.00
O1241  O     0.56556   0.78851   0.10191   0.00000  Uiso   1.00
O1242  O     0.68970   0.95341   0.89843   0.00000  Uiso   1.00
O1243  O     0.81030   0.54659   0.10157   0.00000  Uiso   1.00
O1244  O     0.56556   0.78851   0.89809   0.00000  Uiso   1.00
O1245  O     0.93444   0.71149   0.10191   0.00000  Uiso   1.00
O1246  O     0.53462   0.75000   0.33749   0.00000  Uiso   1.00
O1247  O     0.96539   0.75000   0.66251   0.00000  Uiso   1.00
O1248  O     0.75000   0.53461   0.33749   0.00000  Uiso   1.00
Zn1249 Zn    0.70053   0.50000   0.21730   0.00000  Uiso   1.00
Zn1250 Zn    0.54948   0.75000   0.28270   0.00000  Uiso   1.00
Zn1251 Zn    0.75000   0.95052   0.71730   0.00000  Uiso   1.00
Zn1252 Zn    0.75000   0.54947   0.28270   0.00000  Uiso   1.00
Zn1253 Zn    0.54948   0.75000   0.71730   0.00000  Uiso   1.00
Zn1254 Zn    0.95053   0.75000   0.28270   0.00000  Uiso   1.00
Zn1255 Zn    0.75000   0.54947   0.71730   0.00000  Uiso   1.00
Zn1256 Zn    0.75000   0.95052   0.28270   0.00000  Uiso   1.00
Zn1257 Zn    0.79948   0.50000   0.78270   0.00000  Uiso   1.00
Zn1258 Zn    0.50000   0.70052   0.21730   0.00000  Uiso   1.00
Zn1259 Zn    0.50000   0.79947   0.78270   0.00000  Uiso   1.00
Zn1260 Zn    0.79948   0.50000   0.21730   0.00000  Uiso   1.00
Zn1261 Zn    0.70053   0.50000   0.78270   0.00000  Uiso   1.00
Zn1262 Zn    0.50000   0.79947   0.21730   0.00000  Uiso   1.00
Zn1263 Zn    0.50000   0.70052   0.78270   0.00000  Uiso   1.00
Zn1264 Zn    0.95053   0.75000   0.71730   0.00000  Uiso   1.00
loop_
_geom_bond_atom_site_label_1
_geom_bond_atom_site_label_2
_geom_bond_distance
_geom_bond_site_symmetry_2
_ccdc_geom_bond_type
C1     O300    1.271   .     A
C1     C92     1.462   .     S
C1     O909    1.271   1_545 S
C2     O247    1.276   .     A
C2     C68     1.422   .     S
C2     O275    1.276   .     A
C3     C111    1.404   .     A
C3     H140    1.083   .     S
C3     C6      1.392   1_554 S
C4     H141    1.083   .     S
C4     C112    1.403   .     A
C4     C135    1.390   1_556 S
C5     C113    1.403   .     A
C5     H142    1.083   .     S
C5     C134    1.390   1_554 S
C6     C114    1.404   .     A
C6     H143    1.083   .     S
C6     C3      1.392   1_556 S
C7     C116    1.404   .     A
C7     H144    1.083   .     S
C7     C136    1.392   1_554 S
C8     C9      1.519   .     S
C8     O281    1.413   .     S
C8     H461    1.115   1_455 S
C8     H462    1.113   1_455 S
C9     H149    1.110   .     S
C9     H150    1.110   .     S
C9     H147    1.111   .     S
C10    O282    1.413   .     S
C10    C11     1.519   .     S
C10    H467    1.113   .     S
C10    H468    1.115   .     S
C11    H154    1.110   .     S
C11    H155    1.111   .     S
C11    H153    1.110   .     S
C12    H157    1.114   .     S
C12    H156    1.114   .     S
C12    C14     1.520   .     S
C12    O283    1.413   .     S
C13    O272    1.276   .     A
C13    O248    1.276   .     A
C13    C67     1.424   .     S
C14    H158    1.111   .     S
C14    H161    1.109   .     S
C14    H160    1.110   .     S
C15    H163    1.114   .     S
C15    O284    1.413   .     S
C15    H162    1.114   .     S
C15    C16     1.520   .     S
C16    H165    1.110   .     S
C16    H164    1.109   .     S
C16    H166    1.111   .     S
C17    C18     1.519   .     S
C17    O285    1.413   .     S
C17    H483    1.115   .     S
C17    H484    1.113   .     S
C18    H171    1.110   .     S
C18    H169    1.111   .     S
C18    H172    1.110   .     S
C19    C20     1.519   .     S
C19    O286    1.413   .     S
C19    H489    1.113   1_455 S
C19    H490    1.115   1_455 S
C20    H175    1.110   .     S
C20    H177    1.111   .     S
C20    H176    1.110   .     S
C21    C22     1.520   .     S
C21    H179    1.114   .     S
C21    H178    1.114   .     S
C21    O287    1.413   .     S
C22    H182    1.110   .     S
C22    H180    1.111   .     S
C22    H183    1.109   .     S
C23    O289    1.413   .     S
C23    H185    1.114   .     S
C23    C25     1.520   .     S
C23    H184    1.114   .     S
C24    O249    1.276   .     A
C24    C66     1.424   .     S
C24    O273    1.276   .     A
C25    H187    1.110   .     S
C25    H186    1.109   .     S
C25    H188    1.111   .     S
C26    O290    1.413   .     S
C26    H189    1.114   .     S
C26    C27     1.520   .     S
C26    H190    1.114   .     S
C27    H194    1.111   .     S
C27    H193    1.110   .     S
C27    H191    1.109   .     S
C28    H195    1.114   .     S
C28    H196    1.114   .     S
C28    C29     1.520   .     S
C28    O291    1.413   .     S
C29    H199    1.109   .     S
C29    H198    1.110   .     S
C29    H197    1.111   .     S
C30    H200    1.113   .     S
C30    C31     1.519   .     S
C30    H201    1.115   .     S
C30    O292    1.413   .     S
C31    H205    1.111   .     S
C31    H204    1.110   .     S
C31    H202    1.110   .     S
C32    O293    1.413   .     S
C32    H206    1.115   .     S
C32    C33     1.519   .     S
C32    H207    1.113   .     S
C33    H208    1.111   .     S
C33    H210    1.110   .     S
C33    H209    1.110   .     S
C34    H212    1.114   .     S
C34    O294    1.413   .     S
C34    H211    1.114   .     S
C34    C36     1.520   .     S
C35    O250    1.276   .     A
C35    C65     1.422   .     S
C35    O279    1.276   .     A
C36    H215    1.110   .     S
C36    H216    1.111   .     S
C36    H213    1.109   .     S
C37    H218    1.114   .     S
C37    C38     1.520   .     S
C37    O295    1.413   .     S
C37    H217    1.114   .     S
C38    H221    1.109   .     S
C38    H219    1.111   .     S
C38    H220    1.110   .     S
C39    H222    1.113   .     S
C39    C40     1.519   .     S
C39    H223    1.115   .     S
C39    O296    1.413   .     S
C40    H226    1.110   .     S
C40    H227    1.111   .     S
C40    H224    1.110   .     S
C41    H228    1.115   .     S
C41    C42     1.519   .     S
C41    O297    1.413   .     S
C41    H229    1.113   .     S
C42    H231    1.110   .     S
C42    H232    1.110   .     S
C42    H230    1.111   .     S
C43    O251    1.276   .     A
C43    C64     1.422   .     S
C43    O280    1.276   .     A
C44    O276    1.276   .     A
C44    C72     1.424   .     S
C44    O252    1.276   .     A
C45    C70     1.424   .     S
C45    O278    1.276   .     A
C45    O253    1.276   .     A
C46    O265    1.276   .     A
C46    C61     1.424   .     S
C46    O254    1.276   .     A
C47    O267    1.276   .     A
C47    O256    1.276   .     A
C47    C59     1.424   .     S
C48    O263    1.276   .     A
C48    C58     1.422   .     S
C48    O257    1.276   .     A
C49    O288    1.271   .     A
C49    C94     1.462   .     S
C49    O866    1.271   1_545 S
C50    C57     1.422   .     S
C50    O258    1.276   .     A
C50    O264    1.276   .     A
C51    O270    1.276   .     A
C51    O259    1.276   .     A
C51    C56     1.424   .     S
C52    O260    1.276   .     A
C52    C55     1.424   .     S
C52    O271    1.276   .     A
C53    O261    1.276   .     A
C53    C63     1.422   .     S
C53    O268    1.276   .     A
C54    O269    1.276   .     A
C54    C62     1.422   .     S
C54    O262    1.276   .     A
C55    C72     1.199   .     T
C56    C70     1.199   .     T
C57    C69     1.198   .     T
C58    C68     1.198   .     T
C59    C67     1.199   .     T
C60    O298    1.271   .     A
C60    C90     1.459   .     S
C60    O551    1.271   1_455 S
C61    C66     1.199   .     T
C62    C65     1.198   .     T
C63    C64     1.198   .     T
C69    C126    1.422   .     S
C71    O615    1.271   1_455 A
C71    C91     1.459   .     S
C71    O236    1.271   .     S
C73    C103    1.406   .     A
C73    O281    1.385   .     S
C73    C90     1.407   .     S
C74    C105    1.406   .     A
C74    C407    1.407   .     A
C74    O282    1.385   .     S
C75    C106    1.403   .     A
C75    O283    1.385   .     S
C75    C724    1.409   .     S
C76    C94     1.409   .     A
C76    O284    1.385   .     S
C76    C107    1.403   .     A
C77    O285    1.385   .     S
C77    C99     1.406   .     A
C77    C406    1.407   .     A
C78    O286    1.385   .     S
C78    C100    1.406   .     A
C78    C91     1.407   .     S
C79    O287    1.385   .     S
C79    C101    1.403   .     A
C79    C92     1.409   .     A
C80    C102    1.403   .     A
C80    O289    1.385   .     S
C80    C726    1.409   .     S
C81    C95     1.409   .     A
C81    O290    1.385   .     S
C81    C112    1.403   .     A
C82    O237    1.271   .     A
C82    O241    1.271   .     A
C82    C97     1.459   .     S
C83    O291    1.385   .     S
C83    C113    1.403   .     A
C83    C728    1.409   .     S
C84    C114    1.406   .     A
C84    O292    1.385   .     S
C84    C413    1.407   .     A
C85    C116    1.406   .     A
C85    O293    1.385   .     S
C85    C98     1.407   .     S
C86    C108    1.403   .     A
C86    O294    1.385   .     S
C86    C727    1.409   .     S
C87    C109    1.403   .     A
C87    O295    1.385   .     S
C87    C96     1.409   .     A
C88    C110    1.406   .     A
C88    O296    1.385   .     S
C88    C97     1.407   .     S
C89    O297    1.385   .     S
C89    C414    1.407   .     A
C89    C111    1.406   .     A
C90    C393    1.407   1_455 A
C91    C390    1.407   1_455 A
C92    C707    1.409   1_545 S
C93    O242    1.271   .     A
C93    O238    1.271   .     A
C93    C98     1.459   .     S
C94    C712    1.409   1_545 S
C95    C104    1.462   .     S
C95    C718    1.409   1_545 S
C96    C715    1.409   1_545 S
C96    C115    1.462   .     S
C97    C400    1.407   1_455 A
C98    C405    1.407   1_455 A
C99    C433    1.414   .     A
C99    C125    1.404   .     A
C100   C127    1.404   .     A
C100   C118    1.414   .     S
C101   C119    1.413   .     A
C101   C128    1.403   .     A
C102   C129    1.403   .     A
C102   C752    1.413   .     S
C103   C130    1.404   .     A
C103   C117    1.414   .     S
C104   O243    1.271   .     A
C104   O239    1.271   .     A
C105   C131    1.404   .     A
C105   C434    1.414   .     A
C106   C132    1.403   .     A
C106   C751    1.413   .     S
C107   C120    1.413   .     A
C107   C133    1.403   .     A
C108   C134    1.403   .     A
C108   C753    1.413   .     S
C109   C135    1.403   .     A
C109   C122    1.413   .     A
C110   C136    1.404   .     A
C110   C123    1.414   .     S
C111   C440    1.414   .     A
C112   C121    1.413   .     A
C113   C754    1.413   .     S
C114   C439    1.414   .     A
C115   O240    1.271   .     S
C115   O245    1.271   .     S
C116   C124    1.414   .     S
C117   C415    1.414   1_455 A
C117   C118    1.412   .     A
C118   C421    1.414   1_455 A
C119   C120    1.410   .     A
C119   C738    1.413   1_545 S
C120   C734    1.413   1_545 S
C121   C740    1.413   1_545 S
C121   C122    1.410   1_556 S
C122   C745    1.413   1_545 S
C122   C121    1.410   1_554 S
C123   C430    1.414   1_455 A
C123   C124    1.412   1_556 S
C124   C427    1.414   1_455 A
C124   C123    1.412   1_554 S
C125   C131    1.392   .     A
C125   H137    1.083   .     S
C126   O246    1.276   .     A
C126   O274    1.276   .     A
C127   H148    1.083   .     S
C127   C130    1.392   .     A
C128   H159    1.083   .     S
C128   C133    1.390   .     A
C129   H170    1.083   .     S
C129   C132    1.390   .     A
C130   H181    1.083   .     S
C131   H192    1.083   .     S
C132   H203    1.083   .     S
C133   H214    1.083   .     S
C134   H225    1.083   .     S
C134   C5      1.390   1_556 S
C135   H138    1.083   .     S
C135   C4      1.390   1_554 S
C136   H139    1.083   .     S
C136   C7      1.392   1_556 S
H145   C324    1.115   .     S
H146   C324    1.113   .     S
H151   C326    1.113   1_455 S
H152   C326    1.115   1_455 S
H167   C333    1.115   1_455 S
H168   C333    1.113   1_455 S
H173   C335    1.113   .     S
H174   C335    1.115   .     S
O233   Zn304   1.935   .     S
O233   Zn312   1.935   .     S
O233   Zn301   1.935   .     S
O233   Zn940   1.935   1_545 S
O234   Zn303   1.948   .     S
O234   C681    1.271   .     S
O235   Zn306   1.948   .     S
O235   C376    1.271   .     S
O236   Zn305   1.948   .     S
O237   Zn315   1.948   .     S
O238   Zn314   1.948   .     S
O239   Zn309   1.948   .     S
O240   Zn301   1.948   .     S
O241   Zn311   1.948   .     S
O242   Zn310   1.948   .     S
O243   Zn313   1.948   .     S
O244   Zn313   1.935   .     S
O244   Zn307   1.935   .     S
O244   Zn309   1.935   .     S
O244   Zn935   1.935   1_545 S
O245   Zn312   1.948   .     S
O246   Zn304   1.915   .     S
O247   Zn303   1.915   .     S
O248   Zn306   1.917   .     S
O249   Zn305   1.917   .     S
O250   Zn308   1.915   .     S
O251   Zn307   1.915   .     S
O252   Zn302   1.917   .     S
O253   Zn316   1.917   .     S
O254   Zn303   1.917   .     S
O255   Zn310   1.935   .     S
O255   Zn314   1.935   .     S
O255   Zn622   1.935   1_455 S
O255   Zn302   1.935   .     S
O256   Zn304   1.917   .     S
O257   Zn316   1.915   .     S
O258   Zn302   1.915   .     S
O259   Zn307   1.917   .     S
O260   Zn308   1.917   .     S
O261   Zn305   1.915   .     S
O262   Zn306   1.915   .     S
O263   Zn627   1.915   .     S
O264   Zn310   1.915   .     S
O265   Zn945   1.917   .     S
O266   Zn315   1.935   .     S
O266   Zn632   1.935   1_455 S
O266   Zn311   1.935   .     S
O266   Zn305   1.935   .     S
O267   Zn312   1.917   .     S
O268   Zn315   1.915   .     S
O269   Zn630   1.915   .     S
O270   Zn309   1.917   .     S
O271   Zn933   1.917   .     S
O272   Zn626   1.917   .     S
O273   Zn311   1.917   .     S
O274   Zn301   1.915   .     S
O275   Zn941   1.915   .     S
O276   Zn314   1.917   .     S
O277   Zn308   1.948   .     S
O277   C633    1.271   .     S
O278   Zn631   1.917   .     S
O279   Zn944   1.915   .     S
O280   Zn313   1.915   .     S
O288   Zn307   1.948   .     S
O298   Zn302   1.948   .     S
O299   C387    1.271   .     A
O299   Zn316   1.948   .     S
O300   Zn304   1.948   .     S
Zn301  O903    1.917   1_545 S
Zn303  O876    1.935   .     S
Zn306  O571    1.935   .     S
Zn308  O865    1.935   .     S
Zn309  O907    1.915   1_545 S
Zn310  O588    1.917   1_455 S
Zn311  O579    1.915   1_455 S
Zn312  O911    1.915   1_545 S
Zn313  O897    1.917   1_545 S
Zn314  O585    1.915   1_455 S
Zn315  O594    1.917   1_455 S
Zn316  O582    1.935   .     S
C317   O616    1.271   .     A
C317   C408    1.462   .     S
C317   O1225   1.271   1_545 S
C318   O563    1.276   .     A
C318   C384    1.422   .     S
C318   O591    1.276   .     A
C319   C427    1.404   .     A
C319   H456    1.083   .     S
C319   C322    1.392   1_554 S
C320   H457    1.083   .     S
C320   C428    1.403   .     A
C320   C451    1.390   1_556 S
C321   C429    1.403   .     A
C321   H458    1.083   .     S
C321   C450    1.390   1_554 S
C322   C430    1.404   .     A
C322   H459    1.083   .     S
C322   C319    1.392   1_556 S
C323   C432    1.404   .     A
C323   H460    1.083   .     S
C323   C452    1.392   1_554 S
C324   C325    1.519   .     S
C324   O597    1.413   .     S
C325   H465    1.110   .     S
C325   H466    1.110   .     S
C325   H463    1.111   .     S
C326   O598    1.413   .     S
C326   C327    1.519   .     S
C326   H151    1.113   1_655 S
C326   H152    1.115   1_655 S
C327   H470    1.110   .     S
C327   H471    1.111   .     S
C327   H469    1.110   .     S
C328   H473    1.114   .     S
C328   H472    1.114   .     S
C328   C330    1.520   .     S
C328   O599    1.413   .     S
C329   O588    1.276   .     A
C329   O564    1.276   .     A
C329   C383    1.424   .     S
C330   H474    1.111   .     S
C330   H477    1.109   .     S
C330   H476    1.110   .     S
C331   H479    1.114   .     S
C331   O600    1.413   .     S
C331   H478    1.114   .     S
C331   C332    1.520   .     S
C332   H481    1.110   .     S
C332   H480    1.109   .     S
C332   H482    1.111   .     S
C333   C334    1.519   .     S
C333   O601    1.413   .     S
C333   H167    1.115   1_655 S
C333   H168    1.113   1_655 S
C334   H487    1.110   .     S
C334   H485    1.111   .     S
C334   H488    1.110   .     S
C335   C336    1.519   .     S
C335   O602    1.413   .     S
C336   H491    1.110   .     S
C336   H493    1.111   .     S
C336   H492    1.110   .     S
C337   C338    1.520   .     S
C337   H495    1.114   .     S
C337   H494    1.114   .     S
C337   O603    1.413   .     S
C338   H498    1.110   .     S
C338   H496    1.111   .     S
C338   H499    1.109   .     S
C339   O605    1.413   .     S
C339   H501    1.114   .     S
C339   C341    1.520   .     S
C339   H500    1.114   .     S
C340   O565    1.276   .     A
C340   C382    1.424   .     S
C340   O589    1.276   .     A
C341   H503    1.110   .     S
C341   H502    1.109   .     S
C341   H504    1.111   .     S
C342   O606    1.413   .     S
C342   H505    1.114   .     S
C342   C343    1.520   .     S
C342   H506    1.114   .     S
C343   H510    1.111   .     S
C343   H509    1.110   .     S
C343   H507    1.109   .     S
C344   H511    1.114   .     S
C344   H512    1.114   .     S
C344   C345    1.520   .     S
C344   O607    1.413   .     S
C345   H515    1.109   .     S
C345   H514    1.110   .     S
C345   H513    1.111   .     S
C346   H516    1.113   .     S
C346   C347    1.519   .     S
C346   H517    1.115   .     S
C346   O608    1.413   .     S
C347   H521    1.111   .     S
C347   H520    1.110   .     S
C347   H518    1.110   .     S
C348   O609    1.413   .     S
C348   H522    1.115   .     S
C348   C349    1.519   .     S
C348   H523    1.113   .     S
C349   H524    1.111   .     S
C349   H526    1.110   .     S
C349   H525    1.110   .     S
C350   H528    1.114   .     S
C350   O610    1.413   .     S
C350   H527    1.114   .     S
C350   C352    1.520   .     S
C351   O566    1.276   .     A
C351   C381    1.422   .     S
C351   O595    1.276   .     A
C352   H531    1.110   .     S
C352   H532    1.111   .     S
C352   H529    1.109   .     S
C353   H534    1.114   .     S
C353   C354    1.520   .     S
C353   O611    1.413   .     S
C353   H533    1.114   .     S
C354   H537    1.109   .     S
C354   H535    1.111   .     S
C354   H536    1.110   .     S
C355   H538    1.113   .     S
C355   C356    1.519   .     S
C355   H539    1.115   .     S
C355   O612    1.413   .     S
C356   H542    1.110   .     S
C356   H543    1.111   .     S
C356   H540    1.110   .     S
C357   H544    1.115   .     S
C357   C358    1.519   .     S
C357   O613    1.413   .     S
C357   H545    1.113   .     S
C358   H547    1.110   .     S
C358   H548    1.110   .     S
C358   H546    1.111   .     S
C359   O567    1.276   .     A
C359   C380    1.422   .     S
C359   O596    1.276   .     A
C360   O592    1.276   .     A
C360   C388    1.424   .     S
C360   O568    1.276   .     A
C361   C386    1.424   .     S
C361   O594    1.276   .     A
C361   O569    1.276   .     A
C362   O581    1.276   .     A
C362   C377    1.424   .     S
C362   O570    1.276   .     A
C363   O583    1.276   .     A
C363   O572    1.276   .     A
C363   C375    1.424   .     S
C364   O579    1.276   .     A
C364   C374    1.422   .     S
C364   O573    1.276   .     A
C365   O604    1.271   .     A
C365   C410    1.462   .     S
C365   O1182   1.271   1_545 S
C366   C373    1.422   .     S
C366   O574    1.276   .     A
C366   O580    1.276   .     A
C367   O586    1.276   .     A
C367   O575    1.276   .     A
C367   C372    1.424   .     S
C368   O576    1.276   .     A
C368   C371    1.424   .     S
C368   O587    1.276   .     A
C369   O577    1.276   .     A
C369   C379    1.422   .     S
C369   O584    1.276   .     A
C370   O585    1.276   .     A
C370   C378    1.422   .     S
C370   O578    1.276   .     A
C371   C388    1.199   .     T
C372   C386    1.199   .     T
C373   C385    1.198   .     T
C374   C384    1.198   .     T
C375   C383    1.199   .     T
C376   O614    1.271   .     A
C376   C406    1.459   .     S
C377   C382    1.199   .     T
C378   C381    1.198   .     T
C379   C380    1.198   .     T
C385   C442    1.422   .     S
C387   C407    1.459   .     S
C387   O552    1.271   .     S
C389   C419    1.406   .     A
C389   O597    1.385   .     S
C389   C406    1.407   .     S
C390   C421    1.406   .     A
C390   C91     1.407   1_655 A
C390   O598    1.385   .     S
C391   C422    1.403   .     A
C391   O599    1.385   .     S
C391   C1040   1.409   .     S
C392   C410    1.409   .     A
C392   O600    1.385   .     S
C392   C423    1.403   .     A
C393   O601    1.385   .     S
C393   C415    1.406   .     A
C393   C90     1.407   1_655 A
C394   O602    1.385   .     S
C394   C416    1.406   .     A
C394   C407    1.407   .     S
C395   O603    1.385   .     S
C395   C417    1.403   .     A
C395   C408    1.409   .     A
C396   C418    1.403   .     A
C396   O605    1.385   .     S
C396   C1042   1.409   .     S
C397   C411    1.409   .     A
C397   O606    1.385   .     S
C397   C428    1.403   .     A
C398   O553    1.271   .     A
C398   O557    1.271   .     A
C398   C413    1.459   .     S
C399   O607    1.385   .     S
C399   C429    1.403   .     A
C399   C1044   1.409   .     S
C400   C430    1.406   .     A
C400   O608    1.385   .     S
C400   C97     1.407   1_655 A
C401   C432    1.406   .     A
C401   O609    1.385   .     S
C401   C414    1.407   .     S
C402   C424    1.403   .     A
C402   O610    1.385   .     S
C402   C1043   1.409   .     S
C403   C425    1.403   .     A
C403   O611    1.385   .     S
C403   C412    1.409   .     A
C404   C426    1.406   .     A
C404   O612    1.385   .     S
C404   C413    1.407   .     S
C405   O613    1.385   .     S
C405   C98     1.407   1_655 A
C405   C427    1.406   .     A
C408   C1023   1.409   1_545 S
C409   O558    1.271   .     A
C409   O554    1.271   .     A
C409   C414    1.459   .     S
C410   C1028   1.409   1_545 S
C411   C420    1.462   .     S
C411   C1034   1.409   1_545 S
C412   C1031   1.409   1_545 S
C412   C431    1.462   .     S
C415   C117    1.414   1_655 A
C415   C441    1.404   .     A
C416   C443    1.404   .     A
C416   C434    1.414   .     S
C417   C435    1.413   .     A
C417   C444    1.403   .     A
C418   C445    1.403   .     A
C418   C1068   1.413   .     S
C419   C446    1.404   .     A
C419   C433    1.414   .     S
C420   O559    1.271   .     A
C420   O555    1.271   .     A
C421   C447    1.404   .     A
C421   C118    1.414   1_655 A
C422   C448    1.403   .     A
C422   C1067   1.413   .     S
C423   C436    1.413   .     A
C423   C449    1.403   .     A
C424   C450    1.403   .     A
C424   C1069   1.413   .     S
C425   C451    1.403   .     A
C425   C438    1.413   .     A
C426   C452    1.404   .     A
C426   C439    1.414   .     S
C427   C124    1.414   1_655 A
C428   C437    1.413   .     A
C429   C1070   1.413   .     S
C430   C123    1.414   1_655 A
C431   O556    1.271   .     S
C431   O561    1.271   .     S
C432   C440    1.414   .     S
C433   C434    1.412   .     A
C435   C436    1.410   .     A
C435   C1054   1.413   1_545 S
C436   C1050   1.413   1_545 S
C437   C1056   1.413   1_545 S
C437   C438    1.410   1_556 S
C438   C1061   1.413   1_545 S
C438   C437    1.410   1_554 S
C439   C440    1.412   1_556 S
C440   C439    1.412   1_554 S
C441   C447    1.392   .     A
C441   H453    1.083   .     S
C442   O562    1.276   .     A
C442   O590    1.276   .     A
C443   H464    1.083   .     S
C443   C446    1.392   .     A
C444   H475    1.083   .     S
C444   C449    1.390   .     A
C445   H486    1.083   .     S
C445   C448    1.390   .     A
C446   H497    1.083   .     S
C447   H508    1.083   .     S
C448   H519    1.083   .     S
C449   H530    1.083   .     S
C450   H541    1.083   .     S
C450   C321    1.390   1_556 S
C451   H454    1.083   .     S
C451   C320    1.390   1_554 S
C452   H455    1.083   .     S
C452   C323    1.392   1_556 S
H461   C8      1.115   1_655 S
H462   C8      1.113   1_655 S
H489   C19     1.113   1_655 S
H490   C19     1.115   1_655 S
O549   Zn620   1.935   .     S
O549   Zn628   1.935   .     S
O549   Zn617   1.935   .     S
O549   Zn1256  1.935   1_545 S
O550   Zn619   1.948   .     S
O550   C997    1.271   .     S
O551   Zn622   1.948   .     S
O551   C60     1.271   1_655 S
O552   Zn621   1.948   .     S
O553   Zn631   1.948   .     S
O554   Zn630   1.948   .     S
O555   Zn625   1.948   .     S
O556   Zn617   1.948   .     S
O557   Zn627   1.948   .     S
O558   Zn626   1.948   .     S
O559   Zn629   1.948   .     S
O560   Zn629   1.935   .     S
O560   Zn623   1.935   .     S
O560   Zn625   1.935   .     S
O560   Zn1251  1.935   1_545 S
O561   Zn628   1.948   .     S
O562   Zn620   1.915   .     S
O563   Zn619   1.915   .     S
O564   Zn622   1.917   .     S
O565   Zn621   1.917   .     S
O566   Zn624   1.915   .     S
O567   Zn623   1.915   .     S
O568   Zn618   1.917   .     S
O569   Zn632   1.917   .     S
O570   Zn619   1.917   .     S
O571   Zn626   1.935   .     S
O571   Zn630   1.935   .     S
O571   Zn618   1.935   .     S
O572   Zn620   1.917   .     S
O573   Zn632   1.915   .     S
O574   Zn618   1.915   .     S
O575   Zn623   1.917   .     S
O576   Zn624   1.917   .     S
O577   Zn621   1.915   .     S
O578   Zn622   1.915   .     S
O579   Zn311   1.915   1_655 S
O580   Zn626   1.915   .     S
O581   Zn1261  1.917   .     S
O582   Zn631   1.935   .     S
O582   Zn627   1.935   .     S
O582   Zn621   1.935   .     S
O583   Zn628   1.917   .     S
O584   Zn631   1.915   .     S
O585   Zn314   1.915   1_655 S
O586   Zn625   1.917   .     S
O587   Zn1249  1.917   .     S
O588   Zn310   1.917   1_655 S
O589   Zn627   1.917   .     S
O590   Zn617   1.915   .     S
O591   Zn1257  1.915   .     S
O592   Zn630   1.917   .     S
O593   Zn624   1.948   .     S
O593   C949    1.271   .     S
O594   Zn315   1.917   1_655 S
O595   Zn1260  1.915   .     S
O596   Zn629   1.915   .     S
O604   Zn623   1.948   .     S
O614   Zn618   1.948   .     S
O615   C71     1.271   1_655 A
O615   Zn632   1.948   .     S
O616   Zn620   1.948   .     S
Zn617  O1219   1.917   1_545 S
Zn619  O1192   1.935   .     S
Zn622  O255    1.935   1_655 S
Zn624  O1181   1.935   .     S
Zn625  O1223   1.915   1_545 S
Zn628  O1227   1.915   1_545 S
Zn629  O1213   1.917   1_545 S
Zn632  O266    1.935   1_655 S
C633   O932    1.271   .     A
C633   C724    1.462   .     S
C634   O879    1.276   .     A
C634   C700    1.422   .     S
C634   O907    1.276   .     A
C635   C743    1.404   .     A
C635   H772    1.083   .     S
C635   C638    1.392   1_554 S
C636   H773    1.083   .     S
C636   C744    1.403   .     A
C636   C767    1.390   1_556 S
C637   C745    1.403   .     A
C637   H774    1.083   .     S
C637   C766    1.390   1_554 S
C638   C746    1.404   .     A
C638   H775    1.083   .     S
C638   C635    1.392   1_556 S
C639   C748    1.404   .     A
C639   H776    1.083   .     S
C639   C768    1.392   1_554 S
C640   C641    1.519   .     S
C640   O913    1.413   .     S
C640   H1093   1.115   1_455 S
C640   H1094   1.113   1_455 S
C641   H781    1.110   .     S
C641   H782    1.110   .     S
C641   H779    1.111   .     S
C642   O914    1.413   .     S
C642   C643    1.519   .     S
C642   H1099   1.113   .     S
C642   H1100   1.115   .     S
C643   H786    1.110   .     S
C643   H787    1.111   .     S
C643   H785    1.110   .     S
C644   H789    1.114   .     S
C644   H788    1.114   .     S
C644   C646    1.520   .     S
C644   O915    1.413   .     S
C645   O904    1.276   .     A
C645   O880    1.276   .     A
C645   C699    1.424   .     S
C646   H790    1.111   .     S
C646   H793    1.109   .     S
C646   H792    1.110   .     S
C647   H795    1.114   .     S
C647   O916    1.413   .     S
C647   H794    1.114   .     S
C647   C648    1.520   .     S
C648   H797    1.110   .     S
C648   H796    1.109   .     S
C648   H798    1.111   .     S
C649   C650    1.519   .     S
C649   O917    1.413   .     S
C649   H1115   1.115   .     S
C649   H1116   1.113   .     S
C650   H803    1.110   .     S
C650   H801    1.111   .     S
C650   H804    1.110   .     S
C651   C652    1.519   .     S
C651   O918    1.413   .     S
C651   H1121   1.113   1_455 S
C651   H1122   1.115   1_455 S
C652   H807    1.110   .     S
C652   H809    1.111   .     S
C652   H808    1.110   .     S
C653   C654    1.520   .     S
C653   H811    1.114   .     S
C653   H810    1.114   .     S
C653   O919    1.413   .     S
C654   H814    1.110   .     S
C654   H812    1.111   .     S
C654   H815    1.109   .     S
C655   O921    1.413   .     S
C655   H817    1.114   .     S
C655   C657    1.520   .     S
C655   H816    1.114   .     S
C656   O881    1.276   .     A
C656   C698    1.424   .     S
C656   O905    1.276   .     A
C657   H819    1.110   .     S
C657   H818    1.109   .     S
C657   H820    1.111   .     S
C658   O922    1.413   .     S
C658   H821    1.114   .     S
C658   C659    1.520   .     S
C658   H822    1.114   .     S
C659   H826    1.111   .     S
C659   H825    1.110   .     S
C659   H823    1.109   .     S
C660   H827    1.114   .     S
C660   H828    1.114   .     S
C660   C661    1.520   .     S
C660   O923    1.413   .     S
C661   H831    1.109   .     S
C661   H830    1.110   .     S
C661   H829    1.111   .     S
C662   H832    1.113   .     S
C662   C663    1.519   .     S
C662   H833    1.115   .     S
C662   O924    1.413   .     S
C663   H837    1.111   .     S
C663   H836    1.110   .     S
C663   H834    1.110   .     S
C664   O925    1.413   .     S
C664   H838    1.115   .     S
C664   C665    1.519   .     S
C664   H839    1.113   .     S
C665   H840    1.111   .     S
C665   H842    1.110   .     S
C665   H841    1.110   .     S
C666   H844    1.114   .     S
C666   O926    1.413   .     S
C666   H843    1.114   .     S
C666   C668    1.520   .     S
C667   O882    1.276   .     A
C667   C697    1.422   .     S
C667   O911    1.276   .     A
C668   H847    1.110   .     S
C668   H848    1.111   .     S
C668   H845    1.109   .     S
C669   H850    1.114   .     S
C669   C670    1.520   .     S
C669   O927    1.413   .     S
C669   H849    1.114   .     S
C670   H853    1.109   .     S
C670   H851    1.111   .     S
C670   H852    1.110   .     S
C671   H854    1.113   .     S
C671   C672    1.519   .     S
C671   H855    1.115   .     S
C671   O928    1.413   .     S
C672   H858    1.110   .     S
C672   H859    1.111   .     S
C672   H856    1.110   .     S
C673   H860    1.115   .     S
C673   C674    1.519   .     S
C673   O929    1.413   .     S
C673   H861    1.113   .     S
C674   H863    1.110   .     S
C674   H864    1.110   .     S
C674   H862    1.111   .     S
C675   O883    1.276   .     A
C675   C696    1.422   .     S
C675   O912    1.276   .     A
C676   O908    1.276   .     A
C676   C704    1.424   .     S
C676   O884    1.276   .     A
C677   C702    1.424   .     S
C677   O910    1.276   .     A
C677   O885    1.276   .     A
C678   O897    1.276   .     A
C678   C693    1.424   .     S
C678   O886    1.276   .     A
C679   O899    1.276   .     A
C679   O888    1.276   .     A
C679   C691    1.424   .     S
C680   O895    1.276   .     A
C680   C690    1.422   .     S
C680   O889    1.276   .     A
C681   O920    1.271   .     A
C681   C726    1.462   .     S
C682   C689    1.422   .     S
C682   O890    1.276   .     A
C682   O896    1.276   .     A
C683   O902    1.276   .     A
C683   O891    1.276   .     A
C683   C688    1.424   .     S
C684   O892    1.276   .     A
C684   C687    1.424   .     S
C684   O903    1.276   .     A
C685   O893    1.276   .     A
C685   C695    1.422   .     S
C685   O900    1.276   .     A
C686   O901    1.276   .     A
C686   C694    1.422   .     S
C686   O894    1.276   .     A
C687   C704    1.199   .     T
C688   C702    1.199   .     T
C689   C701    1.198   .     T
C690   C700    1.198   .     T
C691   C699    1.199   .     T
C692   O930    1.271   .     A
C692   C722    1.459   .     S
C692   O1183   1.271   1_455 S
C693   C698    1.199   .     T
C694   C697    1.198   .     T
C695   C696    1.198   .     T
C701   C758    1.422   .     S
C703   O1247   1.271   1_455 A
C703   C723    1.459   .     S
C703   O868    1.271   .     S
C705   C735    1.406   .     A
C705   O913    1.385   .     S
C705   C722    1.407   .     S
C706   C737    1.406   .     A
C706   C1039   1.407   .     A
C706   O914    1.385   .     S
C707   C738    1.403   .     A
C707   O915    1.385   .     S
C707   C92     1.409   1_565 S
C708   C726    1.409   .     A
C708   O916    1.385   .     S
C708   C739    1.403   .     A
C709   O917    1.385   .     S
C709   C731    1.406   .     A
C709   C1038   1.407   .     A
C710   O918    1.385   .     S
C710   C732    1.406   .     A
C710   C723    1.407   .     S
C711   O919    1.385   .     S
C711   C733    1.403   .     A
C711   C724    1.409   .     A
C712   C734    1.403   .     A
C712   O921    1.385   .     S
C712   C94     1.409   1_565 S
C713   C727    1.409   .     A
C713   O922    1.385   .     S
C713   C744    1.403   .     A
C714   O869    1.271   .     A
C714   O873    1.271   .     A
C714   C729    1.459   .     S
C715   O923    1.385   .     S
C715   C745    1.403   .     A
C715   C96     1.409   1_565 S
C716   C746    1.406   .     A
C716   O924    1.385   .     S
C716   C1045   1.407   .     A
C717   C748    1.406   .     A
C717   O925    1.385   .     S
C717   C730    1.407   .     S
C718   C740    1.403   .     A
C718   O926    1.385   .     S
C718   C95     1.409   1_565 S
C719   C741    1.403   .     A
C719   O927    1.385   .     S
C719   C728    1.409   .     A
C720   C742    1.406   .     A
C720   O928    1.385   .     S
C720   C729    1.407   .     S
C721   O929    1.385   .     S
C721   C1046   1.407   .     A
C721   C743    1.406   .     A
C722   C1025   1.407   1_455 A
C723   C1022   1.407   1_455 A
C725   O874    1.271   .     A
C725   O870    1.271   .     A
C725   C730    1.459   .     S
C727   C736    1.462   .     S
C728   C747    1.462   .     S
C729   C1032   1.407   1_455 A
C730   C1037   1.407   1_455 A
C731   C1065   1.414   .     A
C731   C757    1.404   .     A
C732   C759    1.404   .     A
C732   C750    1.414   .     S
C733   C751    1.413   .     A
C733   C760    1.403   .     A
C734   C761    1.403   .     A
C734   C120    1.413   1_565 S
C735   C762    1.404   .     A
C735   C749    1.414   .     S
C736   O875    1.271   .     A
C736   O871    1.271   .     A
C737   C763    1.404   .     A
C737   C1066   1.414   .     A
C738   C764    1.403   .     A
C738   C119    1.413   1_565 S
C739   C752    1.413   .     A
C739   C765    1.403   .     A
C740   C766    1.403   .     A
C740   C121    1.413   1_565 S
C741   C767    1.403   .     A
C741   C754    1.413   .     A
C742   C768    1.404   .     A
C742   C755    1.414   .     S
C743   C1072   1.414   .     A
C744   C753    1.413   .     A
C745   C122    1.413   1_565 S
C746   C1071   1.414   .     A
C747   O872    1.271   .     S
C747   O877    1.271   .     S
C748   C756    1.414   .     S
C749   C1047   1.414   1_455 A
C749   C750    1.412   .     A
C750   C1053   1.414   1_455 A
C751   C752    1.410   .     A
C753   C754    1.410   1_556 S
C754   C753    1.410   1_554 S
C755   C1062   1.414   1_455 A
C755   C756    1.412   1_556 S
C756   C1059   1.414   1_455 A
C756   C755    1.412   1_554 S
C757   C763    1.392   .     A
C757   H769    1.083   .     S
C758   O878    1.276   .     A
C758   O906    1.276   .     A
C759   H780    1.083   .     S
C759   C762    1.392   .     A
C760   H791    1.083   .     S
C760   C765    1.390   .     A
C761   H802    1.083   .     S
C761   C764    1.390   .     A
C762   H813    1.083   .     S
C763   H824    1.083   .     S
C764   H835    1.083   .     S
C765   H846    1.083   .     S
C766   H857    1.083   .     S
C766   C637    1.390   1_556 S
C767   H770    1.083   .     S
C767   C636    1.390   1_554 S
C768   H771    1.083   .     S
C768   C639    1.392   1_556 S
H777   C956    1.115   .     S
H778   C956    1.113   .     S
H783   C958    1.113   1_455 S
H784   C958    1.115   1_455 S
H799   C965    1.115   1_455 S
H800   C965    1.113   1_455 S
H805   C967    1.113   .     S
H806   C967    1.115   .     S
O865   Zn936   1.935   .     S
O865   Zn944   1.935   .     S
O865   Zn933   1.935   .     S
O866   Zn935   1.948   .     S
O866   C49     1.271   1_565 S
O867   Zn938   1.948   .     S
O867   C1008   1.271   .     S
O868   Zn937   1.948   .     S
O869   Zn947   1.948   .     S
O870   Zn946   1.948   .     S
O871   Zn941   1.948   .     S
O872   Zn933   1.948   .     S
O873   Zn943   1.948   .     S
O874   Zn942   1.948   .     S
O875   Zn945   1.948   .     S
O876   Zn945   1.935   .     S
O876   Zn939   1.935   .     S
O876   Zn941   1.935   .     S
O877   Zn944   1.948   .     S
O878   Zn936   1.915   .     S
O879   Zn935   1.915   .     S
O880   Zn938   1.917   .     S
O881   Zn937   1.917   .     S
O882   Zn940   1.915   .     S
O883   Zn939   1.915   .     S
O884   Zn934   1.917   .     S
O885   Zn948   1.917   .     S
O886   Zn935   1.917   .     S
O887   Zn942   1.935   .     S
O887   Zn946   1.935   .     S
O887   Zn1254  1.935   1_455 S
O887   Zn934   1.935   .     S
O888   Zn936   1.917   .     S
O889   Zn948   1.915   .     S
O890   Zn934   1.915   .     S
O891   Zn939   1.917   .     S
O892   Zn940   1.917   .     S
O893   Zn937   1.915   .     S
O894   Zn938   1.915   .     S
O895   Zn1259  1.915   .     S
O896   Zn942   1.915   .     S
O897   Zn313   1.917   1_565 S
O898   Zn947   1.935   .     S
O898   Zn1264  1.935   1_455 S
O898   Zn943   1.935   .     S
O898   Zn937   1.935   .     S
O899   Zn944   1.917   .     S
O900   Zn947   1.915   .     S
O901   Zn1262  1.915   .     S
O902   Zn941   1.917   .     S
O903   Zn301   1.917   1_565 S
O904   Zn1258  1.917   .     S
O905   Zn943   1.917   .     S
O906   Zn933   1.915   .     S
O907   Zn309   1.915   1_565 S
O908   Zn946   1.917   .     S
O909   Zn940   1.948   .     S
O909   C1      1.271   1_565 S
O910   Zn1263  1.917   .     S
O911   Zn312   1.915   1_565 S
O912   Zn945   1.915   .     S
O920   Zn939   1.948   .     S
O930   Zn934   1.948   .     S
O931   C1019   1.271   .     A
O931   Zn948   1.948   .     S
O932   Zn936   1.948   .     S
Zn935  O244    1.935   1_565 S
Zn938  O1203   1.935   .     S
Zn940  O233    1.935   1_565 S
Zn942  O1220   1.917   1_455 S
Zn943  O1211   1.915   1_455 S
Zn946  O1217   1.915   1_455 S
Zn947  O1226   1.917   1_455 S
Zn948  O1214   1.935   .     S
C949   O1248   1.271   .     A
C949   C1040   1.462   .     S
C950   O1195   1.276   .     A
C950   C1016   1.422   .     S
C950   O1223   1.276   .     A
C951   C1059   1.404   .     A
C951   H1088   1.083   .     S
C951   C954    1.392   1_554 S
C952   H1089   1.083   .     S
C952   C1060   1.403   .     A
C952   C1083   1.390   1_556 S
C953   C1061   1.403   .     A
C953   H1090   1.083   .     S
C953   C1082   1.390   1_554 S
C954   C1062   1.404   .     A
C954   H1091   1.083   .     S
C954   C951    1.392   1_556 S
C955   C1064   1.404   .     A
C955   H1092   1.083   .     S
C955   C1084   1.392   1_554 S
C956   C957    1.519   .     S
C956   O1229   1.413   .     S
C957   H1097   1.110   .     S
C957   H1098   1.110   .     S
C957   H1095   1.111   .     S
C958   O1230   1.413   .     S
C958   C959    1.519   .     S
C958   H783    1.113   1_655 S
C958   H784    1.115   1_655 S
C959   H1102   1.110   .     S
C959   H1103   1.111   .     S
C959   H1101   1.110   .     S
C960   H1105   1.114   .     S
C960   H1104   1.114   .     S
C960   C962    1.520   .     S
C960   O1231   1.413   .     S
C961   O1220   1.276   .     A
C961   O1196   1.276   .     A
C961   C1015   1.424   .     S
C962   H1106   1.111   .     S
C962   H1109   1.109   .     S
C962   H1108   1.110   .     S
C963   H1111   1.114   .     S
C963   O1232   1.413   .     S
C963   H1110   1.114   .     S
C963   C964    1.520   .     S
C964   H1113   1.110   .     S
C964   H1112   1.109   .     S
C964   H1114   1.111   .     S
C965   C966    1.519   .     S
C965   O1233   1.413   .     S
C965   H799    1.115   1_655 S
C965   H800    1.113   1_655 S
C966   H1119   1.110   .     S
C966   H1117   1.111   .     S
C966   H1120   1.110   .     S
C967   C968    1.519   .     S
C967   O1234   1.413   .     S
C968   H1123   1.110   .     S
C968   H1125   1.111   .     S
C968   H1124   1.110   .     S
C969   C970    1.520   .     S
C969   H1127   1.114   .     S
C969   H1126   1.114   .     S
C969   O1235   1.413   .     S
C970   H1130   1.110   .     S
C970   H1128   1.111   .     S
C970   H1131   1.109   .     S
C971   O1237   1.413   .     S
C971   H1133   1.114   .     S
C971   C973    1.520   .     S
C971   H1132   1.114   .     S
C972   O1197   1.276   .     A
C972   C1014   1.424   .     S
C972   O1221   1.276   .     A
C973   H1135   1.110   .     S
C973   H1134   1.109   .     S
C973   H1136   1.111   .     S
C974   O1238   1.413   .     S
C974   H1137   1.114   .     S
C974   C975    1.520   .     S
C974   H1138   1.114   .     S
C975   H1142   1.111   .     S
C975   H1141   1.110   .     S
C975   H1139   1.109   .     S
C976   H1143   1.114   .     S
C976   H1144   1.114   .     S
C976   C977    1.520   .     S
C976   O1239   1.413   .     S
C977   H1147   1.109   .     S
C977   H1146   1.110   .     S
C977   H1145   1.111   .     S
C978   H1148   1.113   .     S
C978   C979    1.519   .     S
C978   H1149   1.115   .     S
C978   O1240   1.413   .     S
C979   H1153   1.111   .     S
C979   H1152   1.110   .     S
C979   H1150   1.110   .     S
C980   O1241   1.413   .     S
C980   H1154   1.115   .     S
C980   C981    1.519   .     S
C980   H1155   1.113   .     S
C981   H1156   1.111   .     S
C981   H1158   1.110   .     S
C981   H1157   1.110   .     S
C982   H1160   1.114   .     S
C982   O1242   1.413   .     S
C982   H1159   1.114   .     S
C982   C984    1.520   .     S
C983   O1198   1.276   .     A
C983   C1013   1.422   .     S
C983   O1227   1.276   .     A
C984   H1163   1.110   .     S
C984   H1164   1.111   .     S
C984   H1161   1.109   .     S
C985   H1166   1.114   .     S
C985   C986    1.520   .     S
C985   O1243   1.413   .     S
C985   H1165   1.114   .     S
C986   H1169   1.109   .     S
C986   H1167   1.111   .     S
C986   H1168   1.110   .     S
C987   H1170   1.113   .     S
C987   C988    1.519   .     S
C987   H1171   1.115   .     S
C987   O1244   1.413   .     S
C988   H1174   1.110   .     S
C988   H1175   1.111   .     S
C988   H1172   1.110   .     S
C989   H1176   1.115   .     S
C989   C990    1.519   .     S
C989   O1245   1.413   .     S
C989   H1177   1.113   .     S
C990   H1179   1.110   .     S
C990   H1180   1.110   .     S
C990   H1178   1.111   .     S
C991   O1199   1.276   .     A
C991   C1012   1.422   .     S
C991   O1228   1.276   .     A
C992   O1224   1.276   .     A
C992   C1020   1.424   .     S
C992   O1200   1.276   .     A
C993   C1018   1.424   .     S
C993   O1226   1.276   .     A
C993   O1201   1.276   .     A
C994   O1213   1.276   .     A
C994   C1009   1.424   .     S
C994   O1202   1.276   .     A
C995   O1215   1.276   .     A
C995   O1204   1.276   .     A
C995   C1007   1.424   .     S
C996   O1211   1.276   .     A
C996   C1006   1.422   .     S
C996   O1205   1.276   .     A
C997   O1236   1.271   .     A
C997   C1042   1.462   .     S
C998   C1005   1.422   .     S
C998   O1206   1.276   .     A
C998   O1212   1.276   .     A
C999   O1218   1.276   .     A
C999   O1207   1.276   .     A
C999   C1004   1.424   .     S
C1000  O1208   1.276   .     A
C1000  C1003   1.424   .     S
C1000  O1219   1.276   .     A
C1001  O1209   1.276   .     A
C1001  C1011   1.422   .     S
C1001  O1216   1.276   .     A
C1002  O1217   1.276   .     A
C1002  C1010   1.422   .     S
C1002  O1210   1.276   .     A
C1003  C1020   1.199   .     T
C1004  C1018   1.199   .     T
C1005  C1017   1.198   .     T
C1006  C1016   1.198   .     T
C1007  C1015   1.199   .     T
C1008  O1246   1.271   .     A
C1008  C1038   1.459   .     S
C1009  C1014   1.199   .     T
C1010  C1013   1.198   .     T
C1011  C1012   1.198   .     T
C1017  C1074   1.422   .     S
C1019  C1039   1.459   .     S
C1019  O1184   1.271   .     S
C1021  C1051   1.406   .     A
C1021  O1229   1.385   .     S
C1021  C1038   1.407   .     S
C1022  C1053   1.406   .     A
C1022  C723    1.407   1_655 A
C1022  O1230   1.385   .     S
C1023  C1054   1.403   .     A
C1023  O1231   1.385   .     S
C1023  C408    1.409   1_565 S
C1024  C1042   1.409   .     A
C1024  O1232   1.385   .     S
C1024  C1055   1.403   .     A
C1025  O1233   1.385   .     S
C1025  C1047   1.406   .     A
C1025  C722    1.407   1_655 A
C1026  O1234   1.385   .     S
C1026  C1048   1.406   .     A
C1026  C1039   1.407   .     S
C1027  O1235   1.385   .     S
C1027  C1049   1.403   .     A
C1027  C1040   1.409   .     A
C1028  C1050   1.403   .     A
C1028  O1237   1.385   .     S
C1028  C410    1.409   1_565 S
C1029  C1043   1.409   .     A
C1029  O1238   1.385   .     S
C1029  C1060   1.403   .     A
C1030  O1185   1.271   .     A
C1030  O1189   1.271   .     A
C1030  C1045   1.459   .     S
C1031  O1239   1.385   .     S
C1031  C1061   1.403   .     A
C1031  C412    1.409   1_565 S
C1032  C1062   1.406   .     A
C1032  O1240   1.385   .     S
C1032  C729    1.407   1_655 A
C1033  C1064   1.406   .     A
C1033  O1241   1.385   .     S
C1033  C1046   1.407   .     S
C1034  C1056   1.403   .     A
C1034  O1242   1.385   .     S
C1034  C411    1.409   1_565 S
C1035  C1057   1.403   .     A
C1035  O1243   1.385   .     S
C1035  C1044   1.409   .     A
C1036  C1058   1.406   .     A
C1036  O1244   1.385   .     S
C1036  C1045   1.407   .     S
C1037  O1245   1.385   .     S
C1037  C730    1.407   1_655 A
C1037  C1059   1.406   .     A
C1041  O1190   1.271   .     A
C1041  O1186   1.271   .     A
C1041  C1046   1.459   .     S
C1043  C1052   1.462   .     S
C1044  C1063   1.462   .     S
C1047  C749    1.414   1_655 A
C1047  C1073   1.404   .     A
C1048  C1075   1.404   .     A
C1048  C1066   1.414   .     S
C1049  C1067   1.413   .     A
C1049  C1076   1.403   .     A
C1050  C1077   1.403   .     A
C1050  C436    1.413   1_565 S
C1051  C1078   1.404   .     A
C1051  C1065   1.414   .     S
C1052  O1191   1.271   .     A
C1052  O1187   1.271   .     A
C1053  C1079   1.404   .     A
C1053  C750    1.414   1_655 A
C1054  C1080   1.403   .     A
C1054  C435    1.413   1_565 S
C1055  C1068   1.413   .     A
C1055  C1081   1.403   .     A
C1056  C1082   1.403   .     A
C1056  C437    1.413   1_565 S
C1057  C1083   1.403   .     A
C1057  C1070   1.413   .     A
C1058  C1084   1.404   .     A
C1058  C1071   1.414   .     S
C1059  C756    1.414   1_655 A
C1060  C1069   1.413   .     A
C1061  C438    1.413   1_565 S
C1062  C755    1.414   1_655 A
C1063  O1188   1.271   .     S
C1063  O1193   1.271   .     S
C1064  C1072   1.414   .     S
C1065  C1066   1.412   .     A
C1067  C1068   1.410   .     A
C1069  C1070   1.410   1_556 S
C1070  C1069   1.410   1_554 S
C1071  C1072   1.412   1_556 S
C1072  C1071   1.412   1_554 S
C1073  C1079   1.392   .     A
C1073  H1085   1.083   .     S
C1074  O1194   1.276   .     A
C1074  O1222   1.276   .     A
C1075  H1096   1.083   .     S
C1075  C1078   1.392   .     A
C1076  H1107   1.083   .     S
C1076  C1081   1.390   .     A
C1077  H1118   1.083   .     S
C1077  C1080   1.390   .     A
C1078  H1129   1.083   .     S
C1079  H1140   1.083   .     S
C1080  H1151   1.083   .     S
C1081  H1162   1.083   .     S
C1082  H1173   1.083   .     S
C1082  C953    1.390   1_556 S
C1083  H1086   1.083   .     S
C1083  C952    1.390   1_554 S
C1084  H1087   1.083   .     S
C1084  C955    1.392   1_556 S
H1093  C640    1.115   1_655 S
H1094  C640    1.113   1_655 S
H1121  C651    1.113   1_655 S
H1122  C651    1.115   1_655 S
O1181  Zn1252  1.935   .     S
O1181  Zn1260  1.935   .     S
O1181  Zn1249  1.935   .     S
O1182  Zn1251  1.948   .     S
O1182  C365    1.271   1_565 S
O1183  Zn1254  1.948   .     S
O1183  C692    1.271   1_655 S
O1184  Zn1253  1.948   .     S
O1185  Zn1263  1.948   .     S
O1186  Zn1262  1.948   .     S
O1187  Zn1257  1.948   .     S
O1188  Zn1249  1.948   .     S
O1189  Zn1259  1.948   .     S
O1190  Zn1258  1.948   .     S
O1191  Zn1261  1.948   .     S
O1192  Zn1261  1.935   .     S
O1192  Zn1255  1.935   .     S
O1192  Zn1257  1.935   .     S
O1193  Zn1260  1.948   .     S
O1194  Zn1252  1.915   .     S
O1195  Zn1251  1.915   .     S
O1196  Zn1254  1.917   .     S
O1197  Zn1253  1.917   .     S
O1198  Zn1256  1.915   .     S
O1199  Zn1255  1.915   .     S
O1200  Zn1250  1.917   .     S
O1201  Zn1264  1.917   .     S
O1202  Zn1251  1.917   .     S
O1203  Zn1258  1.935   .     S
O1203  Zn1262  1.935   .     S
O1203  Zn1250  1.935   .     S
O1204  Zn1252  1.917   .     S
O1205  Zn1264  1.915   .     S
O1206  Zn1250  1.915   .     S
O1207  Zn1255  1.917   .     S
O1208  Zn1256  1.917   .     S
O1209  Zn1253  1.915   .     S
O1210  Zn1254  1.915   .     S
O1211  Zn943   1.915   1_655 S
O1212  Zn1258  1.915   .     S
O1213  Zn629   1.917   1_565 S
O1214  Zn1263  1.935   .     S
O1214  Zn1259  1.935   .     S
O1214  Zn1253  1.935   .     S
O1215  Zn1260  1.917   .     S
O1216  Zn1263  1.915   .     S
O1217  Zn946   1.915   1_655 S
O1218  Zn1257  1.917   .     S
O1219  Zn617   1.917   1_565 S
O1220  Zn942   1.917   1_655 S
O1221  Zn1259  1.917   .     S
O1222  Zn1249  1.915   .     S
O1223  Zn625   1.915   1_565 S
O1224  Zn1262  1.917   .     S
O1225  Zn1256  1.948   .     S
O1225  C317    1.271   1_565 S
O1226  Zn947   1.917   1_655 S
O1227  Zn628   1.915   1_565 S
O1228  Zn1261  1.915   .     S
O1236  Zn1255  1.948   .     S
O1246  Zn1250  1.948   .     S
O1247  C703    1.271   1_655 A
O1247  Zn1264  1.948   .     S
O1248  Zn1252  1.948   .     S
Zn1251 O560    1.935   1_565 S
Zn1254 O887    1.935   1_655 S
Zn1256 O549    1.935   1_565 S
Zn1264 O898    1.935   1_655 S
