data_str_m1_o10_o16_pcu_sym.246
_audit_creation_date              2020-01-03
_audit_creation_method            'Materials Studio'
_symmetry_space_group_name_H-M    'P1'
_symmetry_Int_Tables_number       1
_symmetry_cell_setting            triclinic
loop_
_symmetry_equiv_pos_as_xyz
  x,y,z
_cell_length_a                    32.5559
_cell_length_b                    32.5423
_cell_length_c                    30.9785
_cell_angle_alpha                 96.7878
_cell_angle_beta                  74.9093
_cell_angle_gamma                 98.6034
loop_
_atom_site_label
_atom_site_type_symbol
_atom_site_fract_x
_atom_site_fract_y
_atom_site_fract_z
_atom_site_U_iso_or_equiv
_atom_site_adp_type
_atom_site_occupancy
Zn1    Zn    0.19338   0.13994   0.28734   0.00000  Uiso   1.00
Zn2    Zn    0.13379   0.12458   0.21875   0.00000  Uiso   1.00
Zn3    Zn    0.21056   0.19775   0.20657   0.00000  Uiso   1.00
Zn4    Zn    0.12893   0.20439   0.28733   0.00000  Uiso   1.00
O5     O     0.16667   0.16667   0.25000   0.00000  Uiso   1.00
O6     O     0.07071   0.18878   0.28213   0.00000  Uiso   1.00
O7     O     0.25491   0.15226   0.27013   0.00000  Uiso   1.00
O8     O     0.13760   0.06944   0.23413   0.00000  Uiso   1.00
O9     O     0.20345   0.25620   0.21360   0.00000  Uiso   1.00
O10    O     0.15451   0.12637   0.15458   0.00000  Uiso   1.00
O11    O     0.12940   0.20391   0.34968   0.00000  Uiso   1.00
O12    O     0.20824   0.17759   0.14606   0.00000  Uiso   1.00
O13    O     0.17451   0.15880   0.34968   0.00000  Uiso   1.00
O14    O     0.17930   0.08019   0.28213   0.00000  Uiso   1.00
O15    O     0.14632   0.26085   0.27013   0.00000  Uiso   1.00
O16    O     0.07412   0.13291   0.23413   0.00000  Uiso   1.00
O17    O     0.26693   0.19272   0.21360   0.00000  Uiso   1.00
C18    C     0.05270   0.15959   0.25997   0.00000  Uiso   1.00
C19    C     0.28075   0.17380   0.24004   0.00000  Uiso   1.00
C20    C     0.15605   0.05583   0.26019   0.00000  Uiso   1.00
C21    C     0.17655   0.27789   0.24021   0.00000  Uiso   1.00
C22    C     0.18519   0.14789   0.12932   0.00000  Uiso   1.00
C23    C     0.14793   0.18418   0.37104   0.00000  Uiso   1.00
C24    C     0.19693   0.08668   0.01844   0.00000  Uiso   1.00
H25    H     0.21332   0.08008   0.07985   0.00000  Uiso   1.00
H26    H     0.17360   0.06548   0.44102   0.00000  Uiso   1.00
C27    C     0.19116   0.13925   0.08114   0.00000  Uiso   1.00
C28    C     0.12930   0.23169   0.43888   0.00000  Uiso   1.00
C29    C     0.13048   0.24471   0.48273   0.00000  Uiso   1.00
C30    C     0.14394   0.21932   0.00797   0.00000  Uiso   1.00
C31    C     0.15344   0.17849   0.49087   0.00000  Uiso   1.00
C32    C     0.14651   0.16314   0.44795   0.00000  Uiso   1.00
C33    C     0.16967   0.15260   0.01494   0.00000  Uiso   1.00
C34    C     0.17919   0.11209   0.49559   0.00000  Uiso   1.00
C35    C     0.16849   0.09680   0.45528   0.00000  Uiso   1.00
C36    C     0.14750   0.11990   0.43447   0.00000  Uiso   1.00
C37    C     0.17629   0.16549   0.05798   0.00000  Uiso   1.00
C38    C     0.20257   0.10063   0.06107   0.00000  Uiso   1.00
C39    C     0.13931   0.19190   0.42026   0.00000  Uiso   1.00
H40    H     0.16752   0.19453   0.07598   0.00000  Uiso   1.00
H41    H     0.12249   0.25370   0.41880   0.00000  Uiso   1.00
H42    H     0.14655   0.23293   0.04065   0.00000  Uiso   1.00
H43    H     0.12306   0.27564   0.49654   0.00000  Uiso   1.00
C44    C     0.32658   0.17658   0.23609   0.00000  Uiso   1.00
H45    H     0.01554   0.19465   0.21052   0.00000  Uiso   1.00
C46    C     0.00745   0.15699   0.26378   0.00000  Uiso   1.00
H47    H     0.31917   0.13880   0.28962   0.00000  Uiso   1.00
C48    C     0.18041   0.32245   0.23664   0.00000  Uiso   1.00
H49    H     0.20694   0.00367   0.21170   0.00000  Uiso   1.00
C50    C     0.15168   0.01172   0.26378   0.00000  Uiso   1.00
H51    H     0.12475   0.33129   0.28879   0.00000  Uiso   1.00
N52    N     0.20682   0.04563   0.00039   0.00000  Uiso   1.00
O53    O     0.17629   0.01683   0.49366   0.00000  Uiso   1.00
O54    O     0.24365   0.03469   0.00048   0.00000  Uiso   1.00
C55    C     0.12230   0.09587   0.40235   0.00000  Uiso   1.00
C56    C     0.08906   0.06141   0.42483   0.00000  Uiso   1.00
H57    H     0.10476   0.03660   0.43353   0.00000  Uiso   1.00
H58    H     0.06758   0.07464   0.45573   0.00000  Uiso   1.00
H59    H     0.06930   0.04689   0.40143   0.00000  Uiso   1.00
H60    H     0.10381   0.11614   0.39045   0.00000  Uiso   1.00
H61    H     0.14470   0.08171   0.37285   0.00000  Uiso   1.00
Zn62   Zn    0.52672   0.13994   0.28734   0.00000  Uiso   1.00
Zn63   Zn    0.46713   0.12458   0.21875   0.00000  Uiso   1.00
Zn64   Zn    0.54389   0.19775   0.20657   0.00000  Uiso   1.00
Zn65   Zn    0.46226   0.20439   0.28733   0.00000  Uiso   1.00
O66    O     0.50000   0.16667   0.25000   0.00000  Uiso   1.00
O67    O     0.40405   0.18878   0.28213   0.00000  Uiso   1.00
O68    O     0.58824   0.15226   0.27013   0.00000  Uiso   1.00
O69    O     0.47093   0.06944   0.23413   0.00000  Uiso   1.00
O70    O     0.53678   0.25620   0.21360   0.00000  Uiso   1.00
O71    O     0.48784   0.12637   0.15458   0.00000  Uiso   1.00
O72    O     0.46274   0.20391   0.34968   0.00000  Uiso   1.00
O73    O     0.54157   0.17759   0.14606   0.00000  Uiso   1.00
O74    O     0.50785   0.15880   0.34968   0.00000  Uiso   1.00
O75    O     0.51264   0.08019   0.28213   0.00000  Uiso   1.00
O76    O     0.47965   0.26085   0.27013   0.00000  Uiso   1.00
O77    O     0.40745   0.13291   0.23413   0.00000  Uiso   1.00
O78    O     0.60026   0.19272   0.21360   0.00000  Uiso   1.00
C79    C     0.38604   0.15959   0.25997   0.00000  Uiso   1.00
C80    C     0.61408   0.17380   0.24004   0.00000  Uiso   1.00
C81    C     0.48938   0.05583   0.26019   0.00000  Uiso   1.00
C82    C     0.50988   0.27789   0.24021   0.00000  Uiso   1.00
C83    C     0.51852   0.14789   0.12932   0.00000  Uiso   1.00
C84    C     0.48126   0.18418   0.37104   0.00000  Uiso   1.00
C85    C     0.53026   0.08668   0.01844   0.00000  Uiso   1.00
H86    H     0.54666   0.08008   0.07985   0.00000  Uiso   1.00
H87    H     0.50694   0.06548   0.44102   0.00000  Uiso   1.00
C88    C     0.52449   0.13925   0.08114   0.00000  Uiso   1.00
C89    C     0.46264   0.23169   0.43888   0.00000  Uiso   1.00
C90    C     0.46381   0.24471   0.48273   0.00000  Uiso   1.00
C91    C     0.47728   0.21932   0.00797   0.00000  Uiso   1.00
C92    C     0.48677   0.17849   0.49087   0.00000  Uiso   1.00
C93    C     0.47984   0.16314   0.44795   0.00000  Uiso   1.00
C94    C     0.50301   0.15260   0.01494   0.00000  Uiso   1.00
C95    C     0.51252   0.11209   0.49559   0.00000  Uiso   1.00
C96    C     0.50183   0.09680   0.45528   0.00000  Uiso   1.00
C97    C     0.48084   0.11990   0.43447   0.00000  Uiso   1.00
C98    C     0.50962   0.16549   0.05798   0.00000  Uiso   1.00
C99    C     0.53591   0.10063   0.06107   0.00000  Uiso   1.00
C100   C     0.47264   0.19190   0.42026   0.00000  Uiso   1.00
H101   H     0.50085   0.19453   0.07598   0.00000  Uiso   1.00
H102   H     0.45582   0.25370   0.41880   0.00000  Uiso   1.00
H103   H     0.47989   0.23293   0.04065   0.00000  Uiso   1.00
H104   H     0.45640   0.27564   0.49654   0.00000  Uiso   1.00
C105   C     0.65991   0.17658   0.23609   0.00000  Uiso   1.00
H106   H     0.34888   0.19465   0.21052   0.00000  Uiso   1.00
C107   C     0.34078   0.15699   0.26378   0.00000  Uiso   1.00
H108   H     0.65250   0.13880   0.28962   0.00000  Uiso   1.00
C109   C     0.51375   0.32245   0.23664   0.00000  Uiso   1.00
H110   H     0.54027   0.00367   0.21170   0.00000  Uiso   1.00
C111   C     0.48502   0.01172   0.26378   0.00000  Uiso   1.00
H112   H     0.45809   0.33129   0.28879   0.00000  Uiso   1.00
N113   N     0.54016   0.04563   0.00039   0.00000  Uiso   1.00
O114   O     0.50962   0.01683   0.49366   0.00000  Uiso   1.00
O115   O     0.57698   0.03469   0.00048   0.00000  Uiso   1.00
C116   C     0.45564   0.09587   0.40235   0.00000  Uiso   1.00
C117   C     0.42239   0.06141   0.42483   0.00000  Uiso   1.00
H118   H     0.43809   0.03660   0.43353   0.00000  Uiso   1.00
H119   H     0.40092   0.07464   0.45573   0.00000  Uiso   1.00
H120   H     0.40264   0.04689   0.40143   0.00000  Uiso   1.00
H121   H     0.43715   0.11614   0.39045   0.00000  Uiso   1.00
H122   H     0.47804   0.08171   0.37285   0.00000  Uiso   1.00
Zn123  Zn    0.86005   0.13994   0.28734   0.00000  Uiso   1.00
Zn124  Zn    0.80046   0.12458   0.21875   0.00000  Uiso   1.00
Zn125  Zn    0.87723   0.19775   0.20657   0.00000  Uiso   1.00
Zn126  Zn    0.79560   0.20439   0.28733   0.00000  Uiso   1.00
O127   O     0.83333   0.16667   0.25000   0.00000  Uiso   1.00
O128   O     0.73738   0.18878   0.28213   0.00000  Uiso   1.00
O129   O     0.92158   0.15226   0.27013   0.00000  Uiso   1.00
O130   O     0.80426   0.06944   0.23413   0.00000  Uiso   1.00
O131   O     0.87012   0.25620   0.21360   0.00000  Uiso   1.00
O132   O     0.82118   0.12637   0.15458   0.00000  Uiso   1.00
O133   O     0.79607   0.20391   0.34968   0.00000  Uiso   1.00
O134   O     0.87491   0.17759   0.14606   0.00000  Uiso   1.00
O135   O     0.84118   0.15880   0.34968   0.00000  Uiso   1.00
O136   O     0.84597   0.08019   0.28213   0.00000  Uiso   1.00
O137   O     0.81298   0.26085   0.27013   0.00000  Uiso   1.00
O138   O     0.74078   0.13291   0.23413   0.00000  Uiso   1.00
O139   O     0.93360   0.19272   0.21360   0.00000  Uiso   1.00
C140   C     0.71937   0.15959   0.25997   0.00000  Uiso   1.00
C141   C     0.94741   0.17380   0.24004   0.00000  Uiso   1.00
C142   C     0.82272   0.05583   0.26019   0.00000  Uiso   1.00
C143   C     0.84321   0.27789   0.24021   0.00000  Uiso   1.00
C144   C     0.85185   0.14789   0.12932   0.00000  Uiso   1.00
C145   C     0.81460   0.18418   0.37104   0.00000  Uiso   1.00
C146   C     0.86359   0.08668   0.01844   0.00000  Uiso   1.00
H147   H     0.87999   0.08008   0.07985   0.00000  Uiso   1.00
H148   H     0.84027   0.06548   0.44102   0.00000  Uiso   1.00
C149   C     0.85783   0.13925   0.08114   0.00000  Uiso   1.00
C150   C     0.79597   0.23169   0.43888   0.00000  Uiso   1.00
C151   C     0.79715   0.24471   0.48273   0.00000  Uiso   1.00
C152   C     0.81061   0.21932   0.00797   0.00000  Uiso   1.00
C153   C     0.82011   0.17849   0.49087   0.00000  Uiso   1.00
C154   C     0.81317   0.16314   0.44795   0.00000  Uiso   1.00
C155   C     0.83634   0.15260   0.01494   0.00000  Uiso   1.00
C156   C     0.84586   0.11209   0.49559   0.00000  Uiso   1.00
C157   C     0.83516   0.09680   0.45528   0.00000  Uiso   1.00
C158   C     0.81417   0.11990   0.43447   0.00000  Uiso   1.00
C159   C     0.84296   0.16549   0.05798   0.00000  Uiso   1.00
C160   C     0.86924   0.10063   0.06107   0.00000  Uiso   1.00
C161   C     0.80597   0.19190   0.42026   0.00000  Uiso   1.00
H162   H     0.83419   0.19453   0.07598   0.00000  Uiso   1.00
H163   H     0.78915   0.25370   0.41880   0.00000  Uiso   1.00
H164   H     0.81322   0.23293   0.04065   0.00000  Uiso   1.00
H165   H     0.78973   0.27564   0.49654   0.00000  Uiso   1.00
C166   C     0.99324   0.17658   0.23609   0.00000  Uiso   1.00
H167   H     0.68221   0.19465   0.21052   0.00000  Uiso   1.00
C168   C     0.67411   0.15699   0.26378   0.00000  Uiso   1.00
H169   H     0.98584   0.13880   0.28962   0.00000  Uiso   1.00
C170   C     0.84708   0.32245   0.23664   0.00000  Uiso   1.00
H171   H     0.87360   0.00367   0.21170   0.00000  Uiso   1.00
C172   C     0.81835   0.01172   0.26378   0.00000  Uiso   1.00
H173   H     0.79142   0.33129   0.28879   0.00000  Uiso   1.00
N174   N     0.87349   0.04563   0.00039   0.00000  Uiso   1.00
O175   O     0.84295   0.01683   0.49366   0.00000  Uiso   1.00
O176   O     0.91031   0.03469   0.00048   0.00000  Uiso   1.00
C177   C     0.78897   0.09587   0.40235   0.00000  Uiso   1.00
C178   C     0.75573   0.06141   0.42483   0.00000  Uiso   1.00
H179   H     0.77142   0.03660   0.43353   0.00000  Uiso   1.00
H180   H     0.73425   0.07464   0.45573   0.00000  Uiso   1.00
H181   H     0.73597   0.04689   0.40143   0.00000  Uiso   1.00
H182   H     0.77048   0.11614   0.39045   0.00000  Uiso   1.00
H183   H     0.81137   0.08171   0.37285   0.00000  Uiso   1.00
Zn184  Zn    0.19338   0.47327   0.28734   0.00000  Uiso   1.00
Zn185  Zn    0.13379   0.45791   0.21875   0.00000  Uiso   1.00
Zn186  Zn    0.21056   0.53109   0.20657   0.00000  Uiso   1.00
Zn187  Zn    0.12893   0.53773   0.28733   0.00000  Uiso   1.00
O188   O     0.16667   0.50000   0.25000   0.00000  Uiso   1.00
O189   O     0.07071   0.52211   0.28213   0.00000  Uiso   1.00
O190   O     0.25491   0.48559   0.27013   0.00000  Uiso   1.00
O191   O     0.13760   0.40277   0.23413   0.00000  Uiso   1.00
O192   O     0.20345   0.58953   0.21360   0.00000  Uiso   1.00
O193   O     0.15451   0.45970   0.15458   0.00000  Uiso   1.00
O194   O     0.12940   0.53724   0.34968   0.00000  Uiso   1.00
O195   O     0.20824   0.51092   0.14606   0.00000  Uiso   1.00
O196   O     0.17451   0.49213   0.34968   0.00000  Uiso   1.00
O197   O     0.17930   0.41352   0.28213   0.00000  Uiso   1.00
O198   O     0.14632   0.59418   0.27013   0.00000  Uiso   1.00
O199   O     0.07412   0.46625   0.23413   0.00000  Uiso   1.00
O200   O     0.26693   0.52605   0.21360   0.00000  Uiso   1.00
C201   C     0.05270   0.49292   0.25997   0.00000  Uiso   1.00
C202   C     0.28075   0.50713   0.24004   0.00000  Uiso   1.00
C203   C     0.15605   0.38917   0.26019   0.00000  Uiso   1.00
C204   C     0.17655   0.61123   0.24021   0.00000  Uiso   1.00
C205   C     0.18519   0.48122   0.12932   0.00000  Uiso   1.00
C206   C     0.14793   0.51751   0.37104   0.00000  Uiso   1.00
C207   C     0.19693   0.42001   0.01844   0.00000  Uiso   1.00
H208   H     0.21332   0.41342   0.07985   0.00000  Uiso   1.00
H209   H     0.17360   0.39882   0.44102   0.00000  Uiso   1.00
C210   C     0.19116   0.47258   0.08114   0.00000  Uiso   1.00
C211   C     0.12930   0.56502   0.43888   0.00000  Uiso   1.00
C212   C     0.13048   0.57804   0.48273   0.00000  Uiso   1.00
C213   C     0.14394   0.55266   0.00797   0.00000  Uiso   1.00
C214   C     0.15344   0.51183   0.49087   0.00000  Uiso   1.00
C215   C     0.14651   0.49647   0.44795   0.00000  Uiso   1.00
C216   C     0.16967   0.48593   0.01494   0.00000  Uiso   1.00
C217   C     0.17919   0.44542   0.49559   0.00000  Uiso   1.00
C218   C     0.16849   0.43013   0.45528   0.00000  Uiso   1.00
C219   C     0.14750   0.45323   0.43447   0.00000  Uiso   1.00
C220   C     0.17629   0.49883   0.05798   0.00000  Uiso   1.00
C221   C     0.20257   0.43396   0.06107   0.00000  Uiso   1.00
C222   C     0.13931   0.52523   0.42026   0.00000  Uiso   1.00
H223   H     0.16752   0.52787   0.07598   0.00000  Uiso   1.00
H224   H     0.12249   0.58703   0.41880   0.00000  Uiso   1.00
H225   H     0.14655   0.56626   0.04065   0.00000  Uiso   1.00
H226   H     0.12306   0.60898   0.49654   0.00000  Uiso   1.00
C227   C     0.32658   0.50992   0.23609   0.00000  Uiso   1.00
H228   H     0.01554   0.52798   0.21052   0.00000  Uiso   1.00
C229   C     0.00745   0.49032   0.26378   0.00000  Uiso   1.00
H230   H     0.31917   0.47213   0.28962   0.00000  Uiso   1.00
C231   C     0.18041   0.65578   0.23664   0.00000  Uiso   1.00
H232   H     0.20694   0.33700   0.21170   0.00000  Uiso   1.00
C233   C     0.15168   0.34505   0.26378   0.00000  Uiso   1.00
H234   H     0.12475   0.66463   0.28879   0.00000  Uiso   1.00
N235   N     0.20682   0.37896   0.00039   0.00000  Uiso   1.00
O236   O     0.17629   0.35016   0.49366   0.00000  Uiso   1.00
O237   O     0.24365   0.36803   0.00048   0.00000  Uiso   1.00
C238   C     0.12230   0.42921   0.40235   0.00000  Uiso   1.00
C239   C     0.08906   0.39475   0.42483   0.00000  Uiso   1.00
H240   H     0.10476   0.36994   0.43353   0.00000  Uiso   1.00
H241   H     0.06758   0.40797   0.45573   0.00000  Uiso   1.00
H242   H     0.06930   0.38022   0.40143   0.00000  Uiso   1.00
H243   H     0.10381   0.44947   0.39045   0.00000  Uiso   1.00
H244   H     0.14470   0.41505   0.37285   0.00000  Uiso   1.00
Zn245  Zn    0.52672   0.47327   0.28734   0.00000  Uiso   1.00
Zn246  Zn    0.46713   0.45791   0.21875   0.00000  Uiso   1.00
Zn247  Zn    0.54389   0.53109   0.20657   0.00000  Uiso   1.00
Zn248  Zn    0.46226   0.53773   0.28733   0.00000  Uiso   1.00
O249   O     0.50000   0.50000   0.25000   0.00000  Uiso   1.00
O250   O     0.40405   0.52211   0.28213   0.00000  Uiso   1.00
O251   O     0.58824   0.48559   0.27013   0.00000  Uiso   1.00
O252   O     0.47093   0.40277   0.23413   0.00000  Uiso   1.00
O253   O     0.53678   0.58953   0.21360   0.00000  Uiso   1.00
O254   O     0.48784   0.45970   0.15458   0.00000  Uiso   1.00
O255   O     0.46274   0.53724   0.34968   0.00000  Uiso   1.00
O256   O     0.54157   0.51092   0.14606   0.00000  Uiso   1.00
O257   O     0.50785   0.49213   0.34968   0.00000  Uiso   1.00
O258   O     0.51264   0.41352   0.28213   0.00000  Uiso   1.00
O259   O     0.47965   0.59418   0.27013   0.00000  Uiso   1.00
O260   O     0.40745   0.46625   0.23413   0.00000  Uiso   1.00
O261   O     0.60026   0.52605   0.21360   0.00000  Uiso   1.00
C262   C     0.38604   0.49292   0.25997   0.00000  Uiso   1.00
C263   C     0.61408   0.50713   0.24004   0.00000  Uiso   1.00
C264   C     0.48938   0.38917   0.26019   0.00000  Uiso   1.00
C265   C     0.50988   0.61123   0.24021   0.00000  Uiso   1.00
C266   C     0.51852   0.48122   0.12932   0.00000  Uiso   1.00
C267   C     0.48126   0.51751   0.37104   0.00000  Uiso   1.00
C268   C     0.53026   0.42001   0.01844   0.00000  Uiso   1.00
H269   H     0.54666   0.41342   0.07985   0.00000  Uiso   1.00
H270   H     0.50694   0.39882   0.44102   0.00000  Uiso   1.00
C271   C     0.52449   0.47258   0.08114   0.00000  Uiso   1.00
C272   C     0.46264   0.56502   0.43888   0.00000  Uiso   1.00
C273   C     0.46381   0.57804   0.48273   0.00000  Uiso   1.00
C274   C     0.47728   0.55266   0.00797   0.00000  Uiso   1.00
C275   C     0.48677   0.51183   0.49087   0.00000  Uiso   1.00
C276   C     0.47984   0.49647   0.44795   0.00000  Uiso   1.00
C277   C     0.50301   0.48593   0.01494   0.00000  Uiso   1.00
C278   C     0.51252   0.44542   0.49559   0.00000  Uiso   1.00
C279   C     0.50183   0.43013   0.45528   0.00000  Uiso   1.00
C280   C     0.48084   0.45323   0.43447   0.00000  Uiso   1.00
C281   C     0.50962   0.49883   0.05798   0.00000  Uiso   1.00
C282   C     0.53591   0.43396   0.06107   0.00000  Uiso   1.00
C283   C     0.47264   0.52523   0.42026   0.00000  Uiso   1.00
H284   H     0.50085   0.52787   0.07598   0.00000  Uiso   1.00
H285   H     0.45582   0.58703   0.41880   0.00000  Uiso   1.00
H286   H     0.47989   0.56626   0.04065   0.00000  Uiso   1.00
H287   H     0.45640   0.60898   0.49654   0.00000  Uiso   1.00
C288   C     0.65991   0.50992   0.23609   0.00000  Uiso   1.00
H289   H     0.34888   0.52798   0.21052   0.00000  Uiso   1.00
C290   C     0.34078   0.49032   0.26378   0.00000  Uiso   1.00
H291   H     0.65250   0.47213   0.28962   0.00000  Uiso   1.00
C292   C     0.51375   0.65578   0.23664   0.00000  Uiso   1.00
H293   H     0.54027   0.33700   0.21170   0.00000  Uiso   1.00
C294   C     0.48502   0.34505   0.26378   0.00000  Uiso   1.00
H295   H     0.45809   0.66463   0.28879   0.00000  Uiso   1.00
N296   N     0.54016   0.37896   0.00039   0.00000  Uiso   1.00
O297   O     0.50962   0.35016   0.49366   0.00000  Uiso   1.00
O298   O     0.57698   0.36803   0.00048   0.00000  Uiso   1.00
C299   C     0.45564   0.42921   0.40235   0.00000  Uiso   1.00
C300   C     0.42239   0.39475   0.42483   0.00000  Uiso   1.00
H301   H     0.43809   0.36994   0.43353   0.00000  Uiso   1.00
H302   H     0.40092   0.40797   0.45573   0.00000  Uiso   1.00
H303   H     0.40264   0.38022   0.40143   0.00000  Uiso   1.00
H304   H     0.43715   0.44947   0.39045   0.00000  Uiso   1.00
H305   H     0.47804   0.41505   0.37285   0.00000  Uiso   1.00
Zn306  Zn    0.86005   0.47327   0.28734   0.00000  Uiso   1.00
Zn307  Zn    0.80046   0.45791   0.21875   0.00000  Uiso   1.00
Zn308  Zn    0.87723   0.53109   0.20657   0.00000  Uiso   1.00
Zn309  Zn    0.79560   0.53773   0.28733   0.00000  Uiso   1.00
O310   O     0.83333   0.50000   0.25000   0.00000  Uiso   1.00
O311   O     0.73738   0.52211   0.28213   0.00000  Uiso   1.00
O312   O     0.92158   0.48559   0.27013   0.00000  Uiso   1.00
O313   O     0.80426   0.40277   0.23413   0.00000  Uiso   1.00
O314   O     0.87012   0.58953   0.21360   0.00000  Uiso   1.00
O315   O     0.82118   0.45970   0.15458   0.00000  Uiso   1.00
O316   O     0.79607   0.53724   0.34968   0.00000  Uiso   1.00
O317   O     0.87491   0.51092   0.14606   0.00000  Uiso   1.00
O318   O     0.84118   0.49213   0.34968   0.00000  Uiso   1.00
O319   O     0.84597   0.41352   0.28213   0.00000  Uiso   1.00
O320   O     0.81298   0.59418   0.27013   0.00000  Uiso   1.00
O321   O     0.74078   0.46625   0.23413   0.00000  Uiso   1.00
O322   O     0.93360   0.52605   0.21360   0.00000  Uiso   1.00
C323   C     0.71937   0.49292   0.25997   0.00000  Uiso   1.00
C324   C     0.94741   0.50713   0.24004   0.00000  Uiso   1.00
C325   C     0.82272   0.38917   0.26019   0.00000  Uiso   1.00
C326   C     0.84321   0.61123   0.24021   0.00000  Uiso   1.00
C327   C     0.85185   0.48122   0.12932   0.00000  Uiso   1.00
C328   C     0.81460   0.51751   0.37104   0.00000  Uiso   1.00
C329   C     0.86359   0.42001   0.01844   0.00000  Uiso   1.00
H330   H     0.87999   0.41342   0.07985   0.00000  Uiso   1.00
H331   H     0.84027   0.39882   0.44102   0.00000  Uiso   1.00
C332   C     0.85783   0.47258   0.08114   0.00000  Uiso   1.00
C333   C     0.79597   0.56502   0.43888   0.00000  Uiso   1.00
C334   C     0.79715   0.57804   0.48273   0.00000  Uiso   1.00
C335   C     0.81061   0.55266   0.00797   0.00000  Uiso   1.00
C336   C     0.82011   0.51183   0.49087   0.00000  Uiso   1.00
C337   C     0.81317   0.49647   0.44795   0.00000  Uiso   1.00
C338   C     0.83634   0.48593   0.01494   0.00000  Uiso   1.00
C339   C     0.84586   0.44542   0.49559   0.00000  Uiso   1.00
C340   C     0.83516   0.43013   0.45528   0.00000  Uiso   1.00
C341   C     0.81417   0.45323   0.43447   0.00000  Uiso   1.00
C342   C     0.84296   0.49883   0.05798   0.00000  Uiso   1.00
C343   C     0.86924   0.43396   0.06107   0.00000  Uiso   1.00
C344   C     0.80597   0.52523   0.42026   0.00000  Uiso   1.00
H345   H     0.83419   0.52787   0.07598   0.00000  Uiso   1.00
H346   H     0.78915   0.58703   0.41880   0.00000  Uiso   1.00
H347   H     0.81322   0.56626   0.04065   0.00000  Uiso   1.00
H348   H     0.78973   0.60898   0.49654   0.00000  Uiso   1.00
C349   C     0.99324   0.50992   0.23609   0.00000  Uiso   1.00
H350   H     0.68221   0.52798   0.21052   0.00000  Uiso   1.00
C351   C     0.67411   0.49032   0.26378   0.00000  Uiso   1.00
H352   H     0.98584   0.47213   0.28962   0.00000  Uiso   1.00
C353   C     0.84708   0.65578   0.23664   0.00000  Uiso   1.00
H354   H     0.87360   0.33700   0.21170   0.00000  Uiso   1.00
C355   C     0.81835   0.34505   0.26378   0.00000  Uiso   1.00
H356   H     0.79142   0.66463   0.28879   0.00000  Uiso   1.00
N357   N     0.87349   0.37896   0.00039   0.00000  Uiso   1.00
O358   O     0.84295   0.35016   0.49366   0.00000  Uiso   1.00
O359   O     0.91031   0.36803   0.00048   0.00000  Uiso   1.00
C360   C     0.78897   0.42921   0.40235   0.00000  Uiso   1.00
C361   C     0.75573   0.39475   0.42483   0.00000  Uiso   1.00
H362   H     0.77142   0.36994   0.43353   0.00000  Uiso   1.00
H363   H     0.73425   0.40797   0.45573   0.00000  Uiso   1.00
H364   H     0.73597   0.38022   0.40143   0.00000  Uiso   1.00
H365   H     0.77048   0.44947   0.39045   0.00000  Uiso   1.00
H366   H     0.81137   0.41505   0.37285   0.00000  Uiso   1.00
Zn367  Zn    0.19338   0.80661   0.28734   0.00000  Uiso   1.00
Zn368  Zn    0.13379   0.79124   0.21875   0.00000  Uiso   1.00
Zn369  Zn    0.21056   0.86442   0.20657   0.00000  Uiso   1.00
Zn370  Zn    0.12893   0.87106   0.28733   0.00000  Uiso   1.00
O371   O     0.16667   0.83333   0.25000   0.00000  Uiso   1.00
O372   O     0.07071   0.85544   0.28213   0.00000  Uiso   1.00
O373   O     0.25491   0.81892   0.27013   0.00000  Uiso   1.00
O374   O     0.13760   0.73610   0.23413   0.00000  Uiso   1.00
O375   O     0.20345   0.92286   0.21360   0.00000  Uiso   1.00
O376   O     0.15451   0.79304   0.15458   0.00000  Uiso   1.00
O377   O     0.12940   0.87058   0.34968   0.00000  Uiso   1.00
O378   O     0.20824   0.84425   0.14606   0.00000  Uiso   1.00
O379   O     0.17451   0.82546   0.34968   0.00000  Uiso   1.00
O380   O     0.17930   0.74686   0.28213   0.00000  Uiso   1.00
O381   O     0.14632   0.92751   0.27013   0.00000  Uiso   1.00
O382   O     0.07412   0.79958   0.23413   0.00000  Uiso   1.00
O383   O     0.26693   0.85939   0.21360   0.00000  Uiso   1.00
C384   C     0.05270   0.82625   0.25997   0.00000  Uiso   1.00
C385   C     0.28075   0.84047   0.24004   0.00000  Uiso   1.00
C386   C     0.15605   0.72250   0.26019   0.00000  Uiso   1.00
C387   C     0.17655   0.94456   0.24021   0.00000  Uiso   1.00
C388   C     0.18519   0.81456   0.12932   0.00000  Uiso   1.00
C389   C     0.14793   0.85084   0.37104   0.00000  Uiso   1.00
C390   C     0.19693   0.75335   0.01844   0.00000  Uiso   1.00
H391   H     0.21332   0.74675   0.07985   0.00000  Uiso   1.00
H392   H     0.17360   0.73215   0.44102   0.00000  Uiso   1.00
C393   C     0.19116   0.80591   0.08114   0.00000  Uiso   1.00
C394   C     0.12930   0.89835   0.43888   0.00000  Uiso   1.00
C395   C     0.13048   0.91138   0.48273   0.00000  Uiso   1.00
C396   C     0.14394   0.88599   0.00797   0.00000  Uiso   1.00
C397   C     0.15344   0.84516   0.49087   0.00000  Uiso   1.00
C398   C     0.14651   0.82981   0.44795   0.00000  Uiso   1.00
C399   C     0.16967   0.81927   0.01494   0.00000  Uiso   1.00
C400   C     0.17919   0.77876   0.49559   0.00000  Uiso   1.00
C401   C     0.16849   0.76347   0.45528   0.00000  Uiso   1.00
C402   C     0.14750   0.78656   0.43447   0.00000  Uiso   1.00
C403   C     0.17629   0.83216   0.05798   0.00000  Uiso   1.00
C404   C     0.20257   0.76729   0.06107   0.00000  Uiso   1.00
C405   C     0.13931   0.85857   0.42026   0.00000  Uiso   1.00
H406   H     0.16752   0.86120   0.07598   0.00000  Uiso   1.00
H407   H     0.12249   0.92037   0.41880   0.00000  Uiso   1.00
H408   H     0.14655   0.89959   0.04065   0.00000  Uiso   1.00
H409   H     0.12306   0.94231   0.49654   0.00000  Uiso   1.00
C410   C     0.32658   0.84325   0.23609   0.00000  Uiso   1.00
H411   H     0.01554   0.86131   0.21052   0.00000  Uiso   1.00
C412   C     0.00745   0.82366   0.26378   0.00000  Uiso   1.00
H413   H     0.31917   0.80547   0.28962   0.00000  Uiso   1.00
C414   C     0.18041   0.98912   0.23664   0.00000  Uiso   1.00
H415   H     0.20694   0.67033   0.21170   0.00000  Uiso   1.00
C416   C     0.15168   0.67839   0.26378   0.00000  Uiso   1.00
H417   H     0.12475   0.99796   0.28879   0.00000  Uiso   1.00
N418   N     0.20682   0.71229   0.00039   0.00000  Uiso   1.00
O419   O     0.17629   0.68350   0.49366   0.00000  Uiso   1.00
O420   O     0.24365   0.70136   0.00048   0.00000  Uiso   1.00
C421   C     0.12230   0.76254   0.40235   0.00000  Uiso   1.00
C422   C     0.08906   0.72808   0.42483   0.00000  Uiso   1.00
H423   H     0.10476   0.70327   0.43353   0.00000  Uiso   1.00
H424   H     0.06758   0.74130   0.45573   0.00000  Uiso   1.00
H425   H     0.06930   0.71356   0.40143   0.00000  Uiso   1.00
H426   H     0.10381   0.78281   0.39045   0.00000  Uiso   1.00
H427   H     0.14470   0.74838   0.37285   0.00000  Uiso   1.00
Zn428  Zn    0.52672   0.80661   0.28734   0.00000  Uiso   1.00
Zn429  Zn    0.46713   0.79124   0.21875   0.00000  Uiso   1.00
Zn430  Zn    0.54389   0.86442   0.20657   0.00000  Uiso   1.00
Zn431  Zn    0.46226   0.87106   0.28733   0.00000  Uiso   1.00
O432   O     0.50000   0.83333   0.25000   0.00000  Uiso   1.00
O433   O     0.40405   0.85544   0.28213   0.00000  Uiso   1.00
O434   O     0.58824   0.81892   0.27013   0.00000  Uiso   1.00
O435   O     0.47093   0.73610   0.23413   0.00000  Uiso   1.00
O436   O     0.53678   0.92286   0.21360   0.00000  Uiso   1.00
O437   O     0.48784   0.79304   0.15458   0.00000  Uiso   1.00
O438   O     0.46274   0.87058   0.34968   0.00000  Uiso   1.00
O439   O     0.54157   0.84425   0.14606   0.00000  Uiso   1.00
O440   O     0.50785   0.82546   0.34968   0.00000  Uiso   1.00
O441   O     0.51264   0.74686   0.28213   0.00000  Uiso   1.00
O442   O     0.47965   0.92751   0.27013   0.00000  Uiso   1.00
O443   O     0.40745   0.79958   0.23413   0.00000  Uiso   1.00
O444   O     0.60026   0.85939   0.21360   0.00000  Uiso   1.00
C445   C     0.38604   0.82625   0.25997   0.00000  Uiso   1.00
C446   C     0.61408   0.84047   0.24004   0.00000  Uiso   1.00
C447   C     0.48938   0.72250   0.26019   0.00000  Uiso   1.00
C448   C     0.50988   0.94456   0.24021   0.00000  Uiso   1.00
C449   C     0.51852   0.81456   0.12932   0.00000  Uiso   1.00
C450   C     0.48126   0.85084   0.37104   0.00000  Uiso   1.00
C451   C     0.53026   0.75335   0.01844   0.00000  Uiso   1.00
H452   H     0.54666   0.74675   0.07985   0.00000  Uiso   1.00
H453   H     0.50694   0.73215   0.44102   0.00000  Uiso   1.00
C454   C     0.52449   0.80591   0.08114   0.00000  Uiso   1.00
C455   C     0.46264   0.89835   0.43888   0.00000  Uiso   1.00
C456   C     0.46381   0.91138   0.48273   0.00000  Uiso   1.00
C457   C     0.47728   0.88599   0.00797   0.00000  Uiso   1.00
C458   C     0.48677   0.84516   0.49087   0.00000  Uiso   1.00
C459   C     0.47984   0.82981   0.44795   0.00000  Uiso   1.00
C460   C     0.50301   0.81927   0.01494   0.00000  Uiso   1.00
C461   C     0.51252   0.77876   0.49559   0.00000  Uiso   1.00
C462   C     0.50183   0.76347   0.45528   0.00000  Uiso   1.00
C463   C     0.48084   0.78656   0.43447   0.00000  Uiso   1.00
C464   C     0.50962   0.83216   0.05798   0.00000  Uiso   1.00
C465   C     0.53591   0.76729   0.06107   0.00000  Uiso   1.00
C466   C     0.47264   0.85857   0.42026   0.00000  Uiso   1.00
H467   H     0.50085   0.86120   0.07598   0.00000  Uiso   1.00
H468   H     0.45582   0.92037   0.41880   0.00000  Uiso   1.00
H469   H     0.47989   0.89959   0.04065   0.00000  Uiso   1.00
H470   H     0.45640   0.94231   0.49654   0.00000  Uiso   1.00
C471   C     0.65991   0.84325   0.23609   0.00000  Uiso   1.00
H472   H     0.34888   0.86131   0.21052   0.00000  Uiso   1.00
C473   C     0.34078   0.82366   0.26378   0.00000  Uiso   1.00
H474   H     0.65250   0.80547   0.28962   0.00000  Uiso   1.00
C475   C     0.51375   0.98912   0.23664   0.00000  Uiso   1.00
H476   H     0.54027   0.67033   0.21170   0.00000  Uiso   1.00
C477   C     0.48502   0.67839   0.26378   0.00000  Uiso   1.00
H478   H     0.45809   0.99796   0.28879   0.00000  Uiso   1.00
N479   N     0.54016   0.71229   0.00039   0.00000  Uiso   1.00
O480   O     0.50962   0.68350   0.49366   0.00000  Uiso   1.00
O481   O     0.57698   0.70136   0.00048   0.00000  Uiso   1.00
C482   C     0.45564   0.76254   0.40235   0.00000  Uiso   1.00
C483   C     0.42239   0.72808   0.42483   0.00000  Uiso   1.00
H484   H     0.43809   0.70327   0.43353   0.00000  Uiso   1.00
H485   H     0.40092   0.74130   0.45573   0.00000  Uiso   1.00
H486   H     0.40264   0.71356   0.40143   0.00000  Uiso   1.00
H487   H     0.43715   0.78281   0.39045   0.00000  Uiso   1.00
H488   H     0.47804   0.74838   0.37285   0.00000  Uiso   1.00
Zn489  Zn    0.86005   0.80661   0.28734   0.00000  Uiso   1.00
Zn490  Zn    0.80046   0.79124   0.21875   0.00000  Uiso   1.00
Zn491  Zn    0.87723   0.86442   0.20657   0.00000  Uiso   1.00
Zn492  Zn    0.79560   0.87106   0.28733   0.00000  Uiso   1.00
O493   O     0.83333   0.83333   0.25000   0.00000  Uiso   1.00
O494   O     0.73738   0.85544   0.28213   0.00000  Uiso   1.00
O495   O     0.92158   0.81892   0.27013   0.00000  Uiso   1.00
O496   O     0.80426   0.73610   0.23413   0.00000  Uiso   1.00
O497   O     0.87012   0.92286   0.21360   0.00000  Uiso   1.00
O498   O     0.82118   0.79304   0.15458   0.00000  Uiso   1.00
O499   O     0.79607   0.87058   0.34968   0.00000  Uiso   1.00
O500   O     0.87491   0.84425   0.14606   0.00000  Uiso   1.00
O501   O     0.84118   0.82546   0.34968   0.00000  Uiso   1.00
O502   O     0.84597   0.74686   0.28213   0.00000  Uiso   1.00
O503   O     0.81298   0.92751   0.27013   0.00000  Uiso   1.00
O504   O     0.74078   0.79958   0.23413   0.00000  Uiso   1.00
O505   O     0.93360   0.85939   0.21360   0.00000  Uiso   1.00
C506   C     0.71937   0.82625   0.25997   0.00000  Uiso   1.00
C507   C     0.94741   0.84047   0.24004   0.00000  Uiso   1.00
C508   C     0.82272   0.72250   0.26019   0.00000  Uiso   1.00
C509   C     0.84321   0.94456   0.24021   0.00000  Uiso   1.00
C510   C     0.85185   0.81456   0.12932   0.00000  Uiso   1.00
C511   C     0.81460   0.85084   0.37104   0.00000  Uiso   1.00
C512   C     0.86359   0.75335   0.01844   0.00000  Uiso   1.00
H513   H     0.87999   0.74675   0.07985   0.00000  Uiso   1.00
H514   H     0.84027   0.73215   0.44102   0.00000  Uiso   1.00
C515   C     0.85783   0.80591   0.08114   0.00000  Uiso   1.00
C516   C     0.79597   0.89835   0.43888   0.00000  Uiso   1.00
C517   C     0.79715   0.91138   0.48273   0.00000  Uiso   1.00
C518   C     0.81061   0.88599   0.00797   0.00000  Uiso   1.00
C519   C     0.82011   0.84516   0.49087   0.00000  Uiso   1.00
C520   C     0.81317   0.82981   0.44795   0.00000  Uiso   1.00
C521   C     0.83634   0.81927   0.01494   0.00000  Uiso   1.00
C522   C     0.84586   0.77876   0.49559   0.00000  Uiso   1.00
C523   C     0.83516   0.76347   0.45528   0.00000  Uiso   1.00
C524   C     0.81417   0.78656   0.43447   0.00000  Uiso   1.00
C525   C     0.84296   0.83216   0.05798   0.00000  Uiso   1.00
C526   C     0.86924   0.76729   0.06107   0.00000  Uiso   1.00
C527   C     0.80597   0.85857   0.42026   0.00000  Uiso   1.00
H528   H     0.83419   0.86120   0.07598   0.00000  Uiso   1.00
H529   H     0.78915   0.92037   0.41880   0.00000  Uiso   1.00
H530   H     0.81322   0.89959   0.04065   0.00000  Uiso   1.00
H531   H     0.78973   0.94231   0.49654   0.00000  Uiso   1.00
C532   C     0.99324   0.84325   0.23609   0.00000  Uiso   1.00
H533   H     0.68221   0.86131   0.21052   0.00000  Uiso   1.00
C534   C     0.67411   0.82366   0.26378   0.00000  Uiso   1.00
H535   H     0.98584   0.80547   0.28962   0.00000  Uiso   1.00
C536   C     0.84708   0.98912   0.23664   0.00000  Uiso   1.00
H537   H     0.87360   0.67033   0.21170   0.00000  Uiso   1.00
C538   C     0.81835   0.67839   0.26378   0.00000  Uiso   1.00
H539   H     0.79142   0.99796   0.28879   0.00000  Uiso   1.00
N540   N     0.87349   0.71229   0.00039   0.00000  Uiso   1.00
O541   O     0.84295   0.68350   0.49366   0.00000  Uiso   1.00
O542   O     0.91031   0.70136   0.00048   0.00000  Uiso   1.00
C543   C     0.78897   0.76254   0.40235   0.00000  Uiso   1.00
C544   C     0.75573   0.72808   0.42483   0.00000  Uiso   1.00
H545   H     0.77142   0.70327   0.43353   0.00000  Uiso   1.00
H546   H     0.73425   0.74130   0.45573   0.00000  Uiso   1.00
H547   H     0.73597   0.71356   0.40143   0.00000  Uiso   1.00
H548   H     0.77048   0.78281   0.39045   0.00000  Uiso   1.00
H549   H     0.81137   0.74838   0.37285   0.00000  Uiso   1.00
Zn550  Zn    0.19338   0.13994   0.78734   0.00000  Uiso   1.00
Zn551  Zn    0.13379   0.12458   0.71875   0.00000  Uiso   1.00
Zn552  Zn    0.21056   0.19775   0.70657   0.00000  Uiso   1.00
Zn553  Zn    0.12893   0.20439   0.78733   0.00000  Uiso   1.00
O554   O     0.16667   0.16667   0.75000   0.00000  Uiso   1.00
O555   O     0.07071   0.18878   0.78213   0.00000  Uiso   1.00
O556   O     0.25491   0.15226   0.77013   0.00000  Uiso   1.00
O557   O     0.13760   0.06944   0.73413   0.00000  Uiso   1.00
O558   O     0.20345   0.25620   0.71360   0.00000  Uiso   1.00
O559   O     0.15451   0.12637   0.65458   0.00000  Uiso   1.00
O560   O     0.12940   0.20391   0.84968   0.00000  Uiso   1.00
O561   O     0.20824   0.17759   0.64606   0.00000  Uiso   1.00
O562   O     0.17451   0.15880   0.84968   0.00000  Uiso   1.00
O563   O     0.17930   0.08019   0.78213   0.00000  Uiso   1.00
O564   O     0.14632   0.26085   0.77013   0.00000  Uiso   1.00
O565   O     0.07412   0.13291   0.73413   0.00000  Uiso   1.00
O566   O     0.26693   0.19272   0.71360   0.00000  Uiso   1.00
C567   C     0.05270   0.15959   0.75997   0.00000  Uiso   1.00
C568   C     0.28075   0.17380   0.74004   0.00000  Uiso   1.00
C569   C     0.15605   0.05583   0.76019   0.00000  Uiso   1.00
C570   C     0.17655   0.27789   0.74021   0.00000  Uiso   1.00
C571   C     0.18519   0.14789   0.62932   0.00000  Uiso   1.00
C572   C     0.14793   0.18418   0.87104   0.00000  Uiso   1.00
C573   C     0.19693   0.08668   0.51844   0.00000  Uiso   1.00
H574   H     0.21332   0.08008   0.57985   0.00000  Uiso   1.00
H575   H     0.17360   0.06548   0.94102   0.00000  Uiso   1.00
C576   C     0.19116   0.13925   0.58114   0.00000  Uiso   1.00
C577   C     0.12930   0.23169   0.93888   0.00000  Uiso   1.00
C578   C     0.13048   0.24471   0.98273   0.00000  Uiso   1.00
C579   C     0.14394   0.21932   0.50797   0.00000  Uiso   1.00
C580   C     0.15344   0.17849   0.99087   0.00000  Uiso   1.00
C581   C     0.14651   0.16314   0.94795   0.00000  Uiso   1.00
C582   C     0.16967   0.15260   0.51494   0.00000  Uiso   1.00
C583   C     0.17919   0.11209   0.99559   0.00000  Uiso   1.00
C584   C     0.16849   0.09680   0.95528   0.00000  Uiso   1.00
C585   C     0.14750   0.11990   0.93447   0.00000  Uiso   1.00
C586   C     0.17629   0.16549   0.55798   0.00000  Uiso   1.00
C587   C     0.20257   0.10063   0.56107   0.00000  Uiso   1.00
C588   C     0.13931   0.19190   0.92026   0.00000  Uiso   1.00
H589   H     0.16752   0.19453   0.57598   0.00000  Uiso   1.00
H590   H     0.12249   0.25370   0.91880   0.00000  Uiso   1.00
H591   H     0.14655   0.23293   0.54065   0.00000  Uiso   1.00
H592   H     0.12306   0.27564   0.99654   0.00000  Uiso   1.00
C593   C     0.32658   0.17658   0.73609   0.00000  Uiso   1.00
H594   H     0.01554   0.19465   0.71052   0.00000  Uiso   1.00
C595   C     0.00745   0.15699   0.76378   0.00000  Uiso   1.00
H596   H     0.31917   0.13880   0.78962   0.00000  Uiso   1.00
C597   C     0.18041   0.32245   0.73664   0.00000  Uiso   1.00
H598   H     0.20694   0.00367   0.71170   0.00000  Uiso   1.00
C599   C     0.15168   0.01172   0.76378   0.00000  Uiso   1.00
H600   H     0.12475   0.33129   0.78879   0.00000  Uiso   1.00
N601   N     0.20682   0.04563   0.50039   0.00000  Uiso   1.00
O602   O     0.17629   0.01683   0.99366   0.00000  Uiso   1.00
O603   O     0.24365   0.03469   0.50048   0.00000  Uiso   1.00
C604   C     0.12230   0.09587   0.90235   0.00000  Uiso   1.00
C605   C     0.08906   0.06141   0.92483   0.00000  Uiso   1.00
H606   H     0.10476   0.03660   0.93353   0.00000  Uiso   1.00
H607   H     0.06758   0.07464   0.95573   0.00000  Uiso   1.00
H608   H     0.06930   0.04689   0.90143   0.00000  Uiso   1.00
H609   H     0.10381   0.11614   0.89045   0.00000  Uiso   1.00
H610   H     0.14470   0.08171   0.87285   0.00000  Uiso   1.00
Zn611  Zn    0.52672   0.13994   0.78734   0.00000  Uiso   1.00
Zn612  Zn    0.46713   0.12458   0.71875   0.00000  Uiso   1.00
Zn613  Zn    0.54389   0.19775   0.70657   0.00000  Uiso   1.00
Zn614  Zn    0.46226   0.20439   0.78733   0.00000  Uiso   1.00
O615   O     0.50000   0.16667   0.75000   0.00000  Uiso   1.00
O616   O     0.40405   0.18878   0.78213   0.00000  Uiso   1.00
O617   O     0.58824   0.15226   0.77013   0.00000  Uiso   1.00
O618   O     0.47093   0.06944   0.73413   0.00000  Uiso   1.00
O619   O     0.53678   0.25620   0.71360   0.00000  Uiso   1.00
O620   O     0.48784   0.12637   0.65458   0.00000  Uiso   1.00
O621   O     0.46274   0.20391   0.84968   0.00000  Uiso   1.00
O622   O     0.54157   0.17759   0.64606   0.00000  Uiso   1.00
O623   O     0.50785   0.15880   0.84968   0.00000  Uiso   1.00
O624   O     0.51264   0.08019   0.78213   0.00000  Uiso   1.00
O625   O     0.47965   0.26085   0.77013   0.00000  Uiso   1.00
O626   O     0.40745   0.13291   0.73413   0.00000  Uiso   1.00
O627   O     0.60026   0.19272   0.71360   0.00000  Uiso   1.00
C628   C     0.38604   0.15959   0.75997   0.00000  Uiso   1.00
C629   C     0.61408   0.17380   0.74004   0.00000  Uiso   1.00
C630   C     0.48938   0.05583   0.76019   0.00000  Uiso   1.00
C631   C     0.50988   0.27789   0.74021   0.00000  Uiso   1.00
C632   C     0.51852   0.14789   0.62932   0.00000  Uiso   1.00
C633   C     0.48126   0.18418   0.87104   0.00000  Uiso   1.00
C634   C     0.53026   0.08668   0.51844   0.00000  Uiso   1.00
H635   H     0.54666   0.08008   0.57985   0.00000  Uiso   1.00
H636   H     0.50694   0.06548   0.94102   0.00000  Uiso   1.00
C637   C     0.52449   0.13925   0.58114   0.00000  Uiso   1.00
C638   C     0.46264   0.23169   0.93888   0.00000  Uiso   1.00
C639   C     0.46381   0.24471   0.98273   0.00000  Uiso   1.00
C640   C     0.47728   0.21932   0.50797   0.00000  Uiso   1.00
C641   C     0.48677   0.17849   0.99087   0.00000  Uiso   1.00
C642   C     0.47984   0.16314   0.94795   0.00000  Uiso   1.00
C643   C     0.50301   0.15260   0.51494   0.00000  Uiso   1.00
C644   C     0.51252   0.11209   0.99559   0.00000  Uiso   1.00
C645   C     0.50183   0.09680   0.95528   0.00000  Uiso   1.00
C646   C     0.48084   0.11990   0.93447   0.00000  Uiso   1.00
C647   C     0.50962   0.16549   0.55798   0.00000  Uiso   1.00
C648   C     0.53591   0.10063   0.56107   0.00000  Uiso   1.00
C649   C     0.47264   0.19190   0.92026   0.00000  Uiso   1.00
H650   H     0.50085   0.19453   0.57598   0.00000  Uiso   1.00
H651   H     0.45582   0.25370   0.91880   0.00000  Uiso   1.00
H652   H     0.47989   0.23293   0.54065   0.00000  Uiso   1.00
H653   H     0.45640   0.27564   0.99654   0.00000  Uiso   1.00
C654   C     0.65991   0.17658   0.73609   0.00000  Uiso   1.00
H655   H     0.34888   0.19465   0.71052   0.00000  Uiso   1.00
C656   C     0.34078   0.15699   0.76378   0.00000  Uiso   1.00
H657   H     0.65250   0.13880   0.78962   0.00000  Uiso   1.00
C658   C     0.51375   0.32245   0.73664   0.00000  Uiso   1.00
H659   H     0.54027   0.00367   0.71170   0.00000  Uiso   1.00
C660   C     0.48502   0.01172   0.76378   0.00000  Uiso   1.00
H661   H     0.45809   0.33129   0.78879   0.00000  Uiso   1.00
N662   N     0.54016   0.04563   0.50039   0.00000  Uiso   1.00
O663   O     0.50962   0.01683   0.99366   0.00000  Uiso   1.00
O664   O     0.57698   0.03469   0.50048   0.00000  Uiso   1.00
C665   C     0.45564   0.09587   0.90235   0.00000  Uiso   1.00
C666   C     0.42239   0.06141   0.92483   0.00000  Uiso   1.00
H667   H     0.43809   0.03660   0.93353   0.00000  Uiso   1.00
H668   H     0.40092   0.07464   0.95573   0.00000  Uiso   1.00
H669   H     0.40264   0.04689   0.90143   0.00000  Uiso   1.00
H670   H     0.43715   0.11614   0.89045   0.00000  Uiso   1.00
H671   H     0.47804   0.08171   0.87285   0.00000  Uiso   1.00
Zn672  Zn    0.86005   0.13994   0.78734   0.00000  Uiso   1.00
Zn673  Zn    0.80046   0.12458   0.71875   0.00000  Uiso   1.00
Zn674  Zn    0.87723   0.19775   0.70657   0.00000  Uiso   1.00
Zn675  Zn    0.79560   0.20439   0.78733   0.00000  Uiso   1.00
O676   O     0.83333   0.16667   0.75000   0.00000  Uiso   1.00
O677   O     0.73738   0.18878   0.78213   0.00000  Uiso   1.00
O678   O     0.92158   0.15226   0.77013   0.00000  Uiso   1.00
O679   O     0.80426   0.06944   0.73413   0.00000  Uiso   1.00
O680   O     0.87012   0.25620   0.71360   0.00000  Uiso   1.00
O681   O     0.82118   0.12637   0.65458   0.00000  Uiso   1.00
O682   O     0.79607   0.20391   0.84968   0.00000  Uiso   1.00
O683   O     0.87491   0.17759   0.64606   0.00000  Uiso   1.00
O684   O     0.84118   0.15880   0.84968   0.00000  Uiso   1.00
O685   O     0.84597   0.08019   0.78213   0.00000  Uiso   1.00
O686   O     0.81298   0.26085   0.77013   0.00000  Uiso   1.00
O687   O     0.74078   0.13291   0.73413   0.00000  Uiso   1.00
O688   O     0.93360   0.19272   0.71360   0.00000  Uiso   1.00
C689   C     0.71937   0.15959   0.75997   0.00000  Uiso   1.00
C690   C     0.94741   0.17380   0.74004   0.00000  Uiso   1.00
C691   C     0.82272   0.05583   0.76019   0.00000  Uiso   1.00
C692   C     0.84321   0.27789   0.74021   0.00000  Uiso   1.00
C693   C     0.85185   0.14789   0.62932   0.00000  Uiso   1.00
C694   C     0.81460   0.18418   0.87104   0.00000  Uiso   1.00
C695   C     0.86359   0.08668   0.51844   0.00000  Uiso   1.00
H696   H     0.87999   0.08008   0.57985   0.00000  Uiso   1.00
H697   H     0.84027   0.06548   0.94102   0.00000  Uiso   1.00
C698   C     0.85783   0.13925   0.58114   0.00000  Uiso   1.00
C699   C     0.79597   0.23169   0.93888   0.00000  Uiso   1.00
C700   C     0.79715   0.24471   0.98273   0.00000  Uiso   1.00
C701   C     0.81061   0.21932   0.50797   0.00000  Uiso   1.00
C702   C     0.82011   0.17849   0.99087   0.00000  Uiso   1.00
C703   C     0.81317   0.16314   0.94795   0.00000  Uiso   1.00
C704   C     0.83634   0.15260   0.51494   0.00000  Uiso   1.00
C705   C     0.84586   0.11209   0.99559   0.00000  Uiso   1.00
C706   C     0.83516   0.09680   0.95528   0.00000  Uiso   1.00
C707   C     0.81417   0.11990   0.93447   0.00000  Uiso   1.00
C708   C     0.84296   0.16549   0.55798   0.00000  Uiso   1.00
C709   C     0.86924   0.10063   0.56107   0.00000  Uiso   1.00
C710   C     0.80597   0.19190   0.92026   0.00000  Uiso   1.00
H711   H     0.83419   0.19453   0.57598   0.00000  Uiso   1.00
H712   H     0.78915   0.25370   0.91880   0.00000  Uiso   1.00
H713   H     0.81322   0.23293   0.54065   0.00000  Uiso   1.00
H714   H     0.78973   0.27564   0.99654   0.00000  Uiso   1.00
C715   C     0.99324   0.17658   0.73609   0.00000  Uiso   1.00
H716   H     0.68221   0.19465   0.71052   0.00000  Uiso   1.00
C717   C     0.67411   0.15699   0.76378   0.00000  Uiso   1.00
H718   H     0.98584   0.13880   0.78962   0.00000  Uiso   1.00
C719   C     0.84708   0.32245   0.73664   0.00000  Uiso   1.00
H720   H     0.87360   0.00367   0.71170   0.00000  Uiso   1.00
C721   C     0.81835   0.01172   0.76378   0.00000  Uiso   1.00
H722   H     0.79142   0.33129   0.78879   0.00000  Uiso   1.00
N723   N     0.87349   0.04563   0.50039   0.00000  Uiso   1.00
O724   O     0.84295   0.01683   0.99366   0.00000  Uiso   1.00
O725   O     0.91031   0.03469   0.50048   0.00000  Uiso   1.00
C726   C     0.78897   0.09587   0.90235   0.00000  Uiso   1.00
C727   C     0.75573   0.06141   0.92483   0.00000  Uiso   1.00
H728   H     0.77142   0.03660   0.93353   0.00000  Uiso   1.00
H729   H     0.73425   0.07464   0.95573   0.00000  Uiso   1.00
H730   H     0.73597   0.04689   0.90143   0.00000  Uiso   1.00
H731   H     0.77048   0.11614   0.89045   0.00000  Uiso   1.00
H732   H     0.81137   0.08171   0.87285   0.00000  Uiso   1.00
Zn733  Zn    0.19338   0.47327   0.78734   0.00000  Uiso   1.00
Zn734  Zn    0.13379   0.45791   0.71875   0.00000  Uiso   1.00
Zn735  Zn    0.21056   0.53109   0.70657   0.00000  Uiso   1.00
Zn736  Zn    0.12893   0.53773   0.78733   0.00000  Uiso   1.00
O737   O     0.16667   0.50000   0.75000   0.00000  Uiso   1.00
O738   O     0.07071   0.52211   0.78213   0.00000  Uiso   1.00
O739   O     0.25491   0.48559   0.77013   0.00000  Uiso   1.00
O740   O     0.13760   0.40277   0.73413   0.00000  Uiso   1.00
O741   O     0.20345   0.58953   0.71360   0.00000  Uiso   1.00
O742   O     0.15451   0.45970   0.65458   0.00000  Uiso   1.00
O743   O     0.12940   0.53724   0.84968   0.00000  Uiso   1.00
O744   O     0.20824   0.51092   0.64606   0.00000  Uiso   1.00
O745   O     0.17451   0.49213   0.84968   0.00000  Uiso   1.00
O746   O     0.17930   0.41352   0.78213   0.00000  Uiso   1.00
O747   O     0.14632   0.59418   0.77013   0.00000  Uiso   1.00
O748   O     0.07412   0.46625   0.73413   0.00000  Uiso   1.00
O749   O     0.26693   0.52605   0.71360   0.00000  Uiso   1.00
C750   C     0.05270   0.49292   0.75997   0.00000  Uiso   1.00
C751   C     0.28075   0.50713   0.74004   0.00000  Uiso   1.00
C752   C     0.15605   0.38917   0.76019   0.00000  Uiso   1.00
C753   C     0.17655   0.61123   0.74021   0.00000  Uiso   1.00
C754   C     0.18519   0.48122   0.62932   0.00000  Uiso   1.00
C755   C     0.14793   0.51751   0.87104   0.00000  Uiso   1.00
C756   C     0.19693   0.42001   0.51844   0.00000  Uiso   1.00
H757   H     0.21332   0.41342   0.57985   0.00000  Uiso   1.00
H758   H     0.17360   0.39882   0.94102   0.00000  Uiso   1.00
C759   C     0.19116   0.47258   0.58114   0.00000  Uiso   1.00
C760   C     0.12930   0.56502   0.93888   0.00000  Uiso   1.00
C761   C     0.13048   0.57804   0.98273   0.00000  Uiso   1.00
C762   C     0.14394   0.55266   0.50797   0.00000  Uiso   1.00
C763   C     0.15344   0.51183   0.99087   0.00000  Uiso   1.00
C764   C     0.14651   0.49647   0.94795   0.00000  Uiso   1.00
C765   C     0.16967   0.48593   0.51494   0.00000  Uiso   1.00
C766   C     0.17919   0.44542   0.99559   0.00000  Uiso   1.00
C767   C     0.16849   0.43013   0.95528   0.00000  Uiso   1.00
C768   C     0.14750   0.45323   0.93447   0.00000  Uiso   1.00
C769   C     0.17629   0.49883   0.55798   0.00000  Uiso   1.00
C770   C     0.20257   0.43396   0.56107   0.00000  Uiso   1.00
C771   C     0.13931   0.52523   0.92026   0.00000  Uiso   1.00
H772   H     0.16752   0.52787   0.57598   0.00000  Uiso   1.00
H773   H     0.12249   0.58703   0.91880   0.00000  Uiso   1.00
H774   H     0.14655   0.56626   0.54065   0.00000  Uiso   1.00
H775   H     0.12306   0.60898   0.99654   0.00000  Uiso   1.00
C776   C     0.32658   0.50992   0.73609   0.00000  Uiso   1.00
H777   H     0.01554   0.52798   0.71052   0.00000  Uiso   1.00
C778   C     0.00745   0.49032   0.76378   0.00000  Uiso   1.00
H779   H     0.31917   0.47213   0.78962   0.00000  Uiso   1.00
C780   C     0.18041   0.65578   0.73664   0.00000  Uiso   1.00
H781   H     0.20694   0.33700   0.71170   0.00000  Uiso   1.00
C782   C     0.15168   0.34505   0.76378   0.00000  Uiso   1.00
H783   H     0.12475   0.66463   0.78879   0.00000  Uiso   1.00
N784   N     0.20682   0.37896   0.50039   0.00000  Uiso   1.00
O785   O     0.17629   0.35016   0.99366   0.00000  Uiso   1.00
O786   O     0.24365   0.36803   0.50048   0.00000  Uiso   1.00
C787   C     0.12230   0.42921   0.90235   0.00000  Uiso   1.00
C788   C     0.08906   0.39475   0.92483   0.00000  Uiso   1.00
H789   H     0.10476   0.36994   0.93353   0.00000  Uiso   1.00
H790   H     0.06758   0.40797   0.95573   0.00000  Uiso   1.00
H791   H     0.06930   0.38022   0.90143   0.00000  Uiso   1.00
H792   H     0.10381   0.44947   0.89045   0.00000  Uiso   1.00
H793   H     0.14470   0.41505   0.87285   0.00000  Uiso   1.00
Zn794  Zn    0.52672   0.47327   0.78734   0.00000  Uiso   1.00
Zn795  Zn    0.46713   0.45791   0.71875   0.00000  Uiso   1.00
Zn796  Zn    0.54389   0.53109   0.70657   0.00000  Uiso   1.00
Zn797  Zn    0.46226   0.53773   0.78733   0.00000  Uiso   1.00
O798   O     0.50000   0.50000   0.75000   0.00000  Uiso   1.00
O799   O     0.40405   0.52211   0.78213   0.00000  Uiso   1.00
O800   O     0.58824   0.48559   0.77013   0.00000  Uiso   1.00
O801   O     0.47093   0.40277   0.73413   0.00000  Uiso   1.00
O802   O     0.53678   0.58953   0.71360   0.00000  Uiso   1.00
O803   O     0.48784   0.45970   0.65458   0.00000  Uiso   1.00
O804   O     0.46274   0.53724   0.84968   0.00000  Uiso   1.00
O805   O     0.54157   0.51092   0.64606   0.00000  Uiso   1.00
O806   O     0.50785   0.49213   0.84968   0.00000  Uiso   1.00
O807   O     0.51264   0.41352   0.78213   0.00000  Uiso   1.00
O808   O     0.47965   0.59418   0.77013   0.00000  Uiso   1.00
O809   O     0.40745   0.46625   0.73413   0.00000  Uiso   1.00
O810   O     0.60026   0.52605   0.71360   0.00000  Uiso   1.00
C811   C     0.38604   0.49292   0.75997   0.00000  Uiso   1.00
C812   C     0.61408   0.50713   0.74004   0.00000  Uiso   1.00
C813   C     0.48938   0.38917   0.76019   0.00000  Uiso   1.00
C814   C     0.50988   0.61123   0.74021   0.00000  Uiso   1.00
C815   C     0.51852   0.48122   0.62932   0.00000  Uiso   1.00
C816   C     0.48126   0.51751   0.87104   0.00000  Uiso   1.00
C817   C     0.53026   0.42001   0.51844   0.00000  Uiso   1.00
H818   H     0.54666   0.41342   0.57985   0.00000  Uiso   1.00
H819   H     0.50694   0.39882   0.94102   0.00000  Uiso   1.00
C820   C     0.52449   0.47258   0.58114   0.00000  Uiso   1.00
C821   C     0.46264   0.56502   0.93888   0.00000  Uiso   1.00
C822   C     0.46381   0.57804   0.98273   0.00000  Uiso   1.00
C823   C     0.47728   0.55266   0.50797   0.00000  Uiso   1.00
C824   C     0.48677   0.51183   0.99087   0.00000  Uiso   1.00
C825   C     0.47984   0.49647   0.94795   0.00000  Uiso   1.00
C826   C     0.50301   0.48593   0.51494   0.00000  Uiso   1.00
C827   C     0.51252   0.44542   0.99559   0.00000  Uiso   1.00
C828   C     0.50183   0.43013   0.95528   0.00000  Uiso   1.00
C829   C     0.48084   0.45323   0.93447   0.00000  Uiso   1.00
C830   C     0.50962   0.49883   0.55798   0.00000  Uiso   1.00
C831   C     0.53591   0.43396   0.56107   0.00000  Uiso   1.00
C832   C     0.47264   0.52523   0.92026   0.00000  Uiso   1.00
H833   H     0.50085   0.52787   0.57598   0.00000  Uiso   1.00
H834   H     0.45582   0.58703   0.91880   0.00000  Uiso   1.00
H835   H     0.47989   0.56626   0.54065   0.00000  Uiso   1.00
H836   H     0.45640   0.60898   0.99654   0.00000  Uiso   1.00
C837   C     0.65991   0.50992   0.73609   0.00000  Uiso   1.00
H838   H     0.34888   0.52798   0.71052   0.00000  Uiso   1.00
C839   C     0.34078   0.49032   0.76378   0.00000  Uiso   1.00
H840   H     0.65250   0.47213   0.78962   0.00000  Uiso   1.00
C841   C     0.51375   0.65578   0.73664   0.00000  Uiso   1.00
H842   H     0.54027   0.33700   0.71170   0.00000  Uiso   1.00
C843   C     0.48502   0.34505   0.76378   0.00000  Uiso   1.00
H844   H     0.45809   0.66463   0.78879   0.00000  Uiso   1.00
N845   N     0.54016   0.37896   0.50039   0.00000  Uiso   1.00
O846   O     0.50962   0.35016   0.99366   0.00000  Uiso   1.00
O847   O     0.57698   0.36803   0.50048   0.00000  Uiso   1.00
C848   C     0.45564   0.42921   0.90235   0.00000  Uiso   1.00
C849   C     0.42239   0.39475   0.92483   0.00000  Uiso   1.00
H850   H     0.43809   0.36994   0.93353   0.00000  Uiso   1.00
H851   H     0.40092   0.40797   0.95573   0.00000  Uiso   1.00
H852   H     0.40264   0.38022   0.90143   0.00000  Uiso   1.00
H853   H     0.43715   0.44947   0.89045   0.00000  Uiso   1.00
H854   H     0.47804   0.41505   0.87285   0.00000  Uiso   1.00
Zn855  Zn    0.86005   0.47327   0.78734   0.00000  Uiso   1.00
Zn856  Zn    0.80046   0.45791   0.71875   0.00000  Uiso   1.00
Zn857  Zn    0.87723   0.53109   0.70657   0.00000  Uiso   1.00
Zn858  Zn    0.79560   0.53773   0.78733   0.00000  Uiso   1.00
O859   O     0.83333   0.50000   0.75000   0.00000  Uiso   1.00
O860   O     0.73738   0.52211   0.78213   0.00000  Uiso   1.00
O861   O     0.92158   0.48559   0.77013   0.00000  Uiso   1.00
O862   O     0.80426   0.40277   0.73413   0.00000  Uiso   1.00
O863   O     0.87012   0.58953   0.71360   0.00000  Uiso   1.00
O864   O     0.82118   0.45970   0.65458   0.00000  Uiso   1.00
O865   O     0.79607   0.53724   0.84968   0.00000  Uiso   1.00
O866   O     0.87491   0.51092   0.64606   0.00000  Uiso   1.00
O867   O     0.84118   0.49213   0.84968   0.00000  Uiso   1.00
O868   O     0.84597   0.41352   0.78213   0.00000  Uiso   1.00
O869   O     0.81298   0.59418   0.77013   0.00000  Uiso   1.00
O870   O     0.74078   0.46625   0.73413   0.00000  Uiso   1.00
O871   O     0.93360   0.52605   0.71360   0.00000  Uiso   1.00
C872   C     0.71937   0.49292   0.75997   0.00000  Uiso   1.00
C873   C     0.94741   0.50713   0.74004   0.00000  Uiso   1.00
C874   C     0.82272   0.38917   0.76019   0.00000  Uiso   1.00
C875   C     0.84321   0.61123   0.74021   0.00000  Uiso   1.00
C876   C     0.85185   0.48122   0.62932   0.00000  Uiso   1.00
C877   C     0.81460   0.51751   0.87104   0.00000  Uiso   1.00
C878   C     0.86359   0.42001   0.51844   0.00000  Uiso   1.00
H879   H     0.87999   0.41342   0.57985   0.00000  Uiso   1.00
H880   H     0.84027   0.39882   0.94102   0.00000  Uiso   1.00
C881   C     0.85783   0.47258   0.58114   0.00000  Uiso   1.00
C882   C     0.79597   0.56502   0.93888   0.00000  Uiso   1.00
C883   C     0.79715   0.57804   0.98273   0.00000  Uiso   1.00
C884   C     0.81061   0.55266   0.50797   0.00000  Uiso   1.00
C885   C     0.82011   0.51183   0.99087   0.00000  Uiso   1.00
C886   C     0.81317   0.49647   0.94795   0.00000  Uiso   1.00
C887   C     0.83634   0.48593   0.51494   0.00000  Uiso   1.00
C888   C     0.84586   0.44542   0.99559   0.00000  Uiso   1.00
C889   C     0.83516   0.43013   0.95528   0.00000  Uiso   1.00
C890   C     0.81417   0.45323   0.93447   0.00000  Uiso   1.00
C891   C     0.84296   0.49883   0.55798   0.00000  Uiso   1.00
C892   C     0.86924   0.43396   0.56107   0.00000  Uiso   1.00
C893   C     0.80597   0.52523   0.92026   0.00000  Uiso   1.00
H894   H     0.83419   0.52787   0.57598   0.00000  Uiso   1.00
H895   H     0.78915   0.58703   0.91880   0.00000  Uiso   1.00
H896   H     0.81322   0.56626   0.54065   0.00000  Uiso   1.00
H897   H     0.78973   0.60898   0.99654   0.00000  Uiso   1.00
C898   C     0.99324   0.50992   0.73609   0.00000  Uiso   1.00
H899   H     0.68221   0.52798   0.71052   0.00000  Uiso   1.00
C900   C     0.67411   0.49032   0.76378   0.00000  Uiso   1.00
H901   H     0.98584   0.47213   0.78962   0.00000  Uiso   1.00
C902   C     0.84708   0.65578   0.73664   0.00000  Uiso   1.00
H903   H     0.87360   0.33700   0.71170   0.00000  Uiso   1.00
C904   C     0.81835   0.34505   0.76378   0.00000  Uiso   1.00
H905   H     0.79142   0.66463   0.78879   0.00000  Uiso   1.00
N906   N     0.87349   0.37896   0.50039   0.00000  Uiso   1.00
O907   O     0.84295   0.35016   0.99366   0.00000  Uiso   1.00
O908   O     0.91031   0.36803   0.50048   0.00000  Uiso   1.00
C909   C     0.78897   0.42921   0.90235   0.00000  Uiso   1.00
C910   C     0.75573   0.39475   0.92483   0.00000  Uiso   1.00
H911   H     0.77142   0.36994   0.93353   0.00000  Uiso   1.00
H912   H     0.73425   0.40797   0.95573   0.00000  Uiso   1.00
H913   H     0.73597   0.38022   0.90143   0.00000  Uiso   1.00
H914   H     0.77048   0.44947   0.89045   0.00000  Uiso   1.00
H915   H     0.81137   0.41505   0.87285   0.00000  Uiso   1.00
Zn916  Zn    0.19338   0.80661   0.78734   0.00000  Uiso   1.00
Zn917  Zn    0.13379   0.79124   0.71875   0.00000  Uiso   1.00
Zn918  Zn    0.21056   0.86442   0.70657   0.00000  Uiso   1.00
Zn919  Zn    0.12893   0.87106   0.78733   0.00000  Uiso   1.00
O920   O     0.16667   0.83333   0.75000   0.00000  Uiso   1.00
O921   O     0.07071   0.85544   0.78213   0.00000  Uiso   1.00
O922   O     0.25491   0.81892   0.77013   0.00000  Uiso   1.00
O923   O     0.13760   0.73610   0.73413   0.00000  Uiso   1.00
O924   O     0.20345   0.92286   0.71360   0.00000  Uiso   1.00
O925   O     0.15451   0.79304   0.65458   0.00000  Uiso   1.00
O926   O     0.12940   0.87058   0.84968   0.00000  Uiso   1.00
O927   O     0.20824   0.84425   0.64606   0.00000  Uiso   1.00
O928   O     0.17451   0.82546   0.84968   0.00000  Uiso   1.00
O929   O     0.17930   0.74686   0.78213   0.00000  Uiso   1.00
O930   O     0.14632   0.92751   0.77013   0.00000  Uiso   1.00
O931   O     0.07412   0.79958   0.73413   0.00000  Uiso   1.00
O932   O     0.26693   0.85939   0.71360   0.00000  Uiso   1.00
C933   C     0.05270   0.82625   0.75997   0.00000  Uiso   1.00
C934   C     0.28075   0.84047   0.74004   0.00000  Uiso   1.00
C935   C     0.15605   0.72250   0.76019   0.00000  Uiso   1.00
C936   C     0.17655   0.94456   0.74021   0.00000  Uiso   1.00
C937   C     0.18519   0.81456   0.62932   0.00000  Uiso   1.00
C938   C     0.14793   0.85084   0.87104   0.00000  Uiso   1.00
C939   C     0.19693   0.75335   0.51844   0.00000  Uiso   1.00
H940   H     0.21332   0.74675   0.57985   0.00000  Uiso   1.00
H941   H     0.17360   0.73215   0.94102   0.00000  Uiso   1.00
C942   C     0.19116   0.80591   0.58114   0.00000  Uiso   1.00
C943   C     0.12930   0.89835   0.93888   0.00000  Uiso   1.00
C944   C     0.13048   0.91138   0.98273   0.00000  Uiso   1.00
C945   C     0.14394   0.88599   0.50797   0.00000  Uiso   1.00
C946   C     0.15344   0.84516   0.99087   0.00000  Uiso   1.00
C947   C     0.14651   0.82981   0.94795   0.00000  Uiso   1.00
C948   C     0.16967   0.81927   0.51494   0.00000  Uiso   1.00
C949   C     0.17919   0.77876   0.99559   0.00000  Uiso   1.00
C950   C     0.16849   0.76347   0.95528   0.00000  Uiso   1.00
C951   C     0.14750   0.78656   0.93447   0.00000  Uiso   1.00
C952   C     0.17629   0.83216   0.55798   0.00000  Uiso   1.00
C953   C     0.20257   0.76729   0.56107   0.00000  Uiso   1.00
C954   C     0.13931   0.85857   0.92026   0.00000  Uiso   1.00
H955   H     0.16752   0.86120   0.57598   0.00000  Uiso   1.00
H956   H     0.12249   0.92037   0.91880   0.00000  Uiso   1.00
H957   H     0.14655   0.89959   0.54065   0.00000  Uiso   1.00
H958   H     0.12306   0.94231   0.99654   0.00000  Uiso   1.00
C959   C     0.32658   0.84325   0.73609   0.00000  Uiso   1.00
H960   H     0.01554   0.86131   0.71052   0.00000  Uiso   1.00
C961   C     0.00745   0.82366   0.76378   0.00000  Uiso   1.00
H962   H     0.31917   0.80547   0.78962   0.00000  Uiso   1.00
C963   C     0.18041   0.98912   0.73664   0.00000  Uiso   1.00
H964   H     0.20694   0.67033   0.71170   0.00000  Uiso   1.00
C965   C     0.15168   0.67839   0.76378   0.00000  Uiso   1.00
H966   H     0.12475   0.99796   0.78879   0.00000  Uiso   1.00
N967   N     0.20682   0.71229   0.50039   0.00000  Uiso   1.00
O968   O     0.17629   0.68350   0.99366   0.00000  Uiso   1.00
O969   O     0.24365   0.70136   0.50048   0.00000  Uiso   1.00
C970   C     0.12230   0.76254   0.90235   0.00000  Uiso   1.00
C971   C     0.08906   0.72808   0.92483   0.00000  Uiso   1.00
H972   H     0.10476   0.70327   0.93353   0.00000  Uiso   1.00
H973   H     0.06758   0.74130   0.95573   0.00000  Uiso   1.00
H974   H     0.06930   0.71356   0.90143   0.00000  Uiso   1.00
H975   H     0.10381   0.78281   0.89045   0.00000  Uiso   1.00
H976   H     0.14470   0.74838   0.87285   0.00000  Uiso   1.00
Zn977  Zn    0.52672   0.80661   0.78734   0.00000  Uiso   1.00
Zn978  Zn    0.46713   0.79124   0.71875   0.00000  Uiso   1.00
Zn979  Zn    0.54389   0.86442   0.70657   0.00000  Uiso   1.00
Zn980  Zn    0.46226   0.87106   0.78733   0.00000  Uiso   1.00
O981   O     0.50000   0.83333   0.75000   0.00000  Uiso   1.00
O982   O     0.40405   0.85544   0.78213   0.00000  Uiso   1.00
O983   O     0.58824   0.81892   0.77013   0.00000  Uiso   1.00
O984   O     0.47093   0.73610   0.73413   0.00000  Uiso   1.00
O985   O     0.53678   0.92286   0.71360   0.00000  Uiso   1.00
O986   O     0.48784   0.79304   0.65458   0.00000  Uiso   1.00
O987   O     0.46274   0.87058   0.84968   0.00000  Uiso   1.00
O988   O     0.54157   0.84425   0.64606   0.00000  Uiso   1.00
O989   O     0.50785   0.82546   0.84968   0.00000  Uiso   1.00
O990   O     0.51264   0.74686   0.78213   0.00000  Uiso   1.00
O991   O     0.47965   0.92751   0.77013   0.00000  Uiso   1.00
O992   O     0.40745   0.79958   0.73413   0.00000  Uiso   1.00
O993   O     0.60026   0.85939   0.71360   0.00000  Uiso   1.00
C994   C     0.38604   0.82625   0.75997   0.00000  Uiso   1.00
C995   C     0.61408   0.84047   0.74004   0.00000  Uiso   1.00
C996   C     0.48938   0.72250   0.76019   0.00000  Uiso   1.00
C997   C     0.50988   0.94456   0.74021   0.00000  Uiso   1.00
C998   C     0.51852   0.81456   0.62932   0.00000  Uiso   1.00
C999   C     0.48126   0.85084   0.87104   0.00000  Uiso   1.00
C1000  C     0.53026   0.75335   0.51844   0.00000  Uiso   1.00
H1001  H     0.54666   0.74675   0.57985   0.00000  Uiso   1.00
H1002  H     0.50694   0.73215   0.94102   0.00000  Uiso   1.00
C1003  C     0.52449   0.80591   0.58114   0.00000  Uiso   1.00
C1004  C     0.46264   0.89835   0.93888   0.00000  Uiso   1.00
C1005  C     0.46381   0.91138   0.98273   0.00000  Uiso   1.00
C1006  C     0.47728   0.88599   0.50797   0.00000  Uiso   1.00
C1007  C     0.48677   0.84516   0.99087   0.00000  Uiso   1.00
C1008  C     0.47984   0.82981   0.94795   0.00000  Uiso   1.00
C1009  C     0.50301   0.81927   0.51494   0.00000  Uiso   1.00
C1010  C     0.51252   0.77876   0.99559   0.00000  Uiso   1.00
C1011  C     0.50183   0.76347   0.95528   0.00000  Uiso   1.00
C1012  C     0.48084   0.78656   0.93447   0.00000  Uiso   1.00
C1013  C     0.50962   0.83216   0.55798   0.00000  Uiso   1.00
C1014  C     0.53591   0.76729   0.56107   0.00000  Uiso   1.00
C1015  C     0.47264   0.85857   0.92026   0.00000  Uiso   1.00
H1016  H     0.50085   0.86120   0.57598   0.00000  Uiso   1.00
H1017  H     0.45582   0.92037   0.91880   0.00000  Uiso   1.00
H1018  H     0.47989   0.89959   0.54065   0.00000  Uiso   1.00
H1019  H     0.45640   0.94231   0.99654   0.00000  Uiso   1.00
C1020  C     0.65991   0.84325   0.73609   0.00000  Uiso   1.00
H1021  H     0.34888   0.86131   0.71052   0.00000  Uiso   1.00
C1022  C     0.34078   0.82366   0.76378   0.00000  Uiso   1.00
H1023  H     0.65250   0.80547   0.78962   0.00000  Uiso   1.00
C1024  C     0.51375   0.98912   0.73664   0.00000  Uiso   1.00
H1025  H     0.54027   0.67033   0.71170   0.00000  Uiso   1.00
C1026  C     0.48502   0.67839   0.76378   0.00000  Uiso   1.00
H1027  H     0.45809   0.99796   0.78879   0.00000  Uiso   1.00
N1028  N     0.54016   0.71229   0.50039   0.00000  Uiso   1.00
O1029  O     0.50962   0.68350   0.99366   0.00000  Uiso   1.00
O1030  O     0.57698   0.70136   0.50048   0.00000  Uiso   1.00
C1031  C     0.45564   0.76254   0.90235   0.00000  Uiso   1.00
C1032  C     0.42239   0.72808   0.92483   0.00000  Uiso   1.00
H1033  H     0.43809   0.70327   0.93353   0.00000  Uiso   1.00
H1034  H     0.40092   0.74130   0.95573   0.00000  Uiso   1.00
H1035  H     0.40264   0.71356   0.90143   0.00000  Uiso   1.00
H1036  H     0.43715   0.78281   0.89045   0.00000  Uiso   1.00
H1037  H     0.47804   0.74838   0.87285   0.00000  Uiso   1.00
Zn1038 Zn    0.86005   0.80661   0.78734   0.00000  Uiso   1.00
Zn1039 Zn    0.80046   0.79124   0.71875   0.00000  Uiso   1.00
Zn1040 Zn    0.87723   0.86442   0.70657   0.00000  Uiso   1.00
Zn1041 Zn    0.79560   0.87106   0.78733   0.00000  Uiso   1.00
O1042  O     0.83333   0.83333   0.75000   0.00000  Uiso   1.00
O1043  O     0.73738   0.85544   0.78213   0.00000  Uiso   1.00
O1044  O     0.92158   0.81892   0.77013   0.00000  Uiso   1.00
O1045  O     0.80426   0.73610   0.73413   0.00000  Uiso   1.00
O1046  O     0.87012   0.92286   0.71360   0.00000  Uiso   1.00
O1047  O     0.82118   0.79304   0.65458   0.00000  Uiso   1.00
O1048  O     0.79607   0.87058   0.84968   0.00000  Uiso   1.00
O1049  O     0.87491   0.84425   0.64606   0.00000  Uiso   1.00
O1050  O     0.84118   0.82546   0.84968   0.00000  Uiso   1.00
O1051  O     0.84597   0.74686   0.78213   0.00000  Uiso   1.00
O1052  O     0.81298   0.92751   0.77013   0.00000  Uiso   1.00
O1053  O     0.74078   0.79958   0.73413   0.00000  Uiso   1.00
O1054  O     0.93360   0.85939   0.71360   0.00000  Uiso   1.00
C1055  C     0.71937   0.82625   0.75997   0.00000  Uiso   1.00
C1056  C     0.94741   0.84047   0.74004   0.00000  Uiso   1.00
C1057  C     0.82272   0.72250   0.76019   0.00000  Uiso   1.00
C1058  C     0.84321   0.94456   0.74021   0.00000  Uiso   1.00
C1059  C     0.85185   0.81456   0.62932   0.00000  Uiso   1.00
C1060  C     0.81460   0.85084   0.87104   0.00000  Uiso   1.00
C1061  C     0.86359   0.75335   0.51844   0.00000  Uiso   1.00
H1062  H     0.87999   0.74675   0.57985   0.00000  Uiso   1.00
H1063  H     0.84027   0.73215   0.94102   0.00000  Uiso   1.00
C1064  C     0.85783   0.80591   0.58114   0.00000  Uiso   1.00
C1065  C     0.79597   0.89835   0.93888   0.00000  Uiso   1.00
C1066  C     0.79715   0.91138   0.98273   0.00000  Uiso   1.00
C1067  C     0.81061   0.88599   0.50797   0.00000  Uiso   1.00
C1068  C     0.82011   0.84516   0.99087   0.00000  Uiso   1.00
C1069  C     0.81317   0.82981   0.94795   0.00000  Uiso   1.00
C1070  C     0.83634   0.81927   0.51494   0.00000  Uiso   1.00
C1071  C     0.84586   0.77876   0.99559   0.00000  Uiso   1.00
C1072  C     0.83516   0.76347   0.95528   0.00000  Uiso   1.00
C1073  C     0.81417   0.78656   0.93447   0.00000  Uiso   1.00
C1074  C     0.84296   0.83216   0.55798   0.00000  Uiso   1.00
C1075  C     0.86924   0.76729   0.56107   0.00000  Uiso   1.00
C1076  C     0.80597   0.85857   0.92026   0.00000  Uiso   1.00
H1077  H     0.83419   0.86120   0.57598   0.00000  Uiso   1.00
H1078  H     0.78915   0.92037   0.91880   0.00000  Uiso   1.00
H1079  H     0.81322   0.89959   0.54065   0.00000  Uiso   1.00
H1080  H     0.78973   0.94231   0.99654   0.00000  Uiso   1.00
C1081  C     0.99324   0.84325   0.73609   0.00000  Uiso   1.00
H1082  H     0.68221   0.86131   0.71052   0.00000  Uiso   1.00
C1083  C     0.67411   0.82366   0.76378   0.00000  Uiso   1.00
H1084  H     0.98584   0.80547   0.78962   0.00000  Uiso   1.00
C1085  C     0.84708   0.98912   0.73664   0.00000  Uiso   1.00
H1086  H     0.87360   0.67033   0.71170   0.00000  Uiso   1.00
C1087  C     0.81835   0.67839   0.76378   0.00000  Uiso   1.00
H1088  H     0.79142   0.99796   0.78879   0.00000  Uiso   1.00
N1089  N     0.87349   0.71229   0.50039   0.00000  Uiso   1.00
O1090  O     0.84295   0.68350   0.99366   0.00000  Uiso   1.00
O1091  O     0.91031   0.70136   0.50048   0.00000  Uiso   1.00
C1092  C     0.78897   0.76254   0.90235   0.00000  Uiso   1.00
C1093  C     0.75573   0.72808   0.92483   0.00000  Uiso   1.00
H1094  H     0.77142   0.70327   0.93353   0.00000  Uiso   1.00
H1095  H     0.73425   0.74130   0.95573   0.00000  Uiso   1.00
H1096  H     0.73597   0.71356   0.90143   0.00000  Uiso   1.00
H1097  H     0.77048   0.78281   0.89045   0.00000  Uiso   1.00
H1098  H     0.81137   0.74838   0.87285   0.00000  Uiso   1.00
loop_
_geom_bond_atom_site_label_1
_geom_bond_atom_site_label_2
_geom_bond_distance
_geom_bond_site_symmetry_2
_ccdc_geom_bond_type
Zn1    O5      1.959   .     S
Zn1    O13     1.923   .     S
Zn1    O14     1.927   .     S
Zn1    O7      1.926   .     S
Zn2    O16     1.929   .     S
Zn2    O5      1.935   .     S
Zn2    O10     1.931   .     S
Zn2    O8      1.939   .     S
Zn3    O9      1.930   .     S
Zn3    O12     1.928   .     S
Zn3    O17     1.936   .     S
Zn3    O5      1.940   .     S
Zn4    O15     1.935   .     S
Zn4    O11     1.937   .     S
Zn4    O6      1.931   .     S
Zn4    O5      1.931   .     S
O6     C18     1.267   .     A
O7     C19     1.280   .     A
O8     C20     1.275   .     A
O9     C21     1.271   .     A
O10    C22     1.270   .     A
O11    C23     1.280   .     A
O12    C22     1.278   .     A
O13    C23     1.287   .     A
O14    C20     1.275   .     A
O15    C21     1.272   .     A
O16    C18     1.267   .     A
O17    C19     1.283   .     A
C18    C46     1.437   .     S
C19    C44     1.455   .     S
C20    C50     1.436   .     S
C21    C48     1.451   .     S
C22    C27     1.453   .     S
C23    C39     1.475   .     S
C24    N52     1.435   .     S
C24    C38     1.394   .     A
C24    C583    1.419   1_554 S
H25    C38     1.084   .     S
H26    C35     1.080   .     S
C27    C37     1.389   .     A
C27    C38     1.392   .     A
C28    H41     1.083   .     S
C28    C29     1.383   .     A
C28    C39     1.402   .     A
C29    H43     1.082   .     S
C29    C579    1.387   .     S
C30    H42     1.075   .     S
C30    C578    1.387   1_554 S
C30    C580    1.419   1_554 S
C31    C32     1.426   .     A
C31    C579    1.419   .     S
C31    C582    1.426   .     S
C32    C36     1.423   .     A
C32    C39     1.424   .     A
C33    C37     1.411   .     A
C33    C580    1.426   1_554 S
C33    C583    1.425   1_554 S
C34    C35     1.399   .     A
C34    C582    1.425   .     S
C34    C573    1.419   .     S
C35    C36     1.395   .     A
C36    C55     1.524   .     S
C37    H40     1.076   .     S
C44    H106    1.088   .     S
C44    C107    1.334   .     S
H45    C166    1.088   1_455 S
C46    C166    1.334   1_455 S
C46    H169    1.086   1_455 S
H47    C107    1.086   .     S
C48    H232    1.088   .     S
C48    C233    1.331   .     S
H49    C414    1.088   1_545 S
C50    C414    1.331   1_545 S
C50    H417    1.086   1_545 S
H51    C233    1.086   .     S
N52    O54     1.301   .     A
N52    O602    1.301   1_554 S
O53    N601    1.301   .     S
C55    C56     1.531   .     S
C55    H60     1.107   .     S
C55    H61     1.111   .     S
C56    H59     1.111   .     S
C56    H58     1.111   .     S
C56    H57     1.110   .     S
Zn62   O66     1.959   .     S
Zn62   O74     1.923   .     S
Zn62   O75     1.927   .     S
Zn62   O68     1.926   .     S
Zn63   O77     1.929   .     S
Zn63   O66     1.935   .     S
Zn63   O71     1.931   .     S
Zn63   O69     1.939   .     S
Zn64   O70     1.930   .     S
Zn64   O73     1.928   .     S
Zn64   O78     1.936   .     S
Zn64   O66     1.940   .     S
Zn65   O76     1.935   .     S
Zn65   O72     1.937   .     S
Zn65   O67     1.931   .     S
Zn65   O66     1.931   .     S
O67    C79     1.267   .     A
O68    C80     1.280   .     A
O69    C81     1.275   .     A
O70    C82     1.271   .     A
O71    C83     1.270   .     A
O72    C84     1.280   .     A
O73    C83     1.278   .     A
O74    C84     1.287   .     A
O75    C81     1.275   .     A
O76    C82     1.272   .     A
O77    C79     1.267   .     A
O78    C80     1.283   .     A
C79    C107    1.437   .     S
C80    C105    1.455   .     S
C81    C111    1.436   .     S
C82    C109    1.451   .     S
C83    C88     1.453   .     S
C84    C100    1.475   .     S
C85    N113    1.435   .     S
C85    C99     1.394   .     A
C85    C644    1.419   1_554 S
H86    C99     1.084   .     S
H87    C96     1.080   .     S
C88    C98     1.389   .     A
C88    C99     1.392   .     A
C89    H102    1.083   .     S
C89    C90     1.383   .     A
C89    C100    1.402   .     A
C90    H104    1.082   .     S
C90    C640    1.387   .     S
C91    H103    1.075   .     S
C91    C639    1.387   1_554 S
C91    C641    1.419   1_554 S
C92    C93     1.426   .     A
C92    C640    1.419   .     S
C92    C643    1.426   .     S
C93    C97     1.423   .     A
C93    C100    1.424   .     A
C94    C98     1.411   .     A
C94    C641    1.426   1_554 S
C94    C644    1.425   1_554 S
C95    C96     1.399   .     A
C95    C643    1.425   .     S
C95    C634    1.419   .     S
C96    C97     1.395   .     A
C97    C116    1.524   .     S
C98    H101    1.076   .     S
C105   H167    1.088   .     S
C105   C168    1.334   .     S
H108   C168    1.086   .     S
C109   H293    1.088   .     S
C109   C294    1.331   .     S
H110   C475    1.088   1_545 S
C111   C475    1.331   1_545 S
C111   H478    1.086   1_545 S
H112   C294    1.086   .     S
N113   O115    1.301   .     A
N113   O663    1.301   1_554 S
O114   N662    1.301   .     S
C116   C117    1.531   .     S
C116   H121    1.107   .     S
C116   H122    1.111   .     S
C117   H120    1.111   .     S
C117   H119    1.111   .     S
C117   H118    1.110   .     S
Zn123  O127    1.959   .     S
Zn123  O135    1.923   .     S
Zn123  O136    1.927   .     S
Zn123  O129    1.926   .     S
Zn124  O138    1.929   .     S
Zn124  O127    1.935   .     S
Zn124  O132    1.931   .     S
Zn124  O130    1.939   .     S
Zn125  O131    1.930   .     S
Zn125  O134    1.928   .     S
Zn125  O139    1.936   .     S
Zn125  O127    1.940   .     S
Zn126  O137    1.935   .     S
Zn126  O133    1.937   .     S
Zn126  O128    1.931   .     S
Zn126  O127    1.931   .     S
O128   C140    1.267   .     A
O129   C141    1.280   .     A
O130   C142    1.275   .     A
O131   C143    1.271   .     A
O132   C144    1.270   .     A
O133   C145    1.280   .     A
O134   C144    1.278   .     A
O135   C145    1.287   .     A
O136   C142    1.275   .     A
O137   C143    1.272   .     A
O138   C140    1.267   .     A
O139   C141    1.283   .     A
C140   C168    1.437   .     S
C141   C166    1.455   .     S
C142   C172    1.436   .     S
C143   C170    1.451   .     S
C144   C149    1.453   .     S
C145   C161    1.475   .     S
C146   N174    1.435   .     S
C146   C160    1.394   .     A
C146   C705    1.419   1_554 S
H147   C160    1.084   .     S
H148   C157    1.080   .     S
C149   C159    1.389   .     A
C149   C160    1.392   .     A
C150   H163    1.083   .     S
C150   C151    1.383   .     A
C150   C161    1.402   .     A
C151   H165    1.082   .     S
C151   C701    1.387   .     S
C152   H164    1.075   .     S
C152   C700    1.387   1_554 S
C152   C702    1.419   1_554 S
C153   C154    1.426   .     A
C153   C701    1.419   .     S
C153   C704    1.426   .     S
C154   C158    1.423   .     A
C154   C161    1.424   .     A
C155   C159    1.411   .     A
C155   C702    1.426   1_554 S
C155   C705    1.425   1_554 S
C156   C157    1.399   .     A
C156   C704    1.425   .     S
C156   C695    1.419   .     S
C157   C158    1.395   .     A
C158   C177    1.524   .     S
C159   H162    1.076   .     S
C166   H45     1.088   1_655 S
C166   C46     1.334   1_655 S
H169   C46     1.086   1_655 S
C170   H354    1.088   .     S
C170   C355    1.331   .     S
H171   C536    1.088   1_545 S
C172   C536    1.331   1_545 S
C172   H539    1.086   1_545 S
H173   C355    1.086   .     S
N174   O176    1.301   .     A
N174   O724    1.301   1_554 S
O175   N723    1.301   .     S
C177   C178    1.531   .     S
C177   H182    1.107   .     S
C177   H183    1.111   .     S
C178   H181    1.111   .     S
C178   H180    1.111   .     S
C178   H179    1.110   .     S
Zn184  O188    1.959   .     S
Zn184  O196    1.923   .     S
Zn184  O197    1.927   .     S
Zn184  O190    1.926   .     S
Zn185  O199    1.929   .     S
Zn185  O188    1.935   .     S
Zn185  O193    1.931   .     S
Zn185  O191    1.939   .     S
Zn186  O192    1.930   .     S
Zn186  O195    1.928   .     S
Zn186  O200    1.936   .     S
Zn186  O188    1.940   .     S
Zn187  O198    1.935   .     S
Zn187  O194    1.937   .     S
Zn187  O189    1.931   .     S
Zn187  O188    1.931   .     S
O189   C201    1.267   .     A
O190   C202    1.280   .     A
O191   C203    1.275   .     A
O192   C204    1.271   .     A
O193   C205    1.270   .     A
O194   C206    1.280   .     A
O195   C205    1.278   .     A
O196   C206    1.287   .     A
O197   C203    1.275   .     A
O198   C204    1.272   .     A
O199   C201    1.267   .     A
O200   C202    1.283   .     A
C201   C229    1.437   .     S
C202   C227    1.455   .     S
C203   C233    1.436   .     S
C204   C231    1.451   .     S
C205   C210    1.453   .     S
C206   C222    1.475   .     S
C207   N235    1.435   .     S
C207   C221    1.394   .     A
C207   C766    1.419   1_554 S
H208   C221    1.084   .     S
H209   C218    1.080   .     S
C210   C220    1.389   .     A
C210   C221    1.392   .     A
C211   H224    1.083   .     S
C211   C212    1.383   .     A
C211   C222    1.402   .     A
C212   H226    1.082   .     S
C212   C762    1.387   .     S
C213   H225    1.075   .     S
C213   C761    1.387   1_554 S
C213   C763    1.419   1_554 S
C214   C215    1.426   .     A
C214   C762    1.419   .     S
C214   C765    1.426   .     S
C215   C219    1.423   .     A
C215   C222    1.424   .     A
C216   C220    1.411   .     A
C216   C763    1.426   1_554 S
C216   C766    1.425   1_554 S
C217   C218    1.399   .     A
C217   C765    1.425   .     S
C217   C756    1.419   .     S
C218   C219    1.395   .     A
C219   C238    1.524   .     S
C220   H223    1.076   .     S
C227   H289    1.088   .     S
C227   C290    1.334   .     S
H228   C349    1.088   1_455 S
C229   C349    1.334   1_455 S
C229   H352    1.086   1_455 S
H230   C290    1.086   .     S
C231   H415    1.088   .     S
C231   C416    1.331   .     S
H234   C416    1.086   .     S
N235   O237    1.301   .     A
N235   O785    1.301   1_554 S
O236   N784    1.301   .     S
C238   C239    1.531   .     S
C238   H243    1.107   .     S
C238   H244    1.111   .     S
C239   H242    1.111   .     S
C239   H241    1.111   .     S
C239   H240    1.110   .     S
Zn245  O249    1.959   .     S
Zn245  O257    1.923   .     S
Zn245  O258    1.927   .     S
Zn245  O251    1.926   .     S
Zn246  O260    1.929   .     S
Zn246  O249    1.935   .     S
Zn246  O254    1.931   .     S
Zn246  O252    1.939   .     S
Zn247  O253    1.930   .     S
Zn247  O256    1.928   .     S
Zn247  O261    1.936   .     S
Zn247  O249    1.940   .     S
Zn248  O259    1.935   .     S
Zn248  O255    1.937   .     S
Zn248  O250    1.931   .     S
Zn248  O249    1.931   .     S
O250   C262    1.267   .     A
O251   C263    1.280   .     A
O252   C264    1.275   .     A
O253   C265    1.271   .     A
O254   C266    1.270   .     A
O255   C267    1.280   .     A
O256   C266    1.278   .     A
O257   C267    1.287   .     A
O258   C264    1.275   .     A
O259   C265    1.272   .     A
O260   C262    1.267   .     A
O261   C263    1.283   .     A
C262   C290    1.437   .     S
C263   C288    1.455   .     S
C264   C294    1.436   .     S
C265   C292    1.451   .     S
C266   C271    1.453   .     S
C267   C283    1.475   .     S
C268   N296    1.435   .     S
C268   C282    1.394   .     A
C268   C827    1.419   1_554 S
H269   C282    1.084   .     S
H270   C279    1.080   .     S
C271   C281    1.389   .     A
C271   C282    1.392   .     A
C272   H285    1.083   .     S
C272   C273    1.383   .     A
C272   C283    1.402   .     A
C273   H287    1.082   .     S
C273   C823    1.387   .     S
C274   H286    1.075   .     S
C274   C822    1.387   1_554 S
C274   C824    1.419   1_554 S
C275   C276    1.426   .     A
C275   C823    1.419   .     S
C275   C826    1.426   .     S
C276   C280    1.423   .     A
C276   C283    1.424   .     A
C277   C281    1.411   .     A
C277   C824    1.426   1_554 S
C277   C827    1.425   1_554 S
C278   C279    1.399   .     A
C278   C826    1.425   .     S
C278   C817    1.419   .     S
C279   C280    1.395   .     A
C280   C299    1.524   .     S
C281   H284    1.076   .     S
C288   H350    1.088   .     S
C288   C351    1.334   .     S
H291   C351    1.086   .     S
C292   H476    1.088   .     S
C292   C477    1.331   .     S
H295   C477    1.086   .     S
N296   O298    1.301   .     A
N296   O846    1.301   1_554 S
O297   N845    1.301   .     S
C299   C300    1.531   .     S
C299   H304    1.107   .     S
C299   H305    1.111   .     S
C300   H303    1.111   .     S
C300   H302    1.111   .     S
C300   H301    1.110   .     S
Zn306  O310    1.959   .     S
Zn306  O318    1.923   .     S
Zn306  O319    1.927   .     S
Zn306  O312    1.926   .     S
Zn307  O321    1.929   .     S
Zn307  O310    1.935   .     S
Zn307  O315    1.931   .     S
Zn307  O313    1.939   .     S
Zn308  O314    1.930   .     S
Zn308  O317    1.928   .     S
Zn308  O322    1.936   .     S
Zn308  O310    1.940   .     S
Zn309  O320    1.935   .     S
Zn309  O316    1.937   .     S
Zn309  O311    1.931   .     S
Zn309  O310    1.931   .     S
O311   C323    1.267   .     A
O312   C324    1.280   .     A
O313   C325    1.275   .     A
O314   C326    1.271   .     A
O315   C327    1.270   .     A
O316   C328    1.280   .     A
O317   C327    1.278   .     A
O318   C328    1.287   .     A
O319   C325    1.275   .     A
O320   C326    1.272   .     A
O321   C323    1.267   .     A
O322   C324    1.283   .     A
C323   C351    1.437   .     S
C324   C349    1.455   .     S
C325   C355    1.436   .     S
C326   C353    1.451   .     S
C327   C332    1.453   .     S
C328   C344    1.475   .     S
C329   N357    1.435   .     S
C329   C343    1.394   .     A
C329   C888    1.419   1_554 S
H330   C343    1.084   .     S
H331   C340    1.080   .     S
C332   C342    1.389   .     A
C332   C343    1.392   .     A
C333   H346    1.083   .     S
C333   C334    1.383   .     A
C333   C344    1.402   .     A
C334   H348    1.082   .     S
C334   C884    1.387   .     S
C335   H347    1.075   .     S
C335   C883    1.387   1_554 S
C335   C885    1.419   1_554 S
C336   C337    1.426   .     A
C336   C884    1.419   .     S
C336   C887    1.426   .     S
C337   C341    1.423   .     A
C337   C344    1.424   .     A
C338   C342    1.411   .     A
C338   C885    1.426   1_554 S
C338   C888    1.425   1_554 S
C339   C340    1.399   .     A
C339   C887    1.425   .     S
C339   C878    1.419   .     S
C340   C341    1.395   .     A
C341   C360    1.524   .     S
C342   H345    1.076   .     S
C349   H228    1.088   1_655 S
C349   C229    1.334   1_655 S
H352   C229    1.086   1_655 S
C353   H537    1.088   .     S
C353   C538    1.331   .     S
H356   C538    1.086   .     S
N357   O359    1.301   .     A
N357   O907    1.301   1_554 S
O358   N906    1.301   .     S
C360   C361    1.531   .     S
C360   H365    1.107   .     S
C360   H366    1.111   .     S
C361   H364    1.111   .     S
C361   H363    1.111   .     S
C361   H362    1.110   .     S
Zn367  O371    1.959   .     S
Zn367  O379    1.923   .     S
Zn367  O380    1.927   .     S
Zn367  O373    1.926   .     S
Zn368  O382    1.929   .     S
Zn368  O371    1.935   .     S
Zn368  O376    1.931   .     S
Zn368  O374    1.939   .     S
Zn369  O375    1.930   .     S
Zn369  O378    1.928   .     S
Zn369  O383    1.936   .     S
Zn369  O371    1.940   .     S
Zn370  O381    1.935   .     S
Zn370  O377    1.937   .     S
Zn370  O372    1.931   .     S
Zn370  O371    1.931   .     S
O372   C384    1.267   .     A
O373   C385    1.280   .     A
O374   C386    1.275   .     A
O375   C387    1.271   .     A
O376   C388    1.270   .     A
O377   C389    1.280   .     A
O378   C388    1.278   .     A
O379   C389    1.287   .     A
O380   C386    1.275   .     A
O381   C387    1.272   .     A
O382   C384    1.267   .     A
O383   C385    1.283   .     A
C384   C412    1.437   .     S
C385   C410    1.455   .     S
C386   C416    1.436   .     S
C387   C414    1.451   .     S
C388   C393    1.453   .     S
C389   C405    1.475   .     S
C390   N418    1.435   .     S
C390   C404    1.394   .     A
C390   C949    1.419   1_554 S
H391   C404    1.084   .     S
H392   C401    1.080   .     S
C393   C403    1.389   .     A
C393   C404    1.392   .     A
C394   H407    1.083   .     S
C394   C395    1.383   .     A
C394   C405    1.402   .     A
C395   H409    1.082   .     S
C395   C945    1.387   .     S
C396   H408    1.075   .     S
C396   C944    1.387   1_554 S
C396   C946    1.419   1_554 S
C397   C398    1.426   .     A
C397   C945    1.419   .     S
C397   C948    1.426   .     S
C398   C402    1.423   .     A
C398   C405    1.424   .     A
C399   C403    1.411   .     A
C399   C946    1.426   1_554 S
C399   C949    1.425   1_554 S
C400   C401    1.399   .     A
C400   C948    1.425   .     S
C400   C939    1.419   .     S
C401   C402    1.395   .     A
C402   C421    1.524   .     S
C403   H406    1.076   .     S
C410   H472    1.088   .     S
C410   C473    1.334   .     S
H411   C532    1.088   1_455 S
C412   C532    1.334   1_455 S
C412   H535    1.086   1_455 S
H413   C473    1.086   .     S
C414   H49     1.088   1_565 S
C414   C50     1.331   1_565 S
H417   C50     1.086   1_565 S
N418   O420    1.301   .     A
N418   O968    1.301   1_554 S
O419   N967    1.301   .     S
C421   C422    1.531   .     S
C421   H426    1.107   .     S
C421   H427    1.111   .     S
C422   H425    1.111   .     S
C422   H424    1.111   .     S
C422   H423    1.110   .     S
Zn428  O432    1.959   .     S
Zn428  O440    1.923   .     S
Zn428  O441    1.927   .     S
Zn428  O434    1.926   .     S
Zn429  O443    1.929   .     S
Zn429  O432    1.935   .     S
Zn429  O437    1.931   .     S
Zn429  O435    1.939   .     S
Zn430  O436    1.930   .     S
Zn430  O439    1.928   .     S
Zn430  O444    1.936   .     S
Zn430  O432    1.940   .     S
Zn431  O442    1.935   .     S
Zn431  O438    1.937   .     S
Zn431  O433    1.931   .     S
Zn431  O432    1.931   .     S
O433   C445    1.267   .     A
O434   C446    1.280   .     A
O435   C447    1.275   .     A
O436   C448    1.271   .     A
O437   C449    1.270   .     A
O438   C450    1.280   .     A
O439   C449    1.278   .     A
O440   C450    1.287   .     A
O441   C447    1.275   .     A
O442   C448    1.272   .     A
O443   C445    1.267   .     A
O444   C446    1.283   .     A
C445   C473    1.437   .     S
C446   C471    1.455   .     S
C447   C477    1.436   .     S
C448   C475    1.451   .     S
C449   C454    1.453   .     S
C450   C466    1.475   .     S
C451   N479    1.435   .     S
C451   C465    1.394   .     A
C451   C1010   1.419   1_554 S
H452   C465    1.084   .     S
H453   C462    1.080   .     S
C454   C464    1.389   .     A
C454   C465    1.392   .     A
C455   H468    1.083   .     S
C455   C456    1.383   .     A
C455   C466    1.402   .     A
C456   H470    1.082   .     S
C456   C1006   1.387   .     S
C457   H469    1.075   .     S
C457   C1005   1.387   1_554 S
C457   C1007   1.419   1_554 S
C458   C459    1.426   .     A
C458   C1006   1.419   .     S
C458   C1009   1.426   .     S
C459   C463    1.423   .     A
C459   C466    1.424   .     A
C460   C464    1.411   .     A
C460   C1007   1.426   1_554 S
C460   C1010   1.425   1_554 S
C461   C462    1.399   .     A
C461   C1009   1.425   .     S
C461   C1000   1.419   .     S
C462   C463    1.395   .     A
C463   C482    1.524   .     S
C464   H467    1.076   .     S
C471   H533    1.088   .     S
C471   C534    1.334   .     S
H474   C534    1.086   .     S
C475   H110    1.088   1_565 S
C475   C111    1.331   1_565 S
H478   C111    1.086   1_565 S
N479   O481    1.301   .     A
N479   O1029   1.301   1_554 S
O480   N1028   1.301   .     S
C482   C483    1.531   .     S
C482   H487    1.107   .     S
C482   H488    1.111   .     S
C483   H486    1.111   .     S
C483   H485    1.111   .     S
C483   H484    1.110   .     S
Zn489  O493    1.959   .     S
Zn489  O501    1.923   .     S
Zn489  O502    1.927   .     S
Zn489  O495    1.926   .     S
Zn490  O504    1.929   .     S
Zn490  O493    1.935   .     S
Zn490  O498    1.931   .     S
Zn490  O496    1.939   .     S
Zn491  O497    1.930   .     S
Zn491  O500    1.928   .     S
Zn491  O505    1.936   .     S
Zn491  O493    1.940   .     S
Zn492  O503    1.935   .     S
Zn492  O499    1.937   .     S
Zn492  O494    1.931   .     S
Zn492  O493    1.931   .     S
O494   C506    1.267   .     A
O495   C507    1.280   .     A
O496   C508    1.275   .     A
O497   C509    1.271   .     A
O498   C510    1.270   .     A
O499   C511    1.280   .     A
O500   C510    1.278   .     A
O501   C511    1.287   .     A
O502   C508    1.275   .     A
O503   C509    1.272   .     A
O504   C506    1.267   .     A
O505   C507    1.283   .     A
C506   C534    1.437   .     S
C507   C532    1.455   .     S
C508   C538    1.436   .     S
C509   C536    1.451   .     S
C510   C515    1.453   .     S
C511   C527    1.475   .     S
C512   N540    1.435   .     S
C512   C526    1.394   .     A
C512   C1071   1.419   1_554 S
H513   C526    1.084   .     S
H514   C523    1.080   .     S
C515   C525    1.389   .     A
C515   C526    1.392   .     A
C516   H529    1.083   .     S
C516   C517    1.383   .     A
C516   C527    1.402   .     A
C517   H531    1.082   .     S
C517   C1067   1.387   .     S
C518   H530    1.075   .     S
C518   C1066   1.387   1_554 S
C518   C1068   1.419   1_554 S
C519   C520    1.426   .     A
C519   C1067   1.419   .     S
C519   C1070   1.426   .     S
C520   C524    1.423   .     A
C520   C527    1.424   .     A
C521   C525    1.411   .     A
C521   C1068   1.426   1_554 S
C521   C1071   1.425   1_554 S
C522   C523    1.399   .     A
C522   C1070   1.425   .     S
C522   C1061   1.419   .     S
C523   C524    1.395   .     A
C524   C543    1.524   .     S
C525   H528    1.076   .     S
C532   H411    1.088   1_655 S
C532   C412    1.334   1_655 S
H535   C412    1.086   1_655 S
C536   H171    1.088   1_565 S
C536   C172    1.331   1_565 S
H539   C172    1.086   1_565 S
N540   O542    1.301   .     A
N540   O1090   1.301   1_554 S
O541   N1089   1.301   .     S
C543   C544    1.531   .     S
C543   H548    1.107   .     S
C543   H549    1.111   .     S
C544   H547    1.111   .     S
C544   H546    1.111   .     S
C544   H545    1.110   .     S
Zn550  O554    1.959   .     S
Zn550  O562    1.923   .     S
Zn550  O563    1.927   .     S
Zn550  O556    1.926   .     S
Zn551  O565    1.929   .     S
Zn551  O554    1.935   .     S
Zn551  O559    1.931   .     S
Zn551  O557    1.939   .     S
Zn552  O558    1.930   .     S
Zn552  O561    1.928   .     S
Zn552  O566    1.936   .     S
Zn552  O554    1.940   .     S
Zn553  O564    1.935   .     S
Zn553  O560    1.937   .     S
Zn553  O555    1.931   .     S
Zn553  O554    1.931   .     S
O555   C567    1.267   .     A
O556   C568    1.280   .     A
O557   C569    1.275   .     A
O558   C570    1.271   .     A
O559   C571    1.270   .     A
O560   C572    1.280   .     A
O561   C571    1.278   .     A
O562   C572    1.287   .     A
O563   C569    1.275   .     A
O564   C570    1.272   .     A
O565   C567    1.267   .     A
O566   C568    1.283   .     A
C567   C595    1.437   .     S
C568   C593    1.455   .     S
C569   C599    1.436   .     S
C570   C597    1.451   .     S
C571   C576    1.453   .     S
C572   C588    1.475   .     S
C573   N601    1.435   .     S
C573   C587    1.394   .     A
H574   C587    1.084   .     S
H575   C584    1.080   .     S
C576   C586    1.389   .     A
C576   C587    1.392   .     A
C577   H590    1.083   .     S
C577   C578    1.383   .     A
C577   C588    1.402   .     A
C578   H592    1.082   .     S
C578   C30     1.387   1_556 S
C579   H591    1.075   .     S
C580   C581    1.426   .     A
C580   C30     1.419   1_556 S
C580   C33     1.426   1_556 S
C581   C585    1.423   .     A
C581   C588    1.424   .     A
C582   C586    1.411   .     A
C583   C584    1.399   .     A
C583   C33     1.425   1_556 S
C583   C24     1.419   1_556 S
C584   C585    1.395   .     A
C585   C604    1.524   .     S
C586   H589    1.076   .     S
C593   H655    1.088   .     S
C593   C656    1.334   .     S
H594   C715    1.088   1_455 S
C595   C715    1.334   1_455 S
C595   H718    1.086   1_455 S
H596   C656    1.086   .     S
C597   H781    1.088   .     S
C597   C782    1.331   .     S
H598   C963    1.088   1_545 S
C599   C963    1.331   1_545 S
C599   H966    1.086   1_545 S
H600   C782    1.086   .     S
N601   O603    1.301   .     A
O602   N52     1.301   1_556 S
C604   C605    1.531   .     S
C604   H609    1.107   .     S
C604   H610    1.111   .     S
C605   H608    1.111   .     S
C605   H607    1.111   .     S
C605   H606    1.110   .     S
Zn611  O615    1.959   .     S
Zn611  O623    1.923   .     S
Zn611  O624    1.927   .     S
Zn611  O617    1.926   .     S
Zn612  O626    1.929   .     S
Zn612  O615    1.935   .     S
Zn612  O620    1.931   .     S
Zn612  O618    1.939   .     S
Zn613  O619    1.930   .     S
Zn613  O622    1.928   .     S
Zn613  O627    1.936   .     S
Zn613  O615    1.940   .     S
Zn614  O625    1.935   .     S
Zn614  O621    1.937   .     S
Zn614  O616    1.931   .     S
Zn614  O615    1.931   .     S
O616   C628    1.267   .     A
O617   C629    1.280   .     A
O618   C630    1.275   .     A
O619   C631    1.271   .     A
O620   C632    1.270   .     A
O621   C633    1.280   .     A
O622   C632    1.278   .     A
O623   C633    1.287   .     A
O624   C630    1.275   .     A
O625   C631    1.272   .     A
O626   C628    1.267   .     A
O627   C629    1.283   .     A
C628   C656    1.437   .     S
C629   C654    1.455   .     S
C630   C660    1.436   .     S
C631   C658    1.451   .     S
C632   C637    1.453   .     S
C633   C649    1.475   .     S
C634   N662    1.435   .     S
C634   C648    1.394   .     A
H635   C648    1.084   .     S
H636   C645    1.080   .     S
C637   C647    1.389   .     A
C637   C648    1.392   .     A
C638   H651    1.083   .     S
C638   C639    1.383   .     A
C638   C649    1.402   .     A
C639   H653    1.082   .     S
C639   C91     1.387   1_556 S
C640   H652    1.075   .     S
C641   C642    1.426   .     A
C641   C91     1.419   1_556 S
C641   C94     1.426   1_556 S
C642   C646    1.423   .     A
C642   C649    1.424   .     A
C643   C647    1.411   .     A
C644   C645    1.399   .     A
C644   C94     1.425   1_556 S
C644   C85     1.419   1_556 S
C645   C646    1.395   .     A
C646   C665    1.524   .     S
C647   H650    1.076   .     S
C654   H716    1.088   .     S
C654   C717    1.334   .     S
H657   C717    1.086   .     S
C658   H842    1.088   .     S
C658   C843    1.331   .     S
H659   C1024   1.088   1_545 S
C660   C1024   1.331   1_545 S
C660   H1027   1.086   1_545 S
H661   C843    1.086   .     S
N662   O664    1.301   .     A
O663   N113    1.301   1_556 S
C665   C666    1.531   .     S
C665   H670    1.107   .     S
C665   H671    1.111   .     S
C666   H669    1.111   .     S
C666   H668    1.111   .     S
C666   H667    1.110   .     S
Zn672  O676    1.959   .     S
Zn672  O684    1.923   .     S
Zn672  O685    1.927   .     S
Zn672  O678    1.926   .     S
Zn673  O687    1.929   .     S
Zn673  O676    1.935   .     S
Zn673  O681    1.931   .     S
Zn673  O679    1.939   .     S
Zn674  O680    1.930   .     S
Zn674  O683    1.928   .     S
Zn674  O688    1.936   .     S
Zn674  O676    1.940   .     S
Zn675  O686    1.935   .     S
Zn675  O682    1.937   .     S
Zn675  O677    1.931   .     S
Zn675  O676    1.931   .     S
O677   C689    1.267   .     A
O678   C690    1.280   .     A
O679   C691    1.275   .     A
O680   C692    1.271   .     A
O681   C693    1.270   .     A
O682   C694    1.280   .     A
O683   C693    1.278   .     A
O684   C694    1.287   .     A
O685   C691    1.275   .     A
O686   C692    1.272   .     A
O687   C689    1.267   .     A
O688   C690    1.283   .     A
C689   C717    1.437   .     S
C690   C715    1.455   .     S
C691   C721    1.436   .     S
C692   C719    1.451   .     S
C693   C698    1.453   .     S
C694   C710    1.475   .     S
C695   N723    1.435   .     S
C695   C709    1.394   .     A
H696   C709    1.084   .     S
H697   C706    1.080   .     S
C698   C708    1.389   .     A
C698   C709    1.392   .     A
C699   H712    1.083   .     S
C699   C700    1.383   .     A
C699   C710    1.402   .     A
C700   H714    1.082   .     S
C700   C152    1.387   1_556 S
C701   H713    1.075   .     S
C702   C703    1.426   .     A
C702   C152    1.419   1_556 S
C702   C155    1.426   1_556 S
C703   C707    1.423   .     A
C703   C710    1.424   .     A
C704   C708    1.411   .     A
C705   C706    1.399   .     A
C705   C155    1.425   1_556 S
C705   C146    1.419   1_556 S
C706   C707    1.395   .     A
C707   C726    1.524   .     S
C708   H711    1.076   .     S
C715   H594    1.088   1_655 S
C715   C595    1.334   1_655 S
H718   C595    1.086   1_655 S
C719   H903    1.088   .     S
C719   C904    1.331   .     S
H720   C1085   1.088   1_545 S
C721   C1085   1.331   1_545 S
C721   H1088   1.086   1_545 S
H722   C904    1.086   .     S
N723   O725    1.301   .     A
O724   N174    1.301   1_556 S
C726   C727    1.531   .     S
C726   H731    1.107   .     S
C726   H732    1.111   .     S
C727   H730    1.111   .     S
C727   H729    1.111   .     S
C727   H728    1.110   .     S
Zn733  O737    1.959   .     S
Zn733  O745    1.923   .     S
Zn733  O746    1.927   .     S
Zn733  O739    1.926   .     S
Zn734  O748    1.929   .     S
Zn734  O737    1.935   .     S
Zn734  O742    1.931   .     S
Zn734  O740    1.939   .     S
Zn735  O741    1.930   .     S
Zn735  O744    1.928   .     S
Zn735  O749    1.936   .     S
Zn735  O737    1.940   .     S
Zn736  O747    1.935   .     S
Zn736  O743    1.937   .     S
Zn736  O738    1.931   .     S
Zn736  O737    1.931   .     S
O738   C750    1.267   .     A
O739   C751    1.280   .     A
O740   C752    1.275   .     A
O741   C753    1.271   .     A
O742   C754    1.270   .     A
O743   C755    1.280   .     A
O744   C754    1.278   .     A
O745   C755    1.287   .     A
O746   C752    1.275   .     A
O747   C753    1.272   .     A
O748   C750    1.267   .     A
O749   C751    1.283   .     A
C750   C778    1.437   .     S
C751   C776    1.455   .     S
C752   C782    1.436   .     S
C753   C780    1.451   .     S
C754   C759    1.453   .     S
C755   C771    1.475   .     S
C756   N784    1.435   .     S
C756   C770    1.394   .     A
H757   C770    1.084   .     S
H758   C767    1.080   .     S
C759   C769    1.389   .     A
C759   C770    1.392   .     A
C760   H773    1.083   .     S
C760   C761    1.383   .     A
C760   C771    1.402   .     A
C761   H775    1.082   .     S
C761   C213    1.387   1_556 S
C762   H774    1.075   .     S
C763   C764    1.426   .     A
C763   C213    1.419   1_556 S
C763   C216    1.426   1_556 S
C764   C768    1.423   .     A
C764   C771    1.424   .     A
C765   C769    1.411   .     A
C766   C767    1.399   .     A
C766   C216    1.425   1_556 S
C766   C207    1.419   1_556 S
C767   C768    1.395   .     A
C768   C787    1.524   .     S
C769   H772    1.076   .     S
C776   H838    1.088   .     S
C776   C839    1.334   .     S
H777   C898    1.088   1_455 S
C778   C898    1.334   1_455 S
C778   H901    1.086   1_455 S
H779   C839    1.086   .     S
C780   H964    1.088   .     S
C780   C965    1.331   .     S
H783   C965    1.086   .     S
N784   O786    1.301   .     A
O785   N235    1.301   1_556 S
C787   C788    1.531   .     S
C787   H792    1.107   .     S
C787   H793    1.111   .     S
C788   H791    1.111   .     S
C788   H790    1.111   .     S
C788   H789    1.110   .     S
Zn794  O798    1.959   .     S
Zn794  O806    1.923   .     S
Zn794  O807    1.927   .     S
Zn794  O800    1.926   .     S
Zn795  O809    1.929   .     S
Zn795  O798    1.935   .     S
Zn795  O803    1.931   .     S
Zn795  O801    1.939   .     S
Zn796  O802    1.930   .     S
Zn796  O805    1.928   .     S
Zn796  O810    1.936   .     S
Zn796  O798    1.940   .     S
Zn797  O808    1.935   .     S
Zn797  O804    1.937   .     S
Zn797  O799    1.931   .     S
Zn797  O798    1.931   .     S
O799   C811    1.267   .     A
O800   C812    1.280   .     A
O801   C813    1.275   .     A
O802   C814    1.271   .     A
O803   C815    1.270   .     A
O804   C816    1.280   .     A
O805   C815    1.278   .     A
O806   C816    1.287   .     A
O807   C813    1.275   .     A
O808   C814    1.272   .     A
O809   C811    1.267   .     A
O810   C812    1.283   .     A
C811   C839    1.437   .     S
C812   C837    1.455   .     S
C813   C843    1.436   .     S
C814   C841    1.451   .     S
C815   C820    1.453   .     S
C816   C832    1.475   .     S
C817   N845    1.435   .     S
C817   C831    1.394   .     A
H818   C831    1.084   .     S
H819   C828    1.080   .     S
C820   C830    1.389   .     A
C820   C831    1.392   .     A
C821   H834    1.083   .     S
C821   C822    1.383   .     A
C821   C832    1.402   .     A
C822   H836    1.082   .     S
C822   C274    1.387   1_556 S
C823   H835    1.075   .     S
C824   C825    1.426   .     A
C824   C274    1.419   1_556 S
C824   C277    1.426   1_556 S
C825   C829    1.423   .     A
C825   C832    1.424   .     A
C826   C830    1.411   .     A
C827   C828    1.399   .     A
C827   C277    1.425   1_556 S
C827   C268    1.419   1_556 S
C828   C829    1.395   .     A
C829   C848    1.524   .     S
C830   H833    1.076   .     S
C837   H899    1.088   .     S
C837   C900    1.334   .     S
H840   C900    1.086   .     S
C841   H1025   1.088   .     S
C841   C1026   1.331   .     S
H844   C1026   1.086   .     S
N845   O847    1.301   .     A
O846   N296    1.301   1_556 S
C848   C849    1.531   .     S
C848   H853    1.107   .     S
C848   H854    1.111   .     S
C849   H852    1.111   .     S
C849   H851    1.111   .     S
C849   H850    1.110   .     S
Zn855  O859    1.959   .     S
Zn855  O867    1.923   .     S
Zn855  O868    1.927   .     S
Zn855  O861    1.926   .     S
Zn856  O870    1.929   .     S
Zn856  O859    1.935   .     S
Zn856  O864    1.931   .     S
Zn856  O862    1.939   .     S
Zn857  O863    1.930   .     S
Zn857  O866    1.928   .     S
Zn857  O871    1.936   .     S
Zn857  O859    1.940   .     S
Zn858  O869    1.935   .     S
Zn858  O865    1.937   .     S
Zn858  O860    1.931   .     S
Zn858  O859    1.931   .     S
O860   C872    1.267   .     A
O861   C873    1.280   .     A
O862   C874    1.275   .     A
O863   C875    1.271   .     A
O864   C876    1.270   .     A
O865   C877    1.280   .     A
O866   C876    1.278   .     A
O867   C877    1.287   .     A
O868   C874    1.275   .     A
O869   C875    1.272   .     A
O870   C872    1.267   .     A
O871   C873    1.283   .     A
C872   C900    1.437   .     S
C873   C898    1.455   .     S
C874   C904    1.436   .     S
C875   C902    1.451   .     S
C876   C881    1.453   .     S
C877   C893    1.475   .     S
C878   N906    1.435   .     S
C878   C892    1.394   .     A
H879   C892    1.084   .     S
H880   C889    1.080   .     S
C881   C891    1.389   .     A
C881   C892    1.392   .     A
C882   H895    1.083   .     S
C882   C883    1.383   .     A
C882   C893    1.402   .     A
C883   H897    1.082   .     S
C883   C335    1.387   1_556 S
C884   H896    1.075   .     S
C885   C886    1.426   .     A
C885   C335    1.419   1_556 S
C885   C338    1.426   1_556 S
C886   C890    1.423   .     A
C886   C893    1.424   .     A
C887   C891    1.411   .     A
C888   C889    1.399   .     A
C888   C338    1.425   1_556 S
C888   C329    1.419   1_556 S
C889   C890    1.395   .     A
C890   C909    1.524   .     S
C891   H894    1.076   .     S
C898   H777    1.088   1_655 S
C898   C778    1.334   1_655 S
H901   C778    1.086   1_655 S
C902   H1086   1.088   .     S
C902   C1087   1.331   .     S
H905   C1087   1.086   .     S
N906   O908    1.301   .     A
O907   N357    1.301   1_556 S
C909   C910    1.531   .     S
C909   H914    1.107   .     S
C909   H915    1.111   .     S
C910   H913    1.111   .     S
C910   H912    1.111   .     S
C910   H911    1.110   .     S
Zn916  O920    1.959   .     S
Zn916  O928    1.923   .     S
Zn916  O929    1.927   .     S
Zn916  O922    1.926   .     S
Zn917  O931    1.929   .     S
Zn917  O920    1.935   .     S
Zn917  O925    1.931   .     S
Zn917  O923    1.939   .     S
Zn918  O924    1.930   .     S
Zn918  O927    1.928   .     S
Zn918  O932    1.936   .     S
Zn918  O920    1.940   .     S
Zn919  O930    1.935   .     S
Zn919  O926    1.937   .     S
Zn919  O921    1.931   .     S
Zn919  O920    1.931   .     S
O921   C933    1.267   .     A
O922   C934    1.280   .     A
O923   C935    1.275   .     A
O924   C936    1.271   .     A
O925   C937    1.270   .     A
O926   C938    1.280   .     A
O927   C937    1.278   .     A
O928   C938    1.287   .     A
O929   C935    1.275   .     A
O930   C936    1.272   .     A
O931   C933    1.267   .     A
O932   C934    1.283   .     A
C933   C961    1.437   .     S
C934   C959    1.455   .     S
C935   C965    1.436   .     S
C936   C963    1.451   .     S
C937   C942    1.453   .     S
C938   C954    1.475   .     S
C939   N967    1.435   .     S
C939   C953    1.394   .     A
H940   C953    1.084   .     S
H941   C950    1.080   .     S
C942   C952    1.389   .     A
C942   C953    1.392   .     A
C943   H956    1.083   .     S
C943   C944    1.383   .     A
C943   C954    1.402   .     A
C944   H958    1.082   .     S
C944   C396    1.387   1_556 S
C945   H957    1.075   .     S
C946   C947    1.426   .     A
C946   C396    1.419   1_556 S
C946   C399    1.426   1_556 S
C947   C951    1.423   .     A
C947   C954    1.424   .     A
C948   C952    1.411   .     A
C949   C950    1.399   .     A
C949   C399    1.425   1_556 S
C949   C390    1.419   1_556 S
C950   C951    1.395   .     A
C951   C970    1.524   .     S
C952   H955    1.076   .     S
C959   H1021   1.088   .     S
C959   C1022   1.334   .     S
H960   C1081   1.088   1_455 S
C961   C1081   1.334   1_455 S
C961   H1084   1.086   1_455 S
H962   C1022   1.086   .     S
C963   H598    1.088   1_565 S
C963   C599    1.331   1_565 S
H966   C599    1.086   1_565 S
N967   O969    1.301   .     A
O968   N418    1.301   1_556 S
C970   C971    1.531   .     S
C970   H975    1.107   .     S
C970   H976    1.111   .     S
C971   H974    1.111   .     S
C971   H973    1.111   .     S
C971   H972    1.110   .     S
Zn977  O981    1.959   .     S
Zn977  O989    1.923   .     S
Zn977  O990    1.927   .     S
Zn977  O983    1.926   .     S
Zn978  O992    1.929   .     S
Zn978  O981    1.935   .     S
Zn978  O986    1.931   .     S
Zn978  O984    1.939   .     S
Zn979  O985    1.930   .     S
Zn979  O988    1.928   .     S
Zn979  O993    1.936   .     S
Zn979  O981    1.940   .     S
Zn980  O991    1.935   .     S
Zn980  O987    1.937   .     S
Zn980  O982    1.931   .     S
Zn980  O981    1.931   .     S
O982   C994    1.267   .     A
O983   C995    1.280   .     A
O984   C996    1.275   .     A
O985   C997    1.271   .     A
O986   C998    1.270   .     A
O987   C999    1.280   .     A
O988   C998    1.278   .     A
O989   C999    1.287   .     A
O990   C996    1.275   .     A
O991   C997    1.272   .     A
O992   C994    1.267   .     A
O993   C995    1.283   .     A
C994   C1022   1.437   .     S
C995   C1020   1.455   .     S
C996   C1026   1.436   .     S
C997   C1024   1.451   .     S
C998   C1003   1.453   .     S
C999   C1015   1.475   .     S
C1000  N1028   1.435   .     S
C1000  C1014   1.394   .     A
H1001  C1014   1.084   .     S
H1002  C1011   1.080   .     S
C1003  C1013   1.389   .     A
C1003  C1014   1.392   .     A
C1004  H1017   1.083   .     S
C1004  C1005   1.383   .     A
C1004  C1015   1.402   .     A
C1005  H1019   1.082   .     S
C1005  C457    1.387   1_556 S
C1006  H1018   1.075   .     S
C1007  C1008   1.426   .     A
C1007  C457    1.419   1_556 S
C1007  C460    1.426   1_556 S
C1008  C1012   1.423   .     A
C1008  C1015   1.424   .     A
C1009  C1013   1.411   .     A
C1010  C1011   1.399   .     A
C1010  C460    1.425   1_556 S
C1010  C451    1.419   1_556 S
C1011  C1012   1.395   .     A
C1012  C1031   1.524   .     S
C1013  H1016   1.076   .     S
C1020  H1082   1.088   .     S
C1020  C1083   1.334   .     S
H1023  C1083   1.086   .     S
C1024  H659    1.088   1_565 S
C1024  C660    1.331   1_565 S
H1027  C660    1.086   1_565 S
N1028  O1030   1.301   .     A
O1029  N479    1.301   1_556 S
C1031  C1032   1.531   .     S
C1031  H1036   1.107   .     S
C1031  H1037   1.111   .     S
C1032  H1035   1.111   .     S
C1032  H1034   1.111   .     S
C1032  H1033   1.110   .     S
Zn1038 O1042   1.959   .     S
Zn1038 O1050   1.923   .     S
Zn1038 O1051   1.927   .     S
Zn1038 O1044   1.926   .     S
Zn1039 O1053   1.929   .     S
Zn1039 O1042   1.935   .     S
Zn1039 O1047   1.931   .     S
Zn1039 O1045   1.939   .     S
Zn1040 O1046   1.930   .     S
Zn1040 O1049   1.928   .     S
Zn1040 O1054   1.936   .     S
Zn1040 O1042   1.940   .     S
Zn1041 O1052   1.935   .     S
Zn1041 O1048   1.937   .     S
Zn1041 O1043   1.931   .     S
Zn1041 O1042   1.931   .     S
O1043  C1055   1.267   .     A
O1044  C1056   1.280   .     A
O1045  C1057   1.275   .     A
O1046  C1058   1.271   .     A
O1047  C1059   1.270   .     A
O1048  C1060   1.280   .     A
O1049  C1059   1.278   .     A
O1050  C1060   1.287   .     A
O1051  C1057   1.275   .     A
O1052  C1058   1.272   .     A
O1053  C1055   1.267   .     A
O1054  C1056   1.283   .     A
C1055  C1083   1.437   .     S
C1056  C1081   1.455   .     S
C1057  C1087   1.436   .     S
C1058  C1085   1.451   .     S
C1059  C1064   1.453   .     S
C1060  C1076   1.475   .     S
C1061  N1089   1.435   .     S
C1061  C1075   1.394   .     A
H1062  C1075   1.084   .     S
H1063  C1072   1.080   .     S
C1064  C1074   1.389   .     A
C1064  C1075   1.392   .     A
C1065  H1078   1.083   .     S
C1065  C1066   1.383   .     A
C1065  C1076   1.402   .     A
C1066  H1080   1.082   .     S
C1066  C518    1.387   1_556 S
C1067  H1079   1.075   .     S
C1068  C1069   1.426   .     A
C1068  C518    1.419   1_556 S
C1068  C521    1.426   1_556 S
C1069  C1073   1.423   .     A
C1069  C1076   1.424   .     A
C1070  C1074   1.411   .     A
C1071  C1072   1.399   .     A
C1071  C521    1.425   1_556 S
C1071  C512    1.419   1_556 S
C1072  C1073   1.395   .     A
C1073  C1092   1.524   .     S
C1074  H1077   1.076   .     S
C1081  H960    1.088   1_655 S
C1081  C961    1.334   1_655 S
H1084  C961    1.086   1_655 S
C1085  H720    1.088   1_565 S
C1085  C721    1.331   1_565 S
H1088  C721    1.086   1_565 S
N1089  O1091   1.301   .     A
O1090  N540    1.301   1_556 S
C1092  C1093   1.531   .     S
C1092  H1097   1.107   .     S
C1092  H1098   1.111   .     S
C1093  H1096   1.111   .     S
C1093  H1095   1.111   .     S
C1093  H1094   1.110   .     S
