data_str_m1_o1_o2_pcu_sym.93
_audit_creation_date              2020-01-03
_audit_creation_method            'Materials Studio'
_symmetry_space_group_name_H-M    'P1'
_symmetry_Int_Tables_number       1
_symmetry_cell_setting            triclinic
loop_
_symmetry_equiv_pos_as_xyz
  x,y,z
_cell_length_a                    36.6924
_cell_length_b                    36.6926
_cell_length_c                    34.4668
_cell_angle_alpha                 89.9996
_cell_angle_beta                  89.9998
_cell_angle_gamma                 90.0005
loop_
_atom_site_label
_atom_site_type_symbol
_atom_site_fract_x
_atom_site_fract_y
_atom_site_fract_z
_atom_site_U_iso_or_equiv
_atom_site_adp_type
_atom_site_occupancy
C1     C     0.23012   0.02702   0.04173   0.00000  Uiso   1.00
C2     C     0.01990   0.27702   0.45827   0.00000  Uiso   1.00
C3     C     0.34815   0.40185   0.75000   0.00000  Uiso   1.00
C4     C     0.40186   0.15187   0.25000   0.00000  Uiso   1.00
C5     C     0.09815   0.34815   0.75000   0.00000  Uiso   1.00
C6     C     0.34813   0.40187   0.25000   0.00000  Uiso   1.00
C7     C     0.15185   0.09815   0.75000   0.00000  Uiso   1.00
C8     C     0.09813   0.15187   0.75000   0.00000  Uiso   1.00
C9     C     0.40185   0.34815   0.25000   0.00000  Uiso   1.00
C10    C     0.15186   0.40187   0.75000   0.00000  Uiso   1.00
C11    C     0.34815   0.09815   0.25000   0.00000  Uiso   1.00
C12    C     0.40186   0.34813   0.75000   0.00000  Uiso   1.00
C13    C     0.22295   0.48011   0.54174   0.00000  Uiso   1.00
C14    C     0.09815   0.15185   0.25000   0.00000  Uiso   1.00
C15    C     0.34811   0.09816   0.75003   0.00000  Uiso   1.00
C16    C     0.15185   0.40185   0.25000   0.00000  Uiso   1.00
C17    C     0.25000   0.49999   0.10257   0.00000  Uiso   1.00
C18    C     0.25001   0.49998   0.89744   0.00000  Uiso   1.00
C19    C     0.00000   0.25000   0.10256   0.00000  Uiso   1.00
C20    C     0.00000   0.25000   0.89744   0.00000  Uiso   1.00
C21    C     0.00000   0.25000   0.60256   0.00000  Uiso   1.00
C22    C    -0.00000   0.25000   0.39744   0.00000  Uiso   1.00
C23    C     0.24999  -0.00000   0.60256   0.00000  Uiso   1.00
C24    C     0.22297   0.01990   0.45827   0.00000  Uiso   1.00
C25    C     0.24999  -0.00000   0.39744   0.00000  Uiso   1.00
C26    C     0.01990   0.22299   0.54173   0.00000  Uiso   1.00
C27    C     0.48010   0.22299   0.45827   0.00000  Uiso   1.00
C28    C     0.27701   0.01988   0.54172   0.00000  Uiso   1.00
C29    C     0.27699   0.48008   0.45827   0.00000  Uiso   1.00
C30    C     0.23212   0.02838   0.08232   0.00000  Uiso   1.00
C31    C     0.26807   0.02824   0.91770   0.00000  Uiso   1.00
C32    C     0.47165   0.23207   0.08232   0.00000  Uiso   1.00
C33    C     0.27001   0.02689   0.95829   0.00000  Uiso   1.00
C34    C     0.47163   0.26790   0.91768   0.00000  Uiso   1.00
C35    C     0.26785   0.47158   0.08233   0.00000  Uiso   1.00
C36    C     0.23196   0.47169   0.91767   0.00000  Uiso   1.00
C37    C     0.02836   0.26793   0.08232   0.00000  Uiso   1.00
C38    C     0.02838   0.23210   0.91767   0.00000  Uiso   1.00
C39    C     0.48209   0.27837   0.58232   0.00000  Uiso   1.00
C40    C     0.01791   0.27837   0.41768   0.00000  Uiso   1.00
C41    C     0.22161   0.48210   0.58233   0.00000  Uiso   1.00
C42    C     0.22162   0.01791   0.41767   0.00000  Uiso   1.00
C43    C     0.01791   0.22163   0.58232   0.00000  Uiso   1.00
C44    C     0.47301   0.23007   0.04173   0.00000  Uiso   1.00
C45    C     0.48209   0.22163   0.41768   0.00000  Uiso   1.00
C46    C     0.27837   0.01789   0.58231   0.00000  Uiso   1.00
C47    C     0.27835   0.48208   0.41768   0.00000  Uiso   1.00
C48    C     0.24997   0.49996   0.02139   0.00000  Uiso   1.00
C49    C     0.24998   0.49996   0.97862   0.00000  Uiso   1.00
C50    C     0.00001   0.25000   0.02138   0.00000  Uiso   1.00
C51    C     0.00001   0.25000   0.97861   0.00000  Uiso   1.00
C52    C     0.00000   0.25000   0.52138   0.00000  Uiso   1.00
C53    C     0.00000   0.25000   0.47861   0.00000  Uiso   1.00
C54    C     0.24998  -0.00000   0.52139   0.00000  Uiso   1.00
C55    C     0.47298   0.26989   0.95827   0.00000  Uiso   1.00
C56    C     0.24997   0.49999   0.47862   0.00000  Uiso   1.00
C57    C     0.25000  -0.00000   0.35508   0.00000  Uiso   1.00
C58    C     0.25000  -0.00000   0.64492   0.00000  Uiso   1.00
C59    C    -0.00000   0.25000   0.35508   0.00000  Uiso   1.00
C60    C     0.00000   0.25000   0.64492   0.00000  Uiso   1.00
C61    C     0.00000   0.25000   0.85508   0.00000  Uiso   1.00
C62    C     0.00000   0.25000   0.14492   0.00000  Uiso   1.00
C63    C     0.25000   0.00001   0.85509   0.00000  Uiso   1.00
C64    C     0.25000  -0.00000   0.14492   0.00000  Uiso   1.00
C65    C     0.17992   0.07008   0.25000   0.00000  Uiso   1.00
C66    C     0.26983   0.47291   0.04174   0.00000  Uiso   1.00
C67    C     0.32008   0.42992   0.75000   0.00000  Uiso   1.00
C68    C     0.42992   0.17992   0.25000   0.00000  Uiso   1.00
C69    C     0.07008   0.32008   0.75000   0.00000  Uiso   1.00
C70    C     0.32008   0.42992   0.25000   0.00000  Uiso   1.00
C71    C     0.17992   0.07008   0.75000   0.00000  Uiso   1.00
C72    C     0.07008   0.32008   0.25000   0.00000  Uiso   1.00
C73    C     0.42992   0.17992   0.75000   0.00000  Uiso   1.00
C74    C     0.17992   0.42992   0.75000   0.00000  Uiso   1.00
C75    C     0.32008   0.07008   0.25000   0.00000  Uiso   1.00
C76    C     0.42992   0.32008   0.75000   0.00000  Uiso   1.00
C77    C     0.22997   0.47304   0.95827   0.00000  Uiso   1.00
C78    C     0.07008   0.17992   0.25000   0.00000  Uiso   1.00
C79    C     0.32007   0.07008   0.75001   0.00000  Uiso   1.00
C80    C     0.17992   0.42992   0.25000   0.00000  Uiso   1.00
C81    C     0.07008   0.17992   0.75000   0.00000  Uiso   1.00
C82    C     0.42992   0.32008   0.25000   0.00000  Uiso   1.00
C83    C     0.12203   0.40467   0.22475   0.00000  Uiso   1.00
C84    C     0.37765   0.09561   0.77568   0.00000  Uiso   1.00
C85    C     0.09533   0.12204   0.22475   0.00000  Uiso   1.00
C86    C     0.40469   0.37795   0.77525   0.00000  Uiso   1.00
C87    C     0.37797   0.09533   0.22475   0.00000  Uiso   1.00
C88    C     0.02701   0.26992   0.04173   0.00000  Uiso   1.00
C89    C     0.12205   0.40469   0.77524   0.00000  Uiso   1.00
C90    C     0.40467   0.37796   0.22475   0.00000  Uiso   1.00
C91    C     0.09531   0.12205   0.77524   0.00000  Uiso   1.00
C92    C     0.12203   0.09533   0.77525   0.00000  Uiso   1.00
C93    C     0.37795   0.40469   0.22475   0.00000  Uiso   1.00
C94    C     0.09533   0.37797   0.77525   0.00000  Uiso   1.00
C95    C     0.40469   0.12205   0.22476   0.00000  Uiso   1.00
C96    C     0.37796   0.40467   0.77525   0.00000  Uiso   1.00
C97    C     0.12205   0.09531   0.22475   0.00000  Uiso   1.00
C98    C     0.40439   0.12232   0.77566   0.00000  Uiso   1.00
C99    C     0.02703   0.23010   0.95827   0.00000  Uiso   1.00
C100   C     0.09531   0.37795   0.22476   0.00000  Uiso   1.00
C101   C     0.37228   0.15443   0.72440   0.00000  Uiso   1.00
C102   C     0.12795   0.34531   0.27525   0.00000  Uiso   1.00
C103   C     0.34533   0.37204   0.72475   0.00000  Uiso   1.00
C104   C     0.15469   0.12795   0.27525   0.00000  Uiso   1.00
C105   C     0.12797   0.34533   0.72475   0.00000  Uiso   1.00
C106   C     0.37205   0.15469   0.27524   0.00000  Uiso   1.00
C107   C     0.15467   0.12797   0.72475   0.00000  Uiso   1.00
C108   C     0.34531   0.37205   0.27525   0.00000  Uiso   1.00
C109   C     0.37204   0.34533   0.27525   0.00000  Uiso   1.00
C110   C     0.48010   0.27702   0.54173   0.00000  Uiso   1.00
C111   C     0.12795   0.15469   0.72475   0.00000  Uiso   1.00
C112   C     0.34533   0.12797   0.27525   0.00000  Uiso   1.00
C113   C     0.15469   0.37205   0.72476   0.00000  Uiso   1.00
C114   C     0.12796   0.15467   0.27525   0.00000  Uiso   1.00
C115   C     0.37205   0.34531   0.72475   0.00000  Uiso   1.00
C116   C     0.15467   0.37204   0.27525   0.00000  Uiso   1.00
C117   C     0.34555   0.12772   0.72441   0.00000  Uiso   1.00
C118   C     0.09813   0.34813   0.25000   0.00000  Uiso   1.00
C119   C     0.40184   0.15186   0.75002   0.00000  Uiso   1.00
C120   C     0.15187   0.09814   0.25000   0.00000  Uiso   1.00
H121   H     0.11932   0.42746   0.20499   0.00000  Uiso   1.00
H122   H     0.38067   0.42749   0.20501   0.00000  Uiso   1.00
H123   H     0.07253   0.38068   0.79500   0.00000  Uiso   1.00
H124   H     0.42750   0.11932   0.20502   0.00000  Uiso   1.00
H125   H     0.38068   0.42746   0.79501   0.00000  Uiso   1.00
H126   H     0.11932   0.07251   0.20501   0.00000  Uiso   1.00
H127   H     0.42696   0.11982   0.79573   0.00000  Uiso   1.00
H128   H     0.07250   0.38068   0.20502   0.00000  Uiso   1.00
H129   H     0.36978   0.17701   0.70434   0.00000  Uiso   1.00
H130   H     0.13068   0.32251   0.29498   0.00000  Uiso   1.00
H131   H     0.32254   0.36932   0.70499   0.00000  Uiso   1.00
H132   H     0.38013   0.07304   0.79577   0.00000  Uiso   1.00
H133   H     0.17749   0.13068   0.29498   0.00000  Uiso   1.00
H134   H     0.13068   0.32253   0.70499   0.00000  Uiso   1.00
H135   H     0.36932   0.17750   0.29498   0.00000  Uiso   1.00
H136   H     0.17746   0.13068   0.70499   0.00000  Uiso   1.00
H137   H     0.32251   0.36932   0.29499   0.00000  Uiso   1.00
H138   H     0.36932   0.32254   0.29501   0.00000  Uiso   1.00
H139   H     0.13068   0.17750   0.70502   0.00000  Uiso   1.00
H140   H     0.32253   0.13068   0.29500   0.00000  Uiso   1.00
H141   H     0.17750   0.36932   0.70502   0.00000  Uiso   1.00
H142   H     0.13068   0.17746   0.29501   0.00000  Uiso   1.00
H143   H     0.07254   0.11932   0.20499   0.00000  Uiso   1.00
H144   H     0.36932   0.32251   0.70501   0.00000  Uiso   1.00
H145   H     0.17746   0.36932   0.29501   0.00000  Uiso   1.00
H146   H     0.32295   0.13023   0.70437   0.00000  Uiso   1.00
H147   H     0.20408   0.04519   0.99584   0.00000  Uiso   1.00
H148   H     0.29610   0.04496   0.00421   0.00000  Uiso   1.00
H149   H     0.45492   0.20396   0.99584   0.00000  Uiso   1.00
H150   H     0.45486   0.29597   0.00416   0.00000  Uiso   1.00
H151   H     0.29583   0.45470   0.99583   0.00000  Uiso   1.00
H152   H     0.20382   0.45500   0.00415   0.00000  Uiso   1.00
H153   H     0.04513   0.29600   0.99584   0.00000  Uiso   1.00
H154   H     0.42749   0.38068   0.79499   0.00000  Uiso   1.00
H155   H     0.04517   0.20403   0.00415   0.00000  Uiso   1.00
H156   H     0.45400   0.29513   0.49585   0.00000  Uiso   1.00
H157   H     0.04600   0.29513   0.50415   0.00000  Uiso   1.00
H158   H     0.20481   0.45403   0.49586   0.00000  Uiso   1.00
H159   H     0.20485   0.04600   0.50415   0.00000  Uiso   1.00
H160   H     0.04600   0.20488   0.49585   0.00000  Uiso   1.00
H161   H     0.45400   0.20487   0.50415   0.00000  Uiso   1.00
H162   H     0.29511   0.04598   0.49584   0.00000  Uiso   1.00
H163   H     0.29508   0.45397   0.50416   0.00000  Uiso   1.00
H164   H     0.16249   0.07286   0.14101   0.00000  Uiso   1.00
H165   H     0.38068   0.07253   0.20500   0.00000  Uiso   1.00
H166   H     0.34344   0.04465   0.89903   0.00000  Uiso   1.00
H167   H     0.42726   0.16228   0.14090   0.00000  Uiso   1.00
H168   H     0.42722   0.33760   0.85902   0.00000  Uiso   1.00
H169   H     0.33752   0.42714   0.14100   0.00000  Uiso   1.00
H170   H     0.16193   0.42739   0.85931   0.00000  Uiso   1.00
H171   H     0.07272   0.33771   0.14092   0.00000  Uiso   1.00
H172   H     0.07278   0.16240   0.85901   0.00000  Uiso   1.00
H173   H     0.41238   0.32276   0.64097   0.00000  Uiso   1.00
H174   H     0.08765   0.32279   0.35907   0.00000  Uiso   1.00
H175   H     0.17719   0.41241   0.64099   0.00000  Uiso   1.00
H176   H     0.11932   0.42750   0.79498   0.00000  Uiso   1.00
H177   H     0.17724   0.08764   0.35903   0.00000  Uiso   1.00
H178   H     0.08762   0.17724   0.64098   0.00000  Uiso   1.00
H179   H     0.41239   0.17725   0.35900   0.00000  Uiso   1.00
H180   H     0.32293   0.08769   0.64072   0.00000  Uiso   1.00
H181   H     0.32275   0.41236   0.35904   0.00000  Uiso   1.00
H182   H     0.42746   0.38068   0.20499   0.00000  Uiso   1.00
H183   H     0.07250   0.11932   0.79498   0.00000  Uiso   1.00
H184   H     0.11932   0.07253   0.79500   0.00000  Uiso   1.00
O185   O     0.25000   0.00000   0.25000   0.00000  Uiso   1.00
O186   O     0.25000   0.46964   0.66317   0.00000  Uiso   1.00
O187   O     0.15174   0.45709   0.58152   0.00000  Uiso   1.00
O188   O     0.19735   0.42065   0.62401   0.00000  Uiso   1.00
O189   O     0.17331   0.01487   0.35853   0.00000  Uiso   1.00
O190   O     0.15177   0.04296   0.41849   0.00000  Uiso   1.00
O191   O     0.19740   0.07938   0.37601   0.00000  Uiso   1.00
O192   O     0.01485   0.17330   0.64145   0.00000  Uiso   1.00
O193   O     0.04296   0.15178   0.58150   0.00000  Uiso   1.00
O194   O     0.07937   0.19740   0.62399   0.00000  Uiso   1.00
O195   O     0.48514   0.17331   0.35855   0.00000  Uiso   1.00
O196   O     0.45704   0.15178   0.41850   0.00000  Uiso   1.00
O197   O     0.46964   0.25000   0.33683   0.00000  Uiso   1.00
O198   O     0.42062   0.19740   0.37601   0.00000  Uiso   1.00
O199   O     0.32669   0.01483   0.64146   0.00000  Uiso   1.00
O200   O     0.34825   0.04285   0.58147   0.00000  Uiso   1.00
O201   O     0.30267   0.07936   0.62392   0.00000  Uiso   1.00
O202   O     0.32669   0.48513   0.35856   0.00000  Uiso   1.00
O203   O     0.34820   0.45702   0.41852   0.00000  Uiso   1.00
O204   O     0.30259   0.42061   0.37602   0.00000  Uiso   1.00
O205   O     0.03036   0.25000   0.66317   0.00000  Uiso   1.00
O206   O     0.00000   0.21964   0.83683   0.00000  Uiso   1.00
O207   O     0.00000   0.28036   0.16317   0.00000  Uiso   1.00
O208   O     0.28036   0.00000   0.83683   0.00000  Uiso   1.00
O209   O     0.21964   0.00000   0.16317   0.00000  Uiso   1.00
O210   O    -0.00000   0.28036   0.83683   0.00000  Uiso   1.00
O211   O     0.00000   0.21964   0.16317   0.00000  Uiso   1.00
O212   O     0.21964   0.00000   0.83683   0.00000  Uiso   1.00
O213   O     0.25000   0.00000   0.75000   0.00000  Uiso   1.00
O214   O     0.28036   0.00000   0.16317   0.00000  Uiso   1.00
O215   O     0.20725   0.07307   0.27282   0.00000  Uiso   1.00
O216   O     0.29274   0.42693   0.72718   0.00000  Uiso   1.00
O217   O     0.42693   0.20726   0.27282   0.00000  Uiso   1.00
O218   O     0.07307   0.29274   0.72718   0.00000  Uiso   1.00
O219   O     0.29274   0.42693   0.27282   0.00000  Uiso   1.00
O220   O     0.20725   0.07307   0.72718   0.00000  Uiso   1.00
O221   O     0.07307   0.29274   0.27282   0.00000  Uiso   1.00
O222   O     0.42693   0.20726   0.72718   0.00000  Uiso   1.00
O223   O     0.20725   0.42693   0.72718   0.00000  Uiso   1.00
O224   O     0.00000   0.25000   0.25000   0.00000  Uiso   1.00
O225   O     0.29274   0.07307   0.27282   0.00000  Uiso   1.00
O226   O     0.42693   0.29275   0.72718   0.00000  Uiso   1.00
O227   O     0.07307   0.20726   0.27282   0.00000  Uiso   1.00
O228   O     0.29274   0.07307   0.72718   0.00000  Uiso   1.00
O229   O     0.20725   0.42693   0.27282   0.00000  Uiso   1.00
O230   O     0.07307   0.20726   0.72718   0.00000  Uiso   1.00
O231   O     0.42693   0.29275   0.27282   0.00000  Uiso   1.00
O232   O     0.45725   0.32307   0.77282   0.00000  Uiso   1.00
O233   O     0.04274   0.17693   0.22718   0.00000  Uiso   1.00
O234   O     0.17693   0.45726   0.77282   0.00000  Uiso   1.00
O235   O     0.00000   0.25000   0.75000   0.00000  Uiso   1.00
O236   O     0.32307   0.04275   0.22718   0.00000  Uiso   1.00
O237   O     0.04274   0.17693   0.77282   0.00000  Uiso   1.00
O238   O     0.45725   0.32307   0.22718   0.00000  Uiso   1.00
O239   O     0.32307   0.04275   0.77282   0.00000  Uiso   1.00
O240   O     0.17693   0.45726   0.22718   0.00000  Uiso   1.00
O241   O     0.45725   0.17693   0.22718   0.00000  Uiso   1.00
O242   O     0.04274   0.32307   0.77282   0.00000  Uiso   1.00
O243   O     0.17693   0.04275   0.22718   0.00000  Uiso   1.00
O244   O     0.32307   0.45726   0.77282   0.00000  Uiso   1.00
O245   O     0.04274   0.32307   0.22718   0.00000  Uiso   1.00
O246   O     0.25000   0.46964   0.33683   0.00000  Uiso   1.00
O247   O     0.45725   0.17693   0.77282   0.00000  Uiso   1.00
O248   O     0.32307   0.45726   0.22718   0.00000  Uiso   1.00
O249   O     0.17693   0.04275   0.77282   0.00000  Uiso   1.00
O250   O     0.20881   0.05266   0.02292   0.00000  Uiso   1.00
O251   O     0.29147   0.05241   0.97710   0.00000  Uiso   1.00
O252   O     0.44743   0.20869   0.02292   0.00000  Uiso   1.00
O253   O     0.44737   0.29124   0.97708   0.00000  Uiso   1.00
O254   O     0.29113   0.44726   0.02294   0.00000  Uiso   1.00
O255   O     0.20849   0.44752   0.97706   0.00000  Uiso   1.00
O256   O     0.05260   0.29130   0.02293   0.00000  Uiso   1.00
O257   O     0.25000   0.03036   0.66317   0.00000  Uiso   1.00
O258   O     0.05264   0.20875   0.97707   0.00000  Uiso   1.00
O259   O     0.45874   0.30262   0.52293   0.00000  Uiso   1.00
O260   O     0.04127   0.30262   0.47707   0.00000  Uiso   1.00
O261   O     0.19733   0.45876   0.52294   0.00000  Uiso   1.00
O262   O     0.19737   0.04127   0.47707   0.00000  Uiso   1.00
O263   O     0.04126   0.19738   0.52292   0.00000  Uiso   1.00
O264   O     0.45873   0.19738   0.47708   0.00000  Uiso   1.00
O265   O     0.30262   0.04123   0.52291   0.00000  Uiso   1.00
O266   O     0.30258   0.45871   0.47708   0.00000  Uiso   1.00
O267   O     0.23525   0.07671   0.14144   0.00000  Uiso   1.00
O268   O     0.03036   0.25000   0.33683   0.00000  Uiso   1.00
O269   O     0.20716   0.09826   0.08149   0.00000  Uiso   1.00
O270   O     0.17070   0.05270   0.12401   0.00000  Uiso   1.00
O271   O     0.26541   0.07670   0.85867   0.00000  Uiso   1.00
O272   O     0.29370   0.09803   0.91844   0.00000  Uiso   1.00
O273   O     0.32968   0.05231   0.87568   0.00000  Uiso   1.00
O274   O     0.42331   0.23508   0.14144   0.00000  Uiso   1.00
O275   O     0.40181   0.20696   0.08149   0.00000  Uiso   1.00
O276   O     0.44746   0.17058   0.12399   0.00000  Uiso   1.00
O277   O     0.42330   0.26484   0.85855   0.00000  Uiso   1.00
O278   O     0.40177   0.29294   0.91851   0.00000  Uiso   1.00
O279   O     0.46964   0.25000   0.66317   0.00000  Uiso   1.00
O280   O     0.44738   0.32936   0.87601   0.00000  Uiso   1.00
O281   O     0.26475   0.42328   0.14148   0.00000  Uiso   1.00
O282   O     0.29283   0.40170   0.08154   0.00000  Uiso   1.00
O283   O     0.32929   0.44730   0.12401   0.00000  Uiso   1.00
O284   O     0.23483   0.42336   0.85853   0.00000  Uiso   1.00
O285   O     0.20668   0.40192   0.91849   0.00000  Uiso   1.00
O286   O     0.17040   0.44766   0.87602   0.00000  Uiso   1.00
O287   O     0.07669   0.26492   0.14146   0.00000  Uiso   1.00
O288   O     0.09820   0.29303   0.08150   0.00000  Uiso   1.00
O289   O     0.05255   0.32942   0.12399   0.00000  Uiso   1.00
O290   O     0.25000   0.03036   0.33683   0.00000  Uiso   1.00
O291   O     0.07670   0.23517   0.85854   0.00000  Uiso   1.00
O292   O     0.09824   0.20707   0.91849   0.00000  Uiso   1.00
O293   O     0.05262   0.17064   0.87600   0.00000  Uiso   1.00
O294   O     0.48515   0.32670   0.64145   0.00000  Uiso   1.00
O295   O     0.45704   0.34823   0.58150   0.00000  Uiso   1.00
O296   O     0.42062   0.30260   0.62399   0.00000  Uiso   1.00
O297   O     0.01486   0.32670   0.35854   0.00000  Uiso   1.00
O298   O     0.04296   0.34822   0.41850   0.00000  Uiso   1.00
O299   O     0.07938   0.30260   0.37601   0.00000  Uiso   1.00
O300   O     0.17330   0.48519   0.64147   0.00000  Uiso   1.00
S301   S     0.21182   0.06577   0.10759   0.00000  Uiso   1.00
S302   S     0.03826   0.31573   0.39241   0.00000  Uiso   1.00
S303   S     0.18424   0.46177   0.60761   0.00000  Uiso   1.00
S304   S     0.18427   0.03827   0.39240   0.00000  Uiso   1.00
S305   S     0.03826   0.18427   0.60759   0.00000  Uiso   1.00
S306   S     0.46174   0.18427   0.39241   0.00000  Uiso   1.00
S307   S     0.31575   0.03821   0.60757   0.00000  Uiso   1.00
S308   S     0.31572   0.46172   0.39242   0.00000  Uiso   1.00
S309   S     0.28873   0.06548   0.89248   0.00000  Uiso   1.00
S310   S     0.43430   0.21169   0.10758   0.00000  Uiso   1.00
S311   S     0.43426   0.28825   0.89241   0.00000  Uiso   1.00
S312   S     0.28817   0.43421   0.10762   0.00000  Uiso   1.00
S313   S     0.21147   0.43440   0.89240   0.00000  Uiso   1.00
S314   S     0.06571   0.28831   0.10759   0.00000  Uiso   1.00
S315   S     0.06574   0.21176   0.89240   0.00000  Uiso   1.00
S316   S     0.46174   0.31573   0.60759   0.00000  Uiso   1.00
Zn317  Zn    0.20660   0.00000   0.21760   0.00000  Uiso   1.00
Zn318  Zn    0.04340   0.25000   0.28240   0.00000  Uiso   1.00
Zn319  Zn    0.25000   0.45660   0.71760   0.00000  Uiso   1.00
Zn320  Zn    0.25000   0.04340   0.28240   0.00000  Uiso   1.00
Zn321  Zn    0.04340   0.25000   0.71760   0.00000  Uiso   1.00
Zn322  Zn    0.45660   0.25000   0.28240   0.00000  Uiso   1.00
Zn323  Zn    0.25000   0.04340   0.71760   0.00000  Uiso   1.00
Zn324  Zn    0.25000   0.45660   0.28240   0.00000  Uiso   1.00
Zn325  Zn    0.29340   0.00000   0.78240   0.00000  Uiso   1.00
Zn326  Zn    0.00000   0.20660   0.21760   0.00000  Uiso   1.00
Zn327  Zn    0.00000   0.29340   0.78240   0.00000  Uiso   1.00
Zn328  Zn    0.29340   0.00000   0.21760   0.00000  Uiso   1.00
Zn329  Zn    0.20660   0.00000   0.78240   0.00000  Uiso   1.00
Zn330  Zn    0.00000   0.29340   0.21760   0.00000  Uiso   1.00
Zn331  Zn    0.00000   0.20660   0.78240   0.00000  Uiso   1.00
Zn332  Zn    0.45660   0.25000   0.71760   0.00000  Uiso   1.00
C333   C     0.73012   0.02702   0.04173   0.00000  Uiso   1.00
C334   C     0.51990   0.27702   0.45827   0.00000  Uiso   1.00
C335   C     0.84815   0.40185   0.75000   0.00000  Uiso   1.00
C336   C     0.90186   0.15187   0.25000   0.00000  Uiso   1.00
C337   C     0.59815   0.34815   0.75000   0.00000  Uiso   1.00
C338   C     0.84813   0.40187   0.25000   0.00000  Uiso   1.00
C339   C     0.65185   0.09815   0.75000   0.00000  Uiso   1.00
C340   C     0.59813   0.15187   0.75000   0.00000  Uiso   1.00
C341   C     0.90185   0.34815   0.25000   0.00000  Uiso   1.00
C342   C     0.65186   0.40187   0.75000   0.00000  Uiso   1.00
C343   C     0.84815   0.09815   0.25000   0.00000  Uiso   1.00
C344   C     0.90186   0.34813   0.75000   0.00000  Uiso   1.00
C345   C     0.72295   0.48011   0.54174   0.00000  Uiso   1.00
C346   C     0.59815   0.15185   0.25000   0.00000  Uiso   1.00
C347   C     0.84811   0.09816   0.75003   0.00000  Uiso   1.00
C348   C     0.65185   0.40185   0.25000   0.00000  Uiso   1.00
C349   C     0.75000   0.49999   0.10257   0.00000  Uiso   1.00
C350   C     0.75001   0.49998   0.89744   0.00000  Uiso   1.00
C351   C     0.50000   0.25000   0.10256   0.00000  Uiso   1.00
C352   C     0.50000   0.25000   0.89744   0.00000  Uiso   1.00
C353   C     0.50000   0.25000   0.60256   0.00000  Uiso   1.00
C354   C     0.50000   0.25000   0.39744   0.00000  Uiso   1.00
C355   C     0.74999  -0.00000   0.60256   0.00000  Uiso   1.00
C356   C     0.72297   0.01990   0.45827   0.00000  Uiso   1.00
C357   C     0.74999  -0.00000   0.39744   0.00000  Uiso   1.00
C358   C     0.51990   0.22299   0.54173   0.00000  Uiso   1.00
C359   C     0.98010   0.22299   0.45827   0.00000  Uiso   1.00
C360   C     0.77701   0.01988   0.54172   0.00000  Uiso   1.00
C361   C     0.77699   0.48008   0.45827   0.00000  Uiso   1.00
C362   C     0.73212   0.02838   0.08232   0.00000  Uiso   1.00
C363   C     0.76807   0.02824   0.91770   0.00000  Uiso   1.00
C364   C     0.97165   0.23207   0.08232   0.00000  Uiso   1.00
C365   C     0.77001   0.02689   0.95829   0.00000  Uiso   1.00
C366   C     0.97163   0.26790   0.91768   0.00000  Uiso   1.00
C367   C     0.76785   0.47158   0.08233   0.00000  Uiso   1.00
C368   C     0.73196   0.47169   0.91767   0.00000  Uiso   1.00
C369   C     0.52836   0.26793   0.08232   0.00000  Uiso   1.00
C370   C     0.52838   0.23210   0.91767   0.00000  Uiso   1.00
C371   C     0.98209   0.27837   0.58232   0.00000  Uiso   1.00
C372   C     0.51791   0.27837   0.41768   0.00000  Uiso   1.00
C373   C     0.72161   0.48210   0.58233   0.00000  Uiso   1.00
C374   C     0.72162   0.01791   0.41767   0.00000  Uiso   1.00
C375   C     0.51791   0.22163   0.58232   0.00000  Uiso   1.00
C376   C     0.97301   0.23007   0.04173   0.00000  Uiso   1.00
C377   C     0.98209   0.22163   0.41768   0.00000  Uiso   1.00
C378   C     0.77837   0.01789   0.58231   0.00000  Uiso   1.00
C379   C     0.77835   0.48208   0.41768   0.00000  Uiso   1.00
C380   C     0.74997   0.49996   0.02139   0.00000  Uiso   1.00
C381   C     0.74998   0.49996   0.97862   0.00000  Uiso   1.00
C382   C     0.50001   0.25000   0.02138   0.00000  Uiso   1.00
C383   C     0.50001   0.25000   0.97861   0.00000  Uiso   1.00
C384   C     0.50000   0.25000   0.52138   0.00000  Uiso   1.00
C385   C     0.50000   0.25000   0.47861   0.00000  Uiso   1.00
C386   C     0.74998  -0.00000   0.52139   0.00000  Uiso   1.00
C387   C     0.97298   0.26989   0.95827   0.00000  Uiso   1.00
C388   C     0.74997   0.49999   0.47862   0.00000  Uiso   1.00
C389   C     0.75000  -0.00000   0.35508   0.00000  Uiso   1.00
C390   C     0.75000  -0.00000   0.64492   0.00000  Uiso   1.00
C391   C     0.50000   0.25000   0.35508   0.00000  Uiso   1.00
C392   C     0.50000   0.25000   0.64492   0.00000  Uiso   1.00
C393   C     0.50000   0.25000   0.85508   0.00000  Uiso   1.00
C394   C     0.50000   0.25000   0.14492   0.00000  Uiso   1.00
C395   C     0.75000   0.00001   0.85509   0.00000  Uiso   1.00
C396   C     0.75000  -0.00000   0.14492   0.00000  Uiso   1.00
C397   C     0.67992   0.07008   0.25000   0.00000  Uiso   1.00
C398   C     0.76983   0.47291   0.04174   0.00000  Uiso   1.00
C399   C     0.82008   0.42992   0.75000   0.00000  Uiso   1.00
C400   C     0.92992   0.17992   0.25000   0.00000  Uiso   1.00
C401   C     0.57008   0.32008   0.75000   0.00000  Uiso   1.00
C402   C     0.82008   0.42992   0.25000   0.00000  Uiso   1.00
C403   C     0.67992   0.07008   0.75000   0.00000  Uiso   1.00
C404   C     0.57008   0.32008   0.25000   0.00000  Uiso   1.00
C405   C     0.92992   0.17992   0.75000   0.00000  Uiso   1.00
C406   C     0.67992   0.42992   0.75000   0.00000  Uiso   1.00
C407   C     0.82008   0.07008   0.25000   0.00000  Uiso   1.00
C408   C     0.92992   0.32008   0.75000   0.00000  Uiso   1.00
C409   C     0.72997   0.47304   0.95827   0.00000  Uiso   1.00
C410   C     0.57008   0.17992   0.25000   0.00000  Uiso   1.00
C411   C     0.82007   0.07008   0.75001   0.00000  Uiso   1.00
C412   C     0.67992   0.42992   0.25000   0.00000  Uiso   1.00
C413   C     0.57008   0.17992   0.75000   0.00000  Uiso   1.00
C414   C     0.92992   0.32008   0.25000   0.00000  Uiso   1.00
C415   C     0.62203   0.40467   0.22475   0.00000  Uiso   1.00
C416   C     0.87765   0.09561   0.77568   0.00000  Uiso   1.00
C417   C     0.59533   0.12204   0.22475   0.00000  Uiso   1.00
C418   C     0.90469   0.37795   0.77525   0.00000  Uiso   1.00
C419   C     0.87797   0.09533   0.22475   0.00000  Uiso   1.00
C420   C     0.52701   0.26992   0.04173   0.00000  Uiso   1.00
C421   C     0.62205   0.40469   0.77524   0.00000  Uiso   1.00
C422   C     0.90467   0.37796   0.22475   0.00000  Uiso   1.00
C423   C     0.59531   0.12205   0.77524   0.00000  Uiso   1.00
C424   C     0.62203   0.09533   0.77525   0.00000  Uiso   1.00
C425   C     0.87795   0.40469   0.22475   0.00000  Uiso   1.00
C426   C     0.59533   0.37797   0.77525   0.00000  Uiso   1.00
C427   C     0.90469   0.12205   0.22476   0.00000  Uiso   1.00
C428   C     0.87796   0.40467   0.77525   0.00000  Uiso   1.00
C429   C     0.62205   0.09531   0.22475   0.00000  Uiso   1.00
C430   C     0.90439   0.12232   0.77566   0.00000  Uiso   1.00
C431   C     0.52703   0.23010   0.95827   0.00000  Uiso   1.00
C432   C     0.59531   0.37795   0.22476   0.00000  Uiso   1.00
C433   C     0.87228   0.15443   0.72440   0.00000  Uiso   1.00
C434   C     0.62795   0.34531   0.27525   0.00000  Uiso   1.00
C435   C     0.84533   0.37204   0.72475   0.00000  Uiso   1.00
C436   C     0.65469   0.12795   0.27525   0.00000  Uiso   1.00
C437   C     0.62797   0.34533   0.72475   0.00000  Uiso   1.00
C438   C     0.87205   0.15469   0.27524   0.00000  Uiso   1.00
C439   C     0.65467   0.12797   0.72475   0.00000  Uiso   1.00
C440   C     0.84531   0.37205   0.27525   0.00000  Uiso   1.00
C441   C     0.87204   0.34533   0.27525   0.00000  Uiso   1.00
C442   C     0.98010   0.27702   0.54173   0.00000  Uiso   1.00
C443   C     0.62795   0.15469   0.72475   0.00000  Uiso   1.00
C444   C     0.84533   0.12797   0.27525   0.00000  Uiso   1.00
C445   C     0.65469   0.37205   0.72476   0.00000  Uiso   1.00
C446   C     0.62796   0.15467   0.27525   0.00000  Uiso   1.00
C447   C     0.87205   0.34531   0.72475   0.00000  Uiso   1.00
C448   C     0.65467   0.37204   0.27525   0.00000  Uiso   1.00
C449   C     0.84555   0.12772   0.72441   0.00000  Uiso   1.00
C450   C     0.59813   0.34813   0.25000   0.00000  Uiso   1.00
C451   C     0.90184   0.15186   0.75002   0.00000  Uiso   1.00
C452   C     0.65187   0.09814   0.25000   0.00000  Uiso   1.00
H453   H     0.61932   0.42746   0.20499   0.00000  Uiso   1.00
H454   H     0.88067   0.42749   0.20501   0.00000  Uiso   1.00
H455   H     0.57253   0.38068   0.79500   0.00000  Uiso   1.00
H456   H     0.92750   0.11932   0.20502   0.00000  Uiso   1.00
H457   H     0.88068   0.42746   0.79501   0.00000  Uiso   1.00
H458   H     0.61932   0.07251   0.20501   0.00000  Uiso   1.00
H459   H     0.92696   0.11982   0.79573   0.00000  Uiso   1.00
H460   H     0.57250   0.38068   0.20502   0.00000  Uiso   1.00
H461   H     0.86978   0.17701   0.70434   0.00000  Uiso   1.00
H462   H     0.63068   0.32251   0.29498   0.00000  Uiso   1.00
H463   H     0.82254   0.36932   0.70499   0.00000  Uiso   1.00
H464   H     0.88013   0.07304   0.79577   0.00000  Uiso   1.00
H465   H     0.67749   0.13068   0.29498   0.00000  Uiso   1.00
H466   H     0.63068   0.32253   0.70499   0.00000  Uiso   1.00
H467   H     0.86932   0.17750   0.29498   0.00000  Uiso   1.00
H468   H     0.67746   0.13068   0.70499   0.00000  Uiso   1.00
H469   H     0.82251   0.36932   0.29499   0.00000  Uiso   1.00
H470   H     0.86932   0.32254   0.29501   0.00000  Uiso   1.00
H471   H     0.63068   0.17750   0.70502   0.00000  Uiso   1.00
H472   H     0.82253   0.13068   0.29500   0.00000  Uiso   1.00
H473   H     0.67750   0.36932   0.70502   0.00000  Uiso   1.00
H474   H     0.63068   0.17746   0.29501   0.00000  Uiso   1.00
H475   H     0.57254   0.11932   0.20499   0.00000  Uiso   1.00
H476   H     0.86932   0.32251   0.70501   0.00000  Uiso   1.00
H477   H     0.67746   0.36932   0.29501   0.00000  Uiso   1.00
H478   H     0.82295   0.13023   0.70437   0.00000  Uiso   1.00
H479   H     0.70408   0.04519   0.99584   0.00000  Uiso   1.00
H480   H     0.79610   0.04496   0.00421   0.00000  Uiso   1.00
H481   H     0.95492   0.20396   0.99584   0.00000  Uiso   1.00
H482   H     0.95486   0.29597   0.00416   0.00000  Uiso   1.00
H483   H     0.79583   0.45470   0.99583   0.00000  Uiso   1.00
H484   H     0.70382   0.45500   0.00415   0.00000  Uiso   1.00
H485   H     0.54513   0.29600   0.99584   0.00000  Uiso   1.00
H486   H     0.92749   0.38068   0.79499   0.00000  Uiso   1.00
H487   H     0.54517   0.20403   0.00415   0.00000  Uiso   1.00
H488   H     0.95400   0.29513   0.49585   0.00000  Uiso   1.00
H489   H     0.54600   0.29513   0.50415   0.00000  Uiso   1.00
H490   H     0.70481   0.45403   0.49586   0.00000  Uiso   1.00
H491   H     0.70485   0.04600   0.50415   0.00000  Uiso   1.00
H492   H     0.54600   0.20488   0.49585   0.00000  Uiso   1.00
H493   H     0.95400   0.20487   0.50415   0.00000  Uiso   1.00
H494   H     0.79511   0.04598   0.49584   0.00000  Uiso   1.00
H495   H     0.79508   0.45397   0.50416   0.00000  Uiso   1.00
H496   H     0.66249   0.07286   0.14101   0.00000  Uiso   1.00
H497   H     0.88068   0.07253   0.20500   0.00000  Uiso   1.00
H498   H     0.84344   0.04465   0.89903   0.00000  Uiso   1.00
H499   H     0.92726   0.16228   0.14090   0.00000  Uiso   1.00
H500   H     0.92722   0.33760   0.85902   0.00000  Uiso   1.00
H501   H     0.83752   0.42714   0.14100   0.00000  Uiso   1.00
H502   H     0.66193   0.42739   0.85931   0.00000  Uiso   1.00
H503   H     0.57272   0.33771   0.14092   0.00000  Uiso   1.00
H504   H     0.57278   0.16240   0.85901   0.00000  Uiso   1.00
H505   H     0.91238   0.32276   0.64097   0.00000  Uiso   1.00
H506   H     0.58765   0.32279   0.35907   0.00000  Uiso   1.00
H507   H     0.67719   0.41241   0.64099   0.00000  Uiso   1.00
H508   H     0.61932   0.42750   0.79498   0.00000  Uiso   1.00
H509   H     0.67724   0.08764   0.35903   0.00000  Uiso   1.00
H510   H     0.58762   0.17724   0.64098   0.00000  Uiso   1.00
H511   H     0.91239   0.17725   0.35900   0.00000  Uiso   1.00
H512   H     0.82293   0.08769   0.64072   0.00000  Uiso   1.00
H513   H     0.82275   0.41236   0.35904   0.00000  Uiso   1.00
H514   H     0.92746   0.38068   0.20499   0.00000  Uiso   1.00
H515   H     0.57250   0.11932   0.79498   0.00000  Uiso   1.00
H516   H     0.61932   0.07253   0.79500   0.00000  Uiso   1.00
O517   O     0.75000   0.00000   0.25000   0.00000  Uiso   1.00
O518   O     0.75000   0.46964   0.66317   0.00000  Uiso   1.00
O519   O     0.65174   0.45709   0.58152   0.00000  Uiso   1.00
O520   O     0.69735   0.42065   0.62401   0.00000  Uiso   1.00
O521   O     0.67331   0.01487   0.35853   0.00000  Uiso   1.00
O522   O     0.65177   0.04296   0.41849   0.00000  Uiso   1.00
O523   O     0.69740   0.07938   0.37601   0.00000  Uiso   1.00
O524   O     0.51485   0.17330   0.64145   0.00000  Uiso   1.00
O525   O     0.54296   0.15178   0.58150   0.00000  Uiso   1.00
O526   O     0.57937   0.19740   0.62399   0.00000  Uiso   1.00
O527   O     0.98514   0.17331   0.35855   0.00000  Uiso   1.00
O528   O     0.95704   0.15178   0.41850   0.00000  Uiso   1.00
O529   O     0.96964   0.25000   0.33683   0.00000  Uiso   1.00
O530   O     0.92062   0.19740   0.37601   0.00000  Uiso   1.00
O531   O     0.82669   0.01483   0.64146   0.00000  Uiso   1.00
O532   O     0.84825   0.04285   0.58147   0.00000  Uiso   1.00
O533   O     0.80267   0.07936   0.62392   0.00000  Uiso   1.00
O534   O     0.82669   0.48513   0.35856   0.00000  Uiso   1.00
O535   O     0.84820   0.45702   0.41852   0.00000  Uiso   1.00
O536   O     0.80259   0.42061   0.37602   0.00000  Uiso   1.00
O537   O     0.53036   0.25000   0.66317   0.00000  Uiso   1.00
O538   O     0.50000   0.21964   0.83683   0.00000  Uiso   1.00
O539   O     0.50000   0.28036   0.16317   0.00000  Uiso   1.00
O540   O     0.78036   0.00000   0.83683   0.00000  Uiso   1.00
O541   O     0.71964   0.00000   0.16317   0.00000  Uiso   1.00
O542   O     0.50000   0.28036   0.83683   0.00000  Uiso   1.00
O543   O     0.50000   0.21964   0.16317   0.00000  Uiso   1.00
O544   O     0.71964   0.00000   0.83683   0.00000  Uiso   1.00
O545   O     0.75000   0.00000   0.75000   0.00000  Uiso   1.00
O546   O     0.78036   0.00000   0.16317   0.00000  Uiso   1.00
O547   O     0.70725   0.07307   0.27282   0.00000  Uiso   1.00
O548   O     0.79274   0.42693   0.72718   0.00000  Uiso   1.00
O549   O     0.92693   0.20726   0.27282   0.00000  Uiso   1.00
O550   O     0.57307   0.29274   0.72718   0.00000  Uiso   1.00
O551   O     0.79274   0.42693   0.27282   0.00000  Uiso   1.00
O552   O     0.70725   0.07307   0.72718   0.00000  Uiso   1.00
O553   O     0.57307   0.29274   0.27282   0.00000  Uiso   1.00
O554   O     0.92693   0.20726   0.72718   0.00000  Uiso   1.00
O555   O     0.70725   0.42693   0.72718   0.00000  Uiso   1.00
O556   O     0.50000   0.25000   0.25000   0.00000  Uiso   1.00
O557   O     0.79274   0.07307   0.27282   0.00000  Uiso   1.00
O558   O     0.92693   0.29275   0.72718   0.00000  Uiso   1.00
O559   O     0.57307   0.20726   0.27282   0.00000  Uiso   1.00
O560   O     0.79274   0.07307   0.72718   0.00000  Uiso   1.00
O561   O     0.70725   0.42693   0.27282   0.00000  Uiso   1.00
O562   O     0.57307   0.20726   0.72718   0.00000  Uiso   1.00
O563   O     0.92693   0.29275   0.27282   0.00000  Uiso   1.00
O564   O     0.95725   0.32307   0.77282   0.00000  Uiso   1.00
O565   O     0.54274   0.17693   0.22718   0.00000  Uiso   1.00
O566   O     0.67693   0.45726   0.77282   0.00000  Uiso   1.00
O567   O     0.50000   0.25000   0.75000   0.00000  Uiso   1.00
O568   O     0.82307   0.04275   0.22718   0.00000  Uiso   1.00
O569   O     0.54274   0.17693   0.77282   0.00000  Uiso   1.00
O570   O     0.95725   0.32307   0.22718   0.00000  Uiso   1.00
O571   O     0.82307   0.04275   0.77282   0.00000  Uiso   1.00
O572   O     0.67693   0.45726   0.22718   0.00000  Uiso   1.00
O573   O     0.95725   0.17693   0.22718   0.00000  Uiso   1.00
O574   O     0.54274   0.32307   0.77282   0.00000  Uiso   1.00
O575   O     0.67693   0.04275   0.22718   0.00000  Uiso   1.00
O576   O     0.82307   0.45726   0.77282   0.00000  Uiso   1.00
O577   O     0.54274   0.32307   0.22718   0.00000  Uiso   1.00
O578   O     0.75000   0.46964   0.33683   0.00000  Uiso   1.00
O579   O     0.95725   0.17693   0.77282   0.00000  Uiso   1.00
O580   O     0.82307   0.45726   0.22718   0.00000  Uiso   1.00
O581   O     0.67693   0.04275   0.77282   0.00000  Uiso   1.00
O582   O     0.70881   0.05266   0.02292   0.00000  Uiso   1.00
O583   O     0.79147   0.05241   0.97710   0.00000  Uiso   1.00
O584   O     0.94743   0.20869   0.02292   0.00000  Uiso   1.00
O585   O     0.94737   0.29124   0.97708   0.00000  Uiso   1.00
O586   O     0.79113   0.44726   0.02294   0.00000  Uiso   1.00
O587   O     0.70849   0.44752   0.97706   0.00000  Uiso   1.00
O588   O     0.55260   0.29130   0.02293   0.00000  Uiso   1.00
O589   O     0.75000   0.03036   0.66317   0.00000  Uiso   1.00
O590   O     0.55264   0.20875   0.97707   0.00000  Uiso   1.00
O591   O     0.95874   0.30262   0.52293   0.00000  Uiso   1.00
O592   O     0.54127   0.30262   0.47707   0.00000  Uiso   1.00
O593   O     0.69733   0.45876   0.52294   0.00000  Uiso   1.00
O594   O     0.69737   0.04127   0.47707   0.00000  Uiso   1.00
O595   O     0.54126   0.19738   0.52292   0.00000  Uiso   1.00
O596   O     0.95873   0.19738   0.47708   0.00000  Uiso   1.00
O597   O     0.80262   0.04123   0.52291   0.00000  Uiso   1.00
O598   O     0.80258   0.45871   0.47708   0.00000  Uiso   1.00
O599   O     0.73525   0.07671   0.14144   0.00000  Uiso   1.00
O600   O     0.53036   0.25000   0.33683   0.00000  Uiso   1.00
O601   O     0.70716   0.09826   0.08149   0.00000  Uiso   1.00
O602   O     0.67070   0.05270   0.12401   0.00000  Uiso   1.00
O603   O     0.76541   0.07670   0.85867   0.00000  Uiso   1.00
O604   O     0.79370   0.09803   0.91844   0.00000  Uiso   1.00
O605   O     0.82968   0.05231   0.87568   0.00000  Uiso   1.00
O606   O     0.92331   0.23508   0.14144   0.00000  Uiso   1.00
O607   O     0.90181   0.20696   0.08149   0.00000  Uiso   1.00
O608   O     0.94746   0.17058   0.12399   0.00000  Uiso   1.00
O609   O     0.92330   0.26484   0.85855   0.00000  Uiso   1.00
O610   O     0.90177   0.29294   0.91851   0.00000  Uiso   1.00
O611   O     0.96964   0.25000   0.66317   0.00000  Uiso   1.00
O612   O     0.94738   0.32936   0.87601   0.00000  Uiso   1.00
O613   O     0.76475   0.42328   0.14148   0.00000  Uiso   1.00
O614   O     0.79283   0.40170   0.08154   0.00000  Uiso   1.00
O615   O     0.82929   0.44730   0.12401   0.00000  Uiso   1.00
O616   O     0.73483   0.42336   0.85853   0.00000  Uiso   1.00
O617   O     0.70668   0.40192   0.91849   0.00000  Uiso   1.00
O618   O     0.67040   0.44766   0.87602   0.00000  Uiso   1.00
O619   O     0.57669   0.26492   0.14146   0.00000  Uiso   1.00
O620   O     0.59820   0.29303   0.08150   0.00000  Uiso   1.00
O621   O     0.55255   0.32942   0.12399   0.00000  Uiso   1.00
O622   O     0.75000   0.03036   0.33683   0.00000  Uiso   1.00
O623   O     0.57670   0.23517   0.85854   0.00000  Uiso   1.00
O624   O     0.59824   0.20707   0.91849   0.00000  Uiso   1.00
O625   O     0.55262   0.17064   0.87600   0.00000  Uiso   1.00
O626   O     0.98515   0.32670   0.64145   0.00000  Uiso   1.00
O627   O     0.95704   0.34823   0.58150   0.00000  Uiso   1.00
O628   O     0.92062   0.30260   0.62399   0.00000  Uiso   1.00
O629   O     0.51486   0.32670   0.35854   0.00000  Uiso   1.00
O630   O     0.54296   0.34822   0.41850   0.00000  Uiso   1.00
O631   O     0.57938   0.30260   0.37601   0.00000  Uiso   1.00
O632   O     0.67330   0.48519   0.64147   0.00000  Uiso   1.00
S633   S     0.71182   0.06577   0.10759   0.00000  Uiso   1.00
S634   S     0.53826   0.31573   0.39241   0.00000  Uiso   1.00
S635   S     0.68424   0.46177   0.60761   0.00000  Uiso   1.00
S636   S     0.68427   0.03827   0.39240   0.00000  Uiso   1.00
S637   S     0.53826   0.18427   0.60759   0.00000  Uiso   1.00
S638   S     0.96174   0.18427   0.39241   0.00000  Uiso   1.00
S639   S     0.81575   0.03821   0.60757   0.00000  Uiso   1.00
S640   S     0.81572   0.46172   0.39242   0.00000  Uiso   1.00
S641   S     0.78873   0.06548   0.89248   0.00000  Uiso   1.00
S642   S     0.93430   0.21169   0.10758   0.00000  Uiso   1.00
S643   S     0.93426   0.28825   0.89241   0.00000  Uiso   1.00
S644   S     0.78817   0.43421   0.10762   0.00000  Uiso   1.00
S645   S     0.71147   0.43440   0.89240   0.00000  Uiso   1.00
S646   S     0.56571   0.28831   0.10759   0.00000  Uiso   1.00
S647   S     0.56574   0.21176   0.89240   0.00000  Uiso   1.00
S648   S     0.96174   0.31573   0.60759   0.00000  Uiso   1.00
Zn649  Zn    0.70660   0.00000   0.21760   0.00000  Uiso   1.00
Zn650  Zn    0.54340   0.25000   0.28240   0.00000  Uiso   1.00
Zn651  Zn    0.75000   0.45660   0.71760   0.00000  Uiso   1.00
Zn652  Zn    0.75000   0.04340   0.28240   0.00000  Uiso   1.00
Zn653  Zn    0.54340   0.25000   0.71760   0.00000  Uiso   1.00
Zn654  Zn    0.95660   0.25000   0.28240   0.00000  Uiso   1.00
Zn655  Zn    0.75000   0.04340   0.71760   0.00000  Uiso   1.00
Zn656  Zn    0.75000   0.45660   0.28240   0.00000  Uiso   1.00
Zn657  Zn    0.79340   0.00000   0.78240   0.00000  Uiso   1.00
Zn658  Zn    0.50000   0.20660   0.21760   0.00000  Uiso   1.00
Zn659  Zn    0.50000   0.29340   0.78240   0.00000  Uiso   1.00
Zn660  Zn    0.79340   0.00000   0.21760   0.00000  Uiso   1.00
Zn661  Zn    0.70660   0.00000   0.78240   0.00000  Uiso   1.00
Zn662  Zn    0.50000   0.29340   0.21760   0.00000  Uiso   1.00
Zn663  Zn    0.50000   0.20660   0.78240   0.00000  Uiso   1.00
Zn664  Zn    0.95660   0.25000   0.71760   0.00000  Uiso   1.00
C665   C     0.23012   0.52702   0.04173   0.00000  Uiso   1.00
C666   C     0.01990   0.77702   0.45827   0.00000  Uiso   1.00
C667   C     0.34815   0.90185   0.75000   0.00000  Uiso   1.00
C668   C     0.40186   0.65187   0.25000   0.00000  Uiso   1.00
C669   C     0.09815   0.84815   0.75000   0.00000  Uiso   1.00
C670   C     0.34813   0.90187   0.25000   0.00000  Uiso   1.00
C671   C     0.15185   0.59815   0.75000   0.00000  Uiso   1.00
C672   C     0.09813   0.65187   0.75000   0.00000  Uiso   1.00
C673   C     0.40185   0.84815   0.25000   0.00000  Uiso   1.00
C674   C     0.15186   0.90187   0.75000   0.00000  Uiso   1.00
C675   C     0.34815   0.59815   0.25000   0.00000  Uiso   1.00
C676   C     0.40186   0.84813   0.75000   0.00000  Uiso   1.00
C677   C     0.22295   0.98011   0.54174   0.00000  Uiso   1.00
C678   C     0.09815   0.65185   0.25000   0.00000  Uiso   1.00
C679   C     0.34811   0.59816   0.75003   0.00000  Uiso   1.00
C680   C     0.15185   0.90185   0.25000   0.00000  Uiso   1.00
C681   C     0.25000   0.99999   0.10257   0.00000  Uiso   1.00
C682   C     0.25001   0.99998   0.89744   0.00000  Uiso   1.00
C683   C     0.00000   0.75000   0.10256   0.00000  Uiso   1.00
C684   C     0.00000   0.75000   0.89744   0.00000  Uiso   1.00
C685   C     0.00000   0.75000   0.60256   0.00000  Uiso   1.00
C686   C    -0.00000   0.75000   0.39744   0.00000  Uiso   1.00
C687   C     0.24999   0.50000   0.60256   0.00000  Uiso   1.00
C688   C     0.22297   0.51990   0.45827   0.00000  Uiso   1.00
C689   C     0.24999   0.50000   0.39744   0.00000  Uiso   1.00
C690   C     0.01990   0.72299   0.54173   0.00000  Uiso   1.00
C691   C     0.48010   0.72299   0.45827   0.00000  Uiso   1.00
C692   C     0.27701   0.51988   0.54172   0.00000  Uiso   1.00
C693   C     0.27699   0.98008   0.45827   0.00000  Uiso   1.00
C694   C     0.23212   0.52838   0.08232   0.00000  Uiso   1.00
C695   C     0.26807   0.52824   0.91770   0.00000  Uiso   1.00
C696   C     0.47165   0.73207   0.08232   0.00000  Uiso   1.00
C697   C     0.27001   0.52689   0.95829   0.00000  Uiso   1.00
C698   C     0.47163   0.76790   0.91768   0.00000  Uiso   1.00
C699   C     0.26785   0.97158   0.08233   0.00000  Uiso   1.00
C700   C     0.23196   0.97169   0.91767   0.00000  Uiso   1.00
C701   C     0.02836   0.76793   0.08232   0.00000  Uiso   1.00
C702   C     0.02838   0.73210   0.91767   0.00000  Uiso   1.00
C703   C     0.48209   0.77837   0.58232   0.00000  Uiso   1.00
C704   C     0.01791   0.77837   0.41768   0.00000  Uiso   1.00
C705   C     0.22161   0.98210   0.58233   0.00000  Uiso   1.00
C706   C     0.22162   0.51791   0.41767   0.00000  Uiso   1.00
C707   C     0.01791   0.72163   0.58232   0.00000  Uiso   1.00
C708   C     0.47301   0.73007   0.04173   0.00000  Uiso   1.00
C709   C     0.48209   0.72163   0.41768   0.00000  Uiso   1.00
C710   C     0.27837   0.51789   0.58231   0.00000  Uiso   1.00
C711   C     0.27835   0.98208   0.41768   0.00000  Uiso   1.00
C712   C     0.24997   0.99996   0.02139   0.00000  Uiso   1.00
C713   C     0.24998   0.99996   0.97862   0.00000  Uiso   1.00
C714   C     0.00001   0.75000   0.02138   0.00000  Uiso   1.00
C715   C     0.00001   0.75000   0.97861   0.00000  Uiso   1.00
C716   C     0.00000   0.75000   0.52138   0.00000  Uiso   1.00
C717   C     0.00000   0.75000   0.47861   0.00000  Uiso   1.00
C718   C     0.24998   0.50000   0.52139   0.00000  Uiso   1.00
C719   C     0.47298   0.76989   0.95827   0.00000  Uiso   1.00
C720   C     0.24997   0.99999   0.47862   0.00000  Uiso   1.00
C721   C     0.25000   0.50000   0.35508   0.00000  Uiso   1.00
C722   C     0.25000   0.50000   0.64492   0.00000  Uiso   1.00
C723   C    -0.00000   0.75000   0.35508   0.00000  Uiso   1.00
C724   C     0.00000   0.75000   0.64492   0.00000  Uiso   1.00
C725   C     0.00000   0.75000   0.85508   0.00000  Uiso   1.00
C726   C     0.00000   0.75000   0.14492   0.00000  Uiso   1.00
C727   C     0.25000   0.50001   0.85509   0.00000  Uiso   1.00
C728   C     0.25000   0.50000   0.14492   0.00000  Uiso   1.00
C729   C     0.17992   0.57008   0.25000   0.00000  Uiso   1.00
C730   C     0.26983   0.97291   0.04174   0.00000  Uiso   1.00
C731   C     0.32008   0.92992   0.75000   0.00000  Uiso   1.00
C732   C     0.42992   0.67992   0.25000   0.00000  Uiso   1.00
C733   C     0.07008   0.82008   0.75000   0.00000  Uiso   1.00
C734   C     0.32008   0.92992   0.25000   0.00000  Uiso   1.00
C735   C     0.17992   0.57008   0.75000   0.00000  Uiso   1.00
C736   C     0.07008   0.82008   0.25000   0.00000  Uiso   1.00
C737   C     0.42992   0.67992   0.75000   0.00000  Uiso   1.00
C738   C     0.17992   0.92992   0.75000   0.00000  Uiso   1.00
C739   C     0.32008   0.57008   0.25000   0.00000  Uiso   1.00
C740   C     0.42992   0.82008   0.75000   0.00000  Uiso   1.00
C741   C     0.22997   0.97304   0.95827   0.00000  Uiso   1.00
C742   C     0.07008   0.67992   0.25000   0.00000  Uiso   1.00
C743   C     0.32007   0.57008   0.75001   0.00000  Uiso   1.00
C744   C     0.17992   0.92992   0.25000   0.00000  Uiso   1.00
C745   C     0.07008   0.67992   0.75000   0.00000  Uiso   1.00
C746   C     0.42992   0.82008   0.25000   0.00000  Uiso   1.00
C747   C     0.12203   0.90467   0.22475   0.00000  Uiso   1.00
C748   C     0.37765   0.59561   0.77568   0.00000  Uiso   1.00
C749   C     0.09533   0.62204   0.22475   0.00000  Uiso   1.00
C750   C     0.40469   0.87795   0.77525   0.00000  Uiso   1.00
C751   C     0.37797   0.59533   0.22475   0.00000  Uiso   1.00
C752   C     0.02701   0.76992   0.04173   0.00000  Uiso   1.00
C753   C     0.12205   0.90469   0.77524   0.00000  Uiso   1.00
C754   C     0.40467   0.87796   0.22475   0.00000  Uiso   1.00
C755   C     0.09531   0.62205   0.77524   0.00000  Uiso   1.00
C756   C     0.12203   0.59533   0.77525   0.00000  Uiso   1.00
C757   C     0.37795   0.90469   0.22475   0.00000  Uiso   1.00
C758   C     0.09533   0.87797   0.77525   0.00000  Uiso   1.00
C759   C     0.40469   0.62205   0.22476   0.00000  Uiso   1.00
C760   C     0.37796   0.90467   0.77525   0.00000  Uiso   1.00
C761   C     0.12205   0.59531   0.22475   0.00000  Uiso   1.00
C762   C     0.40439   0.62232   0.77566   0.00000  Uiso   1.00
C763   C     0.02703   0.73010   0.95827   0.00000  Uiso   1.00
C764   C     0.09531   0.87795   0.22476   0.00000  Uiso   1.00
C765   C     0.37228   0.65443   0.72440   0.00000  Uiso   1.00
C766   C     0.12795   0.84531   0.27525   0.00000  Uiso   1.00
C767   C     0.34533   0.87204   0.72475   0.00000  Uiso   1.00
C768   C     0.15469   0.62795   0.27525   0.00000  Uiso   1.00
C769   C     0.12797   0.84533   0.72475   0.00000  Uiso   1.00
C770   C     0.37205   0.65469   0.27524   0.00000  Uiso   1.00
C771   C     0.15467   0.62797   0.72475   0.00000  Uiso   1.00
C772   C     0.34531   0.87205   0.27525   0.00000  Uiso   1.00
C773   C     0.37204   0.84533   0.27525   0.00000  Uiso   1.00
C774   C     0.48010   0.77702   0.54173   0.00000  Uiso   1.00
C775   C     0.12795   0.65469   0.72475   0.00000  Uiso   1.00
C776   C     0.34533   0.62797   0.27525   0.00000  Uiso   1.00
C777   C     0.15469   0.87205   0.72476   0.00000  Uiso   1.00
C778   C     0.12796   0.65467   0.27525   0.00000  Uiso   1.00
C779   C     0.37205   0.84531   0.72475   0.00000  Uiso   1.00
C780   C     0.15467   0.87204   0.27525   0.00000  Uiso   1.00
C781   C     0.34555   0.62772   0.72441   0.00000  Uiso   1.00
C782   C     0.09813   0.84813   0.25000   0.00000  Uiso   1.00
C783   C     0.40184   0.65186   0.75002   0.00000  Uiso   1.00
C784   C     0.15187   0.59814   0.25000   0.00000  Uiso   1.00
H785   H     0.11932   0.92746   0.20499   0.00000  Uiso   1.00
H786   H     0.38067   0.92749   0.20501   0.00000  Uiso   1.00
H787   H     0.07253   0.88068   0.79500   0.00000  Uiso   1.00
H788   H     0.42750   0.61932   0.20502   0.00000  Uiso   1.00
H789   H     0.38068   0.92746   0.79501   0.00000  Uiso   1.00
H790   H     0.11932   0.57251   0.20501   0.00000  Uiso   1.00
H791   H     0.42696   0.61982   0.79573   0.00000  Uiso   1.00
H792   H     0.07250   0.88068   0.20502   0.00000  Uiso   1.00
H793   H     0.36978   0.67701   0.70434   0.00000  Uiso   1.00
H794   H     0.13068   0.82251   0.29498   0.00000  Uiso   1.00
H795   H     0.32254   0.86932   0.70499   0.00000  Uiso   1.00
H796   H     0.38013   0.57304   0.79577   0.00000  Uiso   1.00
H797   H     0.17749   0.63068   0.29498   0.00000  Uiso   1.00
H798   H     0.13068   0.82253   0.70499   0.00000  Uiso   1.00
H799   H     0.36932   0.67750   0.29498   0.00000  Uiso   1.00
H800   H     0.17746   0.63068   0.70499   0.00000  Uiso   1.00
H801   H     0.32251   0.86932   0.29499   0.00000  Uiso   1.00
H802   H     0.36932   0.82254   0.29501   0.00000  Uiso   1.00
H803   H     0.13068   0.67750   0.70502   0.00000  Uiso   1.00
H804   H     0.32253   0.63068   0.29500   0.00000  Uiso   1.00
H805   H     0.17750   0.86932   0.70502   0.00000  Uiso   1.00
H806   H     0.13068   0.67746   0.29501   0.00000  Uiso   1.00
H807   H     0.07254   0.61932   0.20499   0.00000  Uiso   1.00
H808   H     0.36932   0.82251   0.70501   0.00000  Uiso   1.00
H809   H     0.17746   0.86932   0.29501   0.00000  Uiso   1.00
H810   H     0.32295   0.63023   0.70437   0.00000  Uiso   1.00
H811   H     0.20408   0.54519   0.99584   0.00000  Uiso   1.00
H812   H     0.29610   0.54496   0.00421   0.00000  Uiso   1.00
H813   H     0.45492   0.70396   0.99584   0.00000  Uiso   1.00
H814   H     0.45486   0.79597   0.00416   0.00000  Uiso   1.00
H815   H     0.29583   0.95470   0.99583   0.00000  Uiso   1.00
H816   H     0.20382   0.95500   0.00415   0.00000  Uiso   1.00
H817   H     0.04513   0.79600   0.99584   0.00000  Uiso   1.00
H818   H     0.42749   0.88068   0.79499   0.00000  Uiso   1.00
H819   H     0.04517   0.70403   0.00415   0.00000  Uiso   1.00
H820   H     0.45400   0.79513   0.49585   0.00000  Uiso   1.00
H821   H     0.04600   0.79513   0.50415   0.00000  Uiso   1.00
H822   H     0.20481   0.95403   0.49586   0.00000  Uiso   1.00
H823   H     0.20485   0.54600   0.50415   0.00000  Uiso   1.00
H824   H     0.04600   0.70488   0.49585   0.00000  Uiso   1.00
H825   H     0.45400   0.70487   0.50415   0.00000  Uiso   1.00
H826   H     0.29511   0.54598   0.49584   0.00000  Uiso   1.00
H827   H     0.29508   0.95397   0.50416   0.00000  Uiso   1.00
H828   H     0.16249   0.57286   0.14101   0.00000  Uiso   1.00
H829   H     0.38068   0.57253   0.20500   0.00000  Uiso   1.00
H830   H     0.34344   0.54465   0.89903   0.00000  Uiso   1.00
H831   H     0.42726   0.66228   0.14090   0.00000  Uiso   1.00
H832   H     0.42722   0.83760   0.85902   0.00000  Uiso   1.00
H833   H     0.33752   0.92714   0.14100   0.00000  Uiso   1.00
H834   H     0.16193   0.92739   0.85931   0.00000  Uiso   1.00
H835   H     0.07272   0.83771   0.14092   0.00000  Uiso   1.00
H836   H     0.07278   0.66240   0.85901   0.00000  Uiso   1.00
H837   H     0.41238   0.82276   0.64097   0.00000  Uiso   1.00
H838   H     0.08765   0.82279   0.35907   0.00000  Uiso   1.00
H839   H     0.17719   0.91241   0.64099   0.00000  Uiso   1.00
H840   H     0.11932   0.92750   0.79498   0.00000  Uiso   1.00
H841   H     0.17724   0.58764   0.35903   0.00000  Uiso   1.00
H842   H     0.08762   0.67724   0.64098   0.00000  Uiso   1.00
H843   H     0.41239   0.67725   0.35900   0.00000  Uiso   1.00
H844   H     0.32293   0.58769   0.64072   0.00000  Uiso   1.00
H845   H     0.32275   0.91236   0.35904   0.00000  Uiso   1.00
H846   H     0.42746   0.88068   0.20499   0.00000  Uiso   1.00
H847   H     0.07250   0.61932   0.79498   0.00000  Uiso   1.00
H848   H     0.11932   0.57253   0.79500   0.00000  Uiso   1.00
O849   O     0.25000   0.50000   0.25000   0.00000  Uiso   1.00
O850   O     0.25000   0.96964   0.66317   0.00000  Uiso   1.00
O851   O     0.15174   0.95709   0.58152   0.00000  Uiso   1.00
O852   O     0.19735   0.92065   0.62401   0.00000  Uiso   1.00
O853   O     0.17331   0.51487   0.35853   0.00000  Uiso   1.00
O854   O     0.15177   0.54296   0.41849   0.00000  Uiso   1.00
O855   O     0.19740   0.57938   0.37601   0.00000  Uiso   1.00
O856   O     0.01485   0.67330   0.64145   0.00000  Uiso   1.00
O857   O     0.04296   0.65178   0.58150   0.00000  Uiso   1.00
O858   O     0.07937   0.69740   0.62399   0.00000  Uiso   1.00
O859   O     0.48514   0.67331   0.35855   0.00000  Uiso   1.00
O860   O     0.45704   0.65178   0.41850   0.00000  Uiso   1.00
O861   O     0.46964   0.75000   0.33683   0.00000  Uiso   1.00
O862   O     0.42062   0.69740   0.37601   0.00000  Uiso   1.00
O863   O     0.32669   0.51483   0.64146   0.00000  Uiso   1.00
O864   O     0.34825   0.54285   0.58147   0.00000  Uiso   1.00
O865   O     0.30267   0.57936   0.62392   0.00000  Uiso   1.00
O866   O     0.32669   0.98513   0.35856   0.00000  Uiso   1.00
O867   O     0.34820   0.95702   0.41852   0.00000  Uiso   1.00
O868   O     0.30259   0.92061   0.37602   0.00000  Uiso   1.00
O869   O     0.03036   0.75000   0.66317   0.00000  Uiso   1.00
O870   O     0.00000   0.71964   0.83683   0.00000  Uiso   1.00
O871   O     0.00000   0.78036   0.16317   0.00000  Uiso   1.00
O872   O     0.28036   0.50000   0.83683   0.00000  Uiso   1.00
O873   O     0.21964   0.50000   0.16317   0.00000  Uiso   1.00
O874   O    -0.00000   0.78036   0.83683   0.00000  Uiso   1.00
O875   O     0.00000   0.71964   0.16317   0.00000  Uiso   1.00
O876   O     0.21964   0.50000   0.83683   0.00000  Uiso   1.00
O877   O     0.25000   0.50000   0.75000   0.00000  Uiso   1.00
O878   O     0.28036   0.50000   0.16317   0.00000  Uiso   1.00
O879   O     0.20725   0.57307   0.27282   0.00000  Uiso   1.00
O880   O     0.29274   0.92693   0.72718   0.00000  Uiso   1.00
O881   O     0.42693   0.70726   0.27282   0.00000  Uiso   1.00
O882   O     0.07307   0.79274   0.72718   0.00000  Uiso   1.00
O883   O     0.29274   0.92693   0.27282   0.00000  Uiso   1.00
O884   O     0.20725   0.57307   0.72718   0.00000  Uiso   1.00
O885   O     0.07307   0.79274   0.27282   0.00000  Uiso   1.00
O886   O     0.42693   0.70726   0.72718   0.00000  Uiso   1.00
O887   O     0.20725   0.92693   0.72718   0.00000  Uiso   1.00
O888   O     0.00000   0.75000   0.25000   0.00000  Uiso   1.00
O889   O     0.29274   0.57307   0.27282   0.00000  Uiso   1.00
O890   O     0.42693   0.79275   0.72718   0.00000  Uiso   1.00
O891   O     0.07307   0.70726   0.27282   0.00000  Uiso   1.00
O892   O     0.29274   0.57307   0.72718   0.00000  Uiso   1.00
O893   O     0.20725   0.92693   0.27282   0.00000  Uiso   1.00
O894   O     0.07307   0.70726   0.72718   0.00000  Uiso   1.00
O895   O     0.42693   0.79275   0.27282   0.00000  Uiso   1.00
O896   O     0.45725   0.82307   0.77282   0.00000  Uiso   1.00
O897   O     0.04274   0.67693   0.22718   0.00000  Uiso   1.00
O898   O     0.17693   0.95726   0.77282   0.00000  Uiso   1.00
O899   O     0.00000   0.75000   0.75000   0.00000  Uiso   1.00
O900   O     0.32307   0.54275   0.22718   0.00000  Uiso   1.00
O901   O     0.04274   0.67693   0.77282   0.00000  Uiso   1.00
O902   O     0.45725   0.82307   0.22718   0.00000  Uiso   1.00
O903   O     0.32307   0.54275   0.77282   0.00000  Uiso   1.00
O904   O     0.17693   0.95726   0.22718   0.00000  Uiso   1.00
O905   O     0.45725   0.67693   0.22718   0.00000  Uiso   1.00
O906   O     0.04274   0.82307   0.77282   0.00000  Uiso   1.00
O907   O     0.17693   0.54275   0.22718   0.00000  Uiso   1.00
O908   O     0.32307   0.95726   0.77282   0.00000  Uiso   1.00
O909   O     0.04274   0.82307   0.22718   0.00000  Uiso   1.00
O910   O     0.25000   0.96964   0.33683   0.00000  Uiso   1.00
O911   O     0.45725   0.67693   0.77282   0.00000  Uiso   1.00
O912   O     0.32307   0.95726   0.22718   0.00000  Uiso   1.00
O913   O     0.17693   0.54275   0.77282   0.00000  Uiso   1.00
O914   O     0.20881   0.55266   0.02292   0.00000  Uiso   1.00
O915   O     0.29147   0.55241   0.97710   0.00000  Uiso   1.00
O916   O     0.44743   0.70869   0.02292   0.00000  Uiso   1.00
O917   O     0.44737   0.79124   0.97708   0.00000  Uiso   1.00
O918   O     0.29113   0.94726   0.02294   0.00000  Uiso   1.00
O919   O     0.20849   0.94752   0.97706   0.00000  Uiso   1.00
O920   O     0.05260   0.79130   0.02293   0.00000  Uiso   1.00
O921   O     0.25000   0.53036   0.66317   0.00000  Uiso   1.00
O922   O     0.05264   0.70875   0.97707   0.00000  Uiso   1.00
O923   O     0.45874   0.80262   0.52293   0.00000  Uiso   1.00
O924   O     0.04127   0.80262   0.47707   0.00000  Uiso   1.00
O925   O     0.19733   0.95876   0.52294   0.00000  Uiso   1.00
O926   O     0.19737   0.54127   0.47707   0.00000  Uiso   1.00
O927   O     0.04126   0.69738   0.52292   0.00000  Uiso   1.00
O928   O     0.45873   0.69738   0.47708   0.00000  Uiso   1.00
O929   O     0.30262   0.54123   0.52291   0.00000  Uiso   1.00
O930   O     0.30258   0.95871   0.47708   0.00000  Uiso   1.00
O931   O     0.23525   0.57671   0.14144   0.00000  Uiso   1.00
O932   O     0.03036   0.75000   0.33683   0.00000  Uiso   1.00
O933   O     0.20716   0.59826   0.08149   0.00000  Uiso   1.00
O934   O     0.17070   0.55270   0.12401   0.00000  Uiso   1.00
O935   O     0.26541   0.57670   0.85867   0.00000  Uiso   1.00
O936   O     0.29370   0.59803   0.91844   0.00000  Uiso   1.00
O937   O     0.32968   0.55231   0.87568   0.00000  Uiso   1.00
O938   O     0.42331   0.73508   0.14144   0.00000  Uiso   1.00
O939   O     0.40181   0.70696   0.08149   0.00000  Uiso   1.00
O940   O     0.44746   0.67058   0.12399   0.00000  Uiso   1.00
O941   O     0.42330   0.76484   0.85855   0.00000  Uiso   1.00
O942   O     0.40177   0.79294   0.91851   0.00000  Uiso   1.00
O943   O     0.46964   0.75000   0.66317   0.00000  Uiso   1.00
O944   O     0.44738   0.82936   0.87601   0.00000  Uiso   1.00
O945   O     0.26475   0.92328   0.14148   0.00000  Uiso   1.00
O946   O     0.29283   0.90170   0.08154   0.00000  Uiso   1.00
O947   O     0.32929   0.94730   0.12401   0.00000  Uiso   1.00
O948   O     0.23483   0.92336   0.85853   0.00000  Uiso   1.00
O949   O     0.20668   0.90192   0.91849   0.00000  Uiso   1.00
O950   O     0.17040   0.94766   0.87602   0.00000  Uiso   1.00
O951   O     0.07669   0.76492   0.14146   0.00000  Uiso   1.00
O952   O     0.09820   0.79303   0.08150   0.00000  Uiso   1.00
O953   O     0.05255   0.82942   0.12399   0.00000  Uiso   1.00
O954   O     0.25000   0.53036   0.33683   0.00000  Uiso   1.00
O955   O     0.07670   0.73517   0.85854   0.00000  Uiso   1.00
O956   O     0.09824   0.70707   0.91849   0.00000  Uiso   1.00
O957   O     0.05262   0.67064   0.87600   0.00000  Uiso   1.00
O958   O     0.48515   0.82670   0.64145   0.00000  Uiso   1.00
O959   O     0.45704   0.84823   0.58150   0.00000  Uiso   1.00
O960   O     0.42062   0.80260   0.62399   0.00000  Uiso   1.00
O961   O     0.01486   0.82670   0.35854   0.00000  Uiso   1.00
O962   O     0.04296   0.84822   0.41850   0.00000  Uiso   1.00
O963   O     0.07938   0.80260   0.37601   0.00000  Uiso   1.00
O964   O     0.17330   0.98519   0.64147   0.00000  Uiso   1.00
S965   S     0.21182   0.56577   0.10759   0.00000  Uiso   1.00
S966   S     0.03826   0.81573   0.39241   0.00000  Uiso   1.00
S967   S     0.18424   0.96177   0.60761   0.00000  Uiso   1.00
S968   S     0.18427   0.53827   0.39240   0.00000  Uiso   1.00
S969   S     0.03826   0.68427   0.60759   0.00000  Uiso   1.00
S970   S     0.46174   0.68427   0.39241   0.00000  Uiso   1.00
S971   S     0.31575   0.53821   0.60757   0.00000  Uiso   1.00
S972   S     0.31572   0.96172   0.39242   0.00000  Uiso   1.00
S973   S     0.28873   0.56548   0.89248   0.00000  Uiso   1.00
S974   S     0.43430   0.71169   0.10758   0.00000  Uiso   1.00
S975   S     0.43426   0.78825   0.89241   0.00000  Uiso   1.00
S976   S     0.28817   0.93421   0.10762   0.00000  Uiso   1.00
S977   S     0.21147   0.93440   0.89240   0.00000  Uiso   1.00
S978   S     0.06571   0.78831   0.10759   0.00000  Uiso   1.00
S979   S     0.06574   0.71176   0.89240   0.00000  Uiso   1.00
S980   S     0.46174   0.81573   0.60759   0.00000  Uiso   1.00
Zn981  Zn    0.20660   0.50000   0.21760   0.00000  Uiso   1.00
Zn982  Zn    0.04340   0.75000   0.28240   0.00000  Uiso   1.00
Zn983  Zn    0.25000   0.95660   0.71760   0.00000  Uiso   1.00
Zn984  Zn    0.25000   0.54340   0.28240   0.00000  Uiso   1.00
Zn985  Zn    0.04340   0.75000   0.71760   0.00000  Uiso   1.00
Zn986  Zn    0.45660   0.75000   0.28240   0.00000  Uiso   1.00
Zn987  Zn    0.25000   0.54340   0.71760   0.00000  Uiso   1.00
Zn988  Zn    0.25000   0.95660   0.28240   0.00000  Uiso   1.00
Zn989  Zn    0.29340   0.50000   0.78240   0.00000  Uiso   1.00
Zn990  Zn    0.00000   0.70660   0.21760   0.00000  Uiso   1.00
Zn991  Zn    0.00000   0.79340   0.78240   0.00000  Uiso   1.00
Zn992  Zn    0.29340   0.50000   0.21760   0.00000  Uiso   1.00
Zn993  Zn    0.20660   0.50000   0.78240   0.00000  Uiso   1.00
Zn994  Zn    0.00000   0.79340   0.21760   0.00000  Uiso   1.00
Zn995  Zn    0.00000   0.70660   0.78240   0.00000  Uiso   1.00
Zn996  Zn    0.45660   0.75000   0.71760   0.00000  Uiso   1.00
C997   C     0.73012   0.52702   0.04173   0.00000  Uiso   1.00
C998   C     0.51990   0.77702   0.45827   0.00000  Uiso   1.00
C999   C     0.84815   0.90185   0.75000   0.00000  Uiso   1.00
C1000  C     0.90186   0.65187   0.25000   0.00000  Uiso   1.00
C1001  C     0.59815   0.84815   0.75000   0.00000  Uiso   1.00
C1002  C     0.84813   0.90187   0.25000   0.00000  Uiso   1.00
C1003  C     0.65185   0.59815   0.75000   0.00000  Uiso   1.00
C1004  C     0.59813   0.65187   0.75000   0.00000  Uiso   1.00
C1005  C     0.90185   0.84815   0.25000   0.00000  Uiso   1.00
C1006  C     0.65186   0.90187   0.75000   0.00000  Uiso   1.00
C1007  C     0.84815   0.59815   0.25000   0.00000  Uiso   1.00
C1008  C     0.90186   0.84813   0.75000   0.00000  Uiso   1.00
C1009  C     0.72295   0.98011   0.54174   0.00000  Uiso   1.00
C1010  C     0.59815   0.65185   0.25000   0.00000  Uiso   1.00
C1011  C     0.84811   0.59816   0.75003   0.00000  Uiso   1.00
C1012  C     0.65185   0.90185   0.25000   0.00000  Uiso   1.00
C1013  C     0.75000   0.99999   0.10257   0.00000  Uiso   1.00
C1014  C     0.75001   0.99998   0.89744   0.00000  Uiso   1.00
C1015  C     0.50000   0.75000   0.10256   0.00000  Uiso   1.00
C1016  C     0.50000   0.75000   0.89744   0.00000  Uiso   1.00
C1017  C     0.50000   0.75000   0.60256   0.00000  Uiso   1.00
C1018  C     0.50000   0.75000   0.39744   0.00000  Uiso   1.00
C1019  C     0.74999   0.50000   0.60256   0.00000  Uiso   1.00
C1020  C     0.72297   0.51990   0.45827   0.00000  Uiso   1.00
C1021  C     0.74999   0.50000   0.39744   0.00000  Uiso   1.00
C1022  C     0.51990   0.72299   0.54173   0.00000  Uiso   1.00
C1023  C     0.98010   0.72299   0.45827   0.00000  Uiso   1.00
C1024  C     0.77701   0.51988   0.54172   0.00000  Uiso   1.00
C1025  C     0.77699   0.98008   0.45827   0.00000  Uiso   1.00
C1026  C     0.73212   0.52838   0.08232   0.00000  Uiso   1.00
C1027  C     0.76807   0.52824   0.91770   0.00000  Uiso   1.00
C1028  C     0.97165   0.73207   0.08232   0.00000  Uiso   1.00
C1029  C     0.77001   0.52689   0.95829   0.00000  Uiso   1.00
C1030  C     0.97163   0.76790   0.91768   0.00000  Uiso   1.00
C1031  C     0.76785   0.97158   0.08233   0.00000  Uiso   1.00
C1032  C     0.73196   0.97169   0.91767   0.00000  Uiso   1.00
C1033  C     0.52836   0.76793   0.08232   0.00000  Uiso   1.00
C1034  C     0.52838   0.73210   0.91767   0.00000  Uiso   1.00
C1035  C     0.98209   0.77837   0.58232   0.00000  Uiso   1.00
C1036  C     0.51791   0.77837   0.41768   0.00000  Uiso   1.00
C1037  C     0.72161   0.98210   0.58233   0.00000  Uiso   1.00
C1038  C     0.72162   0.51791   0.41767   0.00000  Uiso   1.00
C1039  C     0.51791   0.72163   0.58232   0.00000  Uiso   1.00
C1040  C     0.97301   0.73007   0.04173   0.00000  Uiso   1.00
C1041  C     0.98209   0.72163   0.41768   0.00000  Uiso   1.00
C1042  C     0.77837   0.51789   0.58231   0.00000  Uiso   1.00
C1043  C     0.77835   0.98208   0.41768   0.00000  Uiso   1.00
C1044  C     0.74997   0.99996   0.02139   0.00000  Uiso   1.00
C1045  C     0.74998   0.99996   0.97862   0.00000  Uiso   1.00
C1046  C     0.50001   0.75000   0.02138   0.00000  Uiso   1.00
C1047  C     0.50001   0.75000   0.97861   0.00000  Uiso   1.00
C1048  C     0.50000   0.75000   0.52138   0.00000  Uiso   1.00
C1049  C     0.50000   0.75000   0.47861   0.00000  Uiso   1.00
C1050  C     0.74998   0.50000   0.52139   0.00000  Uiso   1.00
C1051  C     0.97298   0.76989   0.95827   0.00000  Uiso   1.00
C1052  C     0.74997   0.99999   0.47862   0.00000  Uiso   1.00
C1053  C     0.75000   0.50000   0.35508   0.00000  Uiso   1.00
C1054  C     0.75000   0.50000   0.64492   0.00000  Uiso   1.00
C1055  C     0.50000   0.75000   0.35508   0.00000  Uiso   1.00
C1056  C     0.50000   0.75000   0.64492   0.00000  Uiso   1.00
C1057  C     0.50000   0.75000   0.85508   0.00000  Uiso   1.00
C1058  C     0.50000   0.75000   0.14492   0.00000  Uiso   1.00
C1059  C     0.75000   0.50001   0.85509   0.00000  Uiso   1.00
C1060  C     0.75000   0.50000   0.14492   0.00000  Uiso   1.00
C1061  C     0.67992   0.57008   0.25000   0.00000  Uiso   1.00
C1062  C     0.76983   0.97291   0.04174   0.00000  Uiso   1.00
C1063  C     0.82008   0.92992   0.75000   0.00000  Uiso   1.00
C1064  C     0.92992   0.67992   0.25000   0.00000  Uiso   1.00
C1065  C     0.57008   0.82008   0.75000   0.00000  Uiso   1.00
C1066  C     0.82008   0.92992   0.25000   0.00000  Uiso   1.00
C1067  C     0.67992   0.57008   0.75000   0.00000  Uiso   1.00
C1068  C     0.57008   0.82008   0.25000   0.00000  Uiso   1.00
C1069  C     0.92992   0.67992   0.75000   0.00000  Uiso   1.00
C1070  C     0.67992   0.92992   0.75000   0.00000  Uiso   1.00
C1071  C     0.82008   0.57008   0.25000   0.00000  Uiso   1.00
C1072  C     0.92992   0.82008   0.75000   0.00000  Uiso   1.00
C1073  C     0.72997   0.97304   0.95827   0.00000  Uiso   1.00
C1074  C     0.57008   0.67992   0.25000   0.00000  Uiso   1.00
C1075  C     0.82007   0.57008   0.75001   0.00000  Uiso   1.00
C1076  C     0.67992   0.92992   0.25000   0.00000  Uiso   1.00
C1077  C     0.57008   0.67992   0.75000   0.00000  Uiso   1.00
C1078  C     0.92992   0.82008   0.25000   0.00000  Uiso   1.00
C1079  C     0.62203   0.90467   0.22475   0.00000  Uiso   1.00
C1080  C     0.87765   0.59561   0.77568   0.00000  Uiso   1.00
C1081  C     0.59533   0.62204   0.22475   0.00000  Uiso   1.00
C1082  C     0.90469   0.87795   0.77525   0.00000  Uiso   1.00
C1083  C     0.87797   0.59533   0.22475   0.00000  Uiso   1.00
C1084  C     0.52701   0.76992   0.04173   0.00000  Uiso   1.00
C1085  C     0.62205   0.90469   0.77524   0.00000  Uiso   1.00
C1086  C     0.90467   0.87796   0.22475   0.00000  Uiso   1.00
C1087  C     0.59531   0.62205   0.77524   0.00000  Uiso   1.00
C1088  C     0.62203   0.59533   0.77525   0.00000  Uiso   1.00
C1089  C     0.87795   0.90469   0.22475   0.00000  Uiso   1.00
C1090  C     0.59533   0.87797   0.77525   0.00000  Uiso   1.00
C1091  C     0.90469   0.62205   0.22476   0.00000  Uiso   1.00
C1092  C     0.87796   0.90467   0.77525   0.00000  Uiso   1.00
C1093  C     0.62205   0.59531   0.22475   0.00000  Uiso   1.00
C1094  C     0.90439   0.62232   0.77566   0.00000  Uiso   1.00
C1095  C     0.52703   0.73010   0.95827   0.00000  Uiso   1.00
C1096  C     0.59531   0.87795   0.22476   0.00000  Uiso   1.00
C1097  C     0.87228   0.65443   0.72440   0.00000  Uiso   1.00
C1098  C     0.62795   0.84531   0.27525   0.00000  Uiso   1.00
C1099  C     0.84533   0.87204   0.72475   0.00000  Uiso   1.00
C1100  C     0.65469   0.62795   0.27525   0.00000  Uiso   1.00
C1101  C     0.62797   0.84533   0.72475   0.00000  Uiso   1.00
C1102  C     0.87205   0.65469   0.27524   0.00000  Uiso   1.00
C1103  C     0.65467   0.62797   0.72475   0.00000  Uiso   1.00
C1104  C     0.84531   0.87205   0.27525   0.00000  Uiso   1.00
C1105  C     0.87204   0.84533   0.27525   0.00000  Uiso   1.00
C1106  C     0.98010   0.77702   0.54173   0.00000  Uiso   1.00
C1107  C     0.62795   0.65469   0.72475   0.00000  Uiso   1.00
C1108  C     0.84533   0.62797   0.27525   0.00000  Uiso   1.00
C1109  C     0.65469   0.87205   0.72476   0.00000  Uiso   1.00
C1110  C     0.62796   0.65467   0.27525   0.00000  Uiso   1.00
C1111  C     0.87205   0.84531   0.72475   0.00000  Uiso   1.00
C1112  C     0.65467   0.87204   0.27525   0.00000  Uiso   1.00
C1113  C     0.84555   0.62772   0.72441   0.00000  Uiso   1.00
C1114  C     0.59813   0.84813   0.25000   0.00000  Uiso   1.00
C1115  C     0.90184   0.65186   0.75002   0.00000  Uiso   1.00
C1116  C     0.65187   0.59814   0.25000   0.00000  Uiso   1.00
H1117  H     0.61932   0.92746   0.20499   0.00000  Uiso   1.00
H1118  H     0.88067   0.92749   0.20501   0.00000  Uiso   1.00
H1119  H     0.57253   0.88068   0.79500   0.00000  Uiso   1.00
H1120  H     0.92750   0.61932   0.20502   0.00000  Uiso   1.00
H1121  H     0.88068   0.92746   0.79501   0.00000  Uiso   1.00
H1122  H     0.61932   0.57251   0.20501   0.00000  Uiso   1.00
H1123  H     0.92696   0.61982   0.79573   0.00000  Uiso   1.00
H1124  H     0.57250   0.88068   0.20502   0.00000  Uiso   1.00
H1125  H     0.86978   0.67701   0.70434   0.00000  Uiso   1.00
H1126  H     0.63068   0.82251   0.29498   0.00000  Uiso   1.00
H1127  H     0.82254   0.86932   0.70499   0.00000  Uiso   1.00
H1128  H     0.88013   0.57304   0.79577   0.00000  Uiso   1.00
H1129  H     0.67749   0.63068   0.29498   0.00000  Uiso   1.00
H1130  H     0.63068   0.82253   0.70499   0.00000  Uiso   1.00
H1131  H     0.86932   0.67750   0.29498   0.00000  Uiso   1.00
H1132  H     0.67746   0.63068   0.70499   0.00000  Uiso   1.00
H1133  H     0.82251   0.86932   0.29499   0.00000  Uiso   1.00
H1134  H     0.86932   0.82254   0.29501   0.00000  Uiso   1.00
H1135  H     0.63068   0.67750   0.70502   0.00000  Uiso   1.00
H1136  H     0.82253   0.63068   0.29500   0.00000  Uiso   1.00
H1137  H     0.67750   0.86932   0.70502   0.00000  Uiso   1.00
H1138  H     0.63068   0.67746   0.29501   0.00000  Uiso   1.00
H1139  H     0.57254   0.61932   0.20499   0.00000  Uiso   1.00
H1140  H     0.86932   0.82251   0.70501   0.00000  Uiso   1.00
H1141  H     0.67746   0.86932   0.29501   0.00000  Uiso   1.00
H1142  H     0.82295   0.63023   0.70437   0.00000  Uiso   1.00
H1143  H     0.70408   0.54519   0.99584   0.00000  Uiso   1.00
H1144  H     0.79610   0.54496   0.00421   0.00000  Uiso   1.00
H1145  H     0.95492   0.70396   0.99584   0.00000  Uiso   1.00
H1146  H     0.95486   0.79597   0.00416   0.00000  Uiso   1.00
H1147  H     0.79583   0.95470   0.99583   0.00000  Uiso   1.00
H1148  H     0.70382   0.95500   0.00415   0.00000  Uiso   1.00
H1149  H     0.54513   0.79600   0.99584   0.00000  Uiso   1.00
H1150  H     0.92749   0.88068   0.79499   0.00000  Uiso   1.00
H1151  H     0.54517   0.70403   0.00415   0.00000  Uiso   1.00
H1152  H     0.95400   0.79513   0.49585   0.00000  Uiso   1.00
H1153  H     0.54600   0.79513   0.50415   0.00000  Uiso   1.00
H1154  H     0.70481   0.95403   0.49586   0.00000  Uiso   1.00
H1155  H     0.70485   0.54600   0.50415   0.00000  Uiso   1.00
H1156  H     0.54600   0.70488   0.49585   0.00000  Uiso   1.00
H1157  H     0.95400   0.70487   0.50415   0.00000  Uiso   1.00
H1158  H     0.79511   0.54598   0.49584   0.00000  Uiso   1.00
H1159  H     0.79508   0.95397   0.50416   0.00000  Uiso   1.00
H1160  H     0.66249   0.57286   0.14101   0.00000  Uiso   1.00
H1161  H     0.88068   0.57253   0.20500   0.00000  Uiso   1.00
H1162  H     0.84344   0.54465   0.89903   0.00000  Uiso   1.00
H1163  H     0.92726   0.66228   0.14090   0.00000  Uiso   1.00
H1164  H     0.92722   0.83760   0.85902   0.00000  Uiso   1.00
H1165  H     0.83752   0.92714   0.14100   0.00000  Uiso   1.00
H1166  H     0.66193   0.92739   0.85931   0.00000  Uiso   1.00
H1167  H     0.57272   0.83771   0.14092   0.00000  Uiso   1.00
H1168  H     0.57278   0.66240   0.85901   0.00000  Uiso   1.00
H1169  H     0.91238   0.82276   0.64097   0.00000  Uiso   1.00
H1170  H     0.58765   0.82279   0.35907   0.00000  Uiso   1.00
H1171  H     0.67719   0.91241   0.64099   0.00000  Uiso   1.00
H1172  H     0.61932   0.92750   0.79498   0.00000  Uiso   1.00
H1173  H     0.67724   0.58764   0.35903   0.00000  Uiso   1.00
H1174  H     0.58762   0.67724   0.64098   0.00000  Uiso   1.00
H1175  H     0.91239   0.67725   0.35900   0.00000  Uiso   1.00
H1176  H     0.82293   0.58769   0.64072   0.00000  Uiso   1.00
H1177  H     0.82275   0.91236   0.35904   0.00000  Uiso   1.00
H1178  H     0.92746   0.88068   0.20499   0.00000  Uiso   1.00
H1179  H     0.57250   0.61932   0.79498   0.00000  Uiso   1.00
H1180  H     0.61932   0.57253   0.79500   0.00000  Uiso   1.00
O1181  O     0.75000   0.50000   0.25000   0.00000  Uiso   1.00
O1182  O     0.75000   0.96964   0.66317   0.00000  Uiso   1.00
O1183  O     0.65174   0.95709   0.58152   0.00000  Uiso   1.00
O1184  O     0.69735   0.92065   0.62401   0.00000  Uiso   1.00
O1185  O     0.67331   0.51487   0.35853   0.00000  Uiso   1.00
O1186  O     0.65177   0.54296   0.41849   0.00000  Uiso   1.00
O1187  O     0.69740   0.57938   0.37601   0.00000  Uiso   1.00
O1188  O     0.51485   0.67330   0.64145   0.00000  Uiso   1.00
O1189  O     0.54296   0.65178   0.58150   0.00000  Uiso   1.00
O1190  O     0.57937   0.69740   0.62399   0.00000  Uiso   1.00
O1191  O     0.98514   0.67331   0.35855   0.00000  Uiso   1.00
O1192  O     0.95704   0.65178   0.41850   0.00000  Uiso   1.00
O1193  O     0.96964   0.75000   0.33683   0.00000  Uiso   1.00
O1194  O     0.92062   0.69740   0.37601   0.00000  Uiso   1.00
O1195  O     0.82669   0.51483   0.64146   0.00000  Uiso   1.00
O1196  O     0.84825   0.54285   0.58147   0.00000  Uiso   1.00
O1197  O     0.80267   0.57936   0.62392   0.00000  Uiso   1.00
O1198  O     0.82669   0.98513   0.35856   0.00000  Uiso   1.00
O1199  O     0.84820   0.95702   0.41852   0.00000  Uiso   1.00
O1200  O     0.80259   0.92061   0.37602   0.00000  Uiso   1.00
O1201  O     0.53036   0.75000   0.66317   0.00000  Uiso   1.00
O1202  O     0.50000   0.71964   0.83683   0.00000  Uiso   1.00
O1203  O     0.50000   0.78036   0.16317   0.00000  Uiso   1.00
O1204  O     0.78036   0.50000   0.83683   0.00000  Uiso   1.00
O1205  O     0.71964   0.50000   0.16317   0.00000  Uiso   1.00
O1206  O     0.50000   0.78036   0.83683   0.00000  Uiso   1.00
O1207  O     0.50000   0.71964   0.16317   0.00000  Uiso   1.00
O1208  O     0.71964   0.50000   0.83683   0.00000  Uiso   1.00
O1209  O     0.75000   0.50000   0.75000   0.00000  Uiso   1.00
O1210  O     0.78036   0.50000   0.16317   0.00000  Uiso   1.00
O1211  O     0.70725   0.57307   0.27282   0.00000  Uiso   1.00
O1212  O     0.79274   0.92693   0.72718   0.00000  Uiso   1.00
O1213  O     0.92693   0.70726   0.27282   0.00000  Uiso   1.00
O1214  O     0.57307   0.79274   0.72718   0.00000  Uiso   1.00
O1215  O     0.79274   0.92693   0.27282   0.00000  Uiso   1.00
O1216  O     0.70725   0.57307   0.72718   0.00000  Uiso   1.00
O1217  O     0.57307   0.79274   0.27282   0.00000  Uiso   1.00
O1218  O     0.92693   0.70726   0.72718   0.00000  Uiso   1.00
O1219  O     0.70725   0.92693   0.72718   0.00000  Uiso   1.00
O1220  O     0.50000   0.75000   0.25000   0.00000  Uiso   1.00
O1221  O     0.79274   0.57307   0.27282   0.00000  Uiso   1.00
O1222  O     0.92693   0.79275   0.72718   0.00000  Uiso   1.00
O1223  O     0.57307   0.70726   0.27282   0.00000  Uiso   1.00
O1224  O     0.79274   0.57307   0.72718   0.00000  Uiso   1.00
O1225  O     0.70725   0.92693   0.27282   0.00000  Uiso   1.00
O1226  O     0.57307   0.70726   0.72718   0.00000  Uiso   1.00
O1227  O     0.92693   0.79275   0.27282   0.00000  Uiso   1.00
O1228  O     0.95725   0.82307   0.77282   0.00000  Uiso   1.00
O1229  O     0.54274   0.67693   0.22718   0.00000  Uiso   1.00
O1230  O     0.67693   0.95726   0.77282   0.00000  Uiso   1.00
O1231  O     0.50000   0.75000   0.75000   0.00000  Uiso   1.00
O1232  O     0.82307   0.54275   0.22718   0.00000  Uiso   1.00
O1233  O     0.54274   0.67693   0.77282   0.00000  Uiso   1.00
O1234  O     0.95725   0.82307   0.22718   0.00000  Uiso   1.00
O1235  O     0.82307   0.54275   0.77282   0.00000  Uiso   1.00
O1236  O     0.67693   0.95726   0.22718   0.00000  Uiso   1.00
O1237  O     0.95725   0.67693   0.22718   0.00000  Uiso   1.00
O1238  O     0.54274   0.82307   0.77282   0.00000  Uiso   1.00
O1239  O     0.67693   0.54275   0.22718   0.00000  Uiso   1.00
O1240  O     0.82307   0.95726   0.77282   0.00000  Uiso   1.00
O1241  O     0.54274   0.82307   0.22718   0.00000  Uiso   1.00
O1242  O     0.75000   0.96964   0.33683   0.00000  Uiso   1.00
O1243  O     0.95725   0.67693   0.77282   0.00000  Uiso   1.00
O1244  O     0.82307   0.95726   0.22718   0.00000  Uiso   1.00
O1245  O     0.67693   0.54275   0.77282   0.00000  Uiso   1.00
O1246  O     0.70881   0.55266   0.02292   0.00000  Uiso   1.00
O1247  O     0.79147   0.55241   0.97710   0.00000  Uiso   1.00
O1248  O     0.94743   0.70869   0.02292   0.00000  Uiso   1.00
O1249  O     0.94737   0.79124   0.97708   0.00000  Uiso   1.00
O1250  O     0.79113   0.94726   0.02294   0.00000  Uiso   1.00
O1251  O     0.70849   0.94752   0.97706   0.00000  Uiso   1.00
O1252  O     0.55260   0.79130   0.02293   0.00000  Uiso   1.00
O1253  O     0.75000   0.53036   0.66317   0.00000  Uiso   1.00
O1254  O     0.55264   0.70875   0.97707   0.00000  Uiso   1.00
O1255  O     0.95874   0.80262   0.52293   0.00000  Uiso   1.00
O1256  O     0.54127   0.80262   0.47707   0.00000  Uiso   1.00
O1257  O     0.69733   0.95876   0.52294   0.00000  Uiso   1.00
O1258  O     0.69737   0.54127   0.47707   0.00000  Uiso   1.00
O1259  O     0.54126   0.69738   0.52292   0.00000  Uiso   1.00
O1260  O     0.95873   0.69738   0.47708   0.00000  Uiso   1.00
O1261  O     0.80262   0.54123   0.52291   0.00000  Uiso   1.00
O1262  O     0.80258   0.95871   0.47708   0.00000  Uiso   1.00
O1263  O     0.73525   0.57671   0.14144   0.00000  Uiso   1.00
O1264  O     0.53036   0.75000   0.33683   0.00000  Uiso   1.00
O1265  O     0.70716   0.59826   0.08149   0.00000  Uiso   1.00
O1266  O     0.67070   0.55270   0.12401   0.00000  Uiso   1.00
O1267  O     0.76541   0.57670   0.85867   0.00000  Uiso   1.00
O1268  O     0.79370   0.59803   0.91844   0.00000  Uiso   1.00
O1269  O     0.82968   0.55231   0.87568   0.00000  Uiso   1.00
O1270  O     0.92331   0.73508   0.14144   0.00000  Uiso   1.00
O1271  O     0.90181   0.70696   0.08149   0.00000  Uiso   1.00
O1272  O     0.94746   0.67058   0.12399   0.00000  Uiso   1.00
O1273  O     0.92330   0.76484   0.85855   0.00000  Uiso   1.00
O1274  O     0.90177   0.79294   0.91851   0.00000  Uiso   1.00
O1275  O     0.96964   0.75000   0.66317   0.00000  Uiso   1.00
O1276  O     0.94738   0.82936   0.87601   0.00000  Uiso   1.00
O1277  O     0.76475   0.92328   0.14148   0.00000  Uiso   1.00
O1278  O     0.79283   0.90170   0.08154   0.00000  Uiso   1.00
O1279  O     0.82929   0.94730   0.12401   0.00000  Uiso   1.00
O1280  O     0.73483   0.92336   0.85853   0.00000  Uiso   1.00
O1281  O     0.70668   0.90192   0.91849   0.00000  Uiso   1.00
O1282  O     0.67040   0.94766   0.87602   0.00000  Uiso   1.00
O1283  O     0.57669   0.76492   0.14146   0.00000  Uiso   1.00
O1284  O     0.59820   0.79303   0.08150   0.00000  Uiso   1.00
O1285  O     0.55255   0.82942   0.12399   0.00000  Uiso   1.00
O1286  O     0.75000   0.53036   0.33683   0.00000  Uiso   1.00
O1287  O     0.57670   0.73517   0.85854   0.00000  Uiso   1.00
O1288  O     0.59824   0.70707   0.91849   0.00000  Uiso   1.00
O1289  O     0.55262   0.67064   0.87600   0.00000  Uiso   1.00
O1290  O     0.98515   0.82670   0.64145   0.00000  Uiso   1.00
O1291  O     0.95704   0.84823   0.58150   0.00000  Uiso   1.00
O1292  O     0.92062   0.80260   0.62399   0.00000  Uiso   1.00
O1293  O     0.51486   0.82670   0.35854   0.00000  Uiso   1.00
O1294  O     0.54296   0.84822   0.41850   0.00000  Uiso   1.00
O1295  O     0.57938   0.80260   0.37601   0.00000  Uiso   1.00
O1296  O     0.67330   0.98519   0.64147   0.00000  Uiso   1.00
S1297  S     0.71182   0.56577   0.10759   0.00000  Uiso   1.00
S1298  S     0.53826   0.81573   0.39241   0.00000  Uiso   1.00
S1299  S     0.68424   0.96177   0.60761   0.00000  Uiso   1.00
S1300  S     0.68427   0.53827   0.39240   0.00000  Uiso   1.00
S1301  S     0.53826   0.68427   0.60759   0.00000  Uiso   1.00
S1302  S     0.96174   0.68427   0.39241   0.00000  Uiso   1.00
S1303  S     0.81575   0.53821   0.60757   0.00000  Uiso   1.00
S1304  S     0.81572   0.96172   0.39242   0.00000  Uiso   1.00
S1305  S     0.78873   0.56548   0.89248   0.00000  Uiso   1.00
S1306  S     0.93430   0.71169   0.10758   0.00000  Uiso   1.00
S1307  S     0.93426   0.78825   0.89241   0.00000  Uiso   1.00
S1308  S     0.78817   0.93421   0.10762   0.00000  Uiso   1.00
S1309  S     0.71147   0.93440   0.89240   0.00000  Uiso   1.00
S1310  S     0.56571   0.78831   0.10759   0.00000  Uiso   1.00
S1311  S     0.56574   0.71176   0.89240   0.00000  Uiso   1.00
S1312  S     0.96174   0.81573   0.60759   0.00000  Uiso   1.00
Zn1313 Zn    0.70660   0.50000   0.21760   0.00000  Uiso   1.00
Zn1314 Zn    0.54340   0.75000   0.28240   0.00000  Uiso   1.00
Zn1315 Zn    0.75000   0.95660   0.71760   0.00000  Uiso   1.00
Zn1316 Zn    0.75000   0.54340   0.28240   0.00000  Uiso   1.00
Zn1317 Zn    0.54340   0.75000   0.71760   0.00000  Uiso   1.00
Zn1318 Zn    0.95660   0.75000   0.28240   0.00000  Uiso   1.00
Zn1319 Zn    0.75000   0.54340   0.71760   0.00000  Uiso   1.00
Zn1320 Zn    0.75000   0.95660   0.28240   0.00000  Uiso   1.00
Zn1321 Zn    0.79340   0.50000   0.78240   0.00000  Uiso   1.00
Zn1322 Zn    0.50000   0.70660   0.21760   0.00000  Uiso   1.00
Zn1323 Zn    0.50000   0.79340   0.78240   0.00000  Uiso   1.00
Zn1324 Zn    0.79340   0.50000   0.21760   0.00000  Uiso   1.00
Zn1325 Zn    0.70660   0.50000   0.78240   0.00000  Uiso   1.00
Zn1326 Zn    0.50000   0.79340   0.21760   0.00000  Uiso   1.00
Zn1327 Zn    0.50000   0.70660   0.78240   0.00000  Uiso   1.00
Zn1328 Zn    0.95660   0.75000   0.71760   0.00000  Uiso   1.00
loop_
_geom_bond_atom_site_label_1
_geom_bond_atom_site_label_2
_geom_bond_distance
_geom_bond_site_symmetry_2
_ccdc_geom_bond_type
C1     C30     1.402   .     A
C1     O250    1.385   .     S
C1     C712    1.417   1_545 S
C2     C53     1.417   .     A
C2     C40     1.402   .     A
C2     O260    1.385   .     S
C3     C103    1.402   .     A
C3     C96     1.402   .     A
C3     C67     1.456   .     S
C4     C68     1.456   .     S
C4     C106    1.402   .     A
C4     C95     1.402   .     A
C5     C105    1.402   .     A
C5     C94     1.402   .     A
C5     C69     1.456   .     S
C6     C93     1.402   .     A
C6     C70     1.456   .     S
C6     C108    1.402   .     A
C7     C92     1.402   .     A
C7     C107    1.402   .     A
C7     C71     1.456   .     S
C8     C111    1.402   .     A
C8     C81     1.456   .     S
C8     C91     1.402   .     A
C9     C90     1.402   .     A
C9     C82     1.456   .     S
C9     C109    1.402   .     A
C10    C113    1.402   .     A
C10    C89     1.402   .     A
C10    C74     1.456   .     S
C11    C112    1.402   .     A
C11    C87     1.402   .     A
C11    C75     1.456   .     S
C12    C115    1.402   .     A
C12    C86     1.402   .     A
C12    C76     1.456   .     S
C13    C718    1.417   .     A
C13    C41     1.402   .     A
C13    O261    1.385   .     S
C14    C114    1.402   .     A
C14    C85     1.402   .     A
C14    C78     1.456   .     S
C15    C84     1.402   .     A
C15    C79     1.456   .     S
C15    C117    1.402   .     A
C16    C80     1.456   .     S
C16    C116    1.402   .     A
C16    C83     1.402   .     A
C17    C728    1.460   .     S
C17    C35     1.415   .     A
C17    C694    1.415   .     S
C18    C36     1.415   .     A
C18    C695    1.415   .     S
C18    C727    1.460   .     S
C19    C37     1.415   .     A
C19    C62     1.460   .     S
C19    C364    1.415   1_455 S
C20    C61     1.460   .     S
C20    C38     1.415   .     A
C20    C366    1.415   1_455 S
C21    C60     1.460   .     S
C21    C43     1.415   .     A
C21    C371    1.415   1_455 S
C22    C377    1.415   1_455 A
C22    C59     1.460   .     S
C22    C40     1.415   .     S
C23    C58     1.460   .     S
C23    C705    1.415   1_545 A
C23    C46     1.415   .     S
C24    C42     1.402   .     A
C24    O262    1.385   .     S
C24    C720    1.417   1_545 S
C25    C57     1.460   .     S
C25    C711    1.415   1_545 A
C25    C42     1.415   .     S
C26    O263    1.385   .     S
C26    C43     1.402   .     A
C26    C52     1.417   .     A
C27    O264    1.385   .     S
C27    C45     1.402   .     A
C27    C385    1.417   .     S
C28    C46     1.402   .     A
C28    O265    1.385   .     S
C28    C54     1.417   .     S
C29    O266    1.385   .     S
C29    C47     1.402   .     A
C29    C56     1.417   .     A
C30    S301    1.788   .     S
C30    C681    1.415   1_545 S
C31    S309    1.788   .     S
C31    C33     1.402   .     A
C31    C682    1.415   1_545 S
C32    S310    1.788   .     S
C32    C44     1.402   .     A
C32    C351    1.415   .     S
C33    O251    1.385   .     S
C33    C713    1.417   1_545 S
C34    C55     1.402   .     A
C34    S311    1.788   .     S
C34    C352    1.415   .     S
C35    C66     1.402   .     A
C35    S312    1.788   .     S
C36    C77     1.402   .     A
C36    S313    1.788   .     S
C37    S314    1.788   .     S
C37    C88     1.402   .     A
C38    S315    1.788   .     S
C38    C99     1.402   .     A
C39    C110    1.402   .     A
C39    S316    1.788   .     S
C39    C353    1.415   .     S
C40    S302    1.788   .     S
C41    S303    1.788   .     S
C41    C687    1.415   .     A
C42    S304    1.788   .     S
C43    S305    1.788   .     S
C44    O252    1.385   .     S
C44    C382    1.417   .     S
C45    C354    1.415   .     A
C45    S306    1.788   .     S
C46    S307    1.788   .     S
C47    C689    1.415   .     A
C47    S308    1.788   .     S
C48    C66     1.417   .     A
C48    C665    1.417   .     S
C48    C49     1.474   1_554 S
C49    C77     1.417   .     A
C49    C48     1.474   1_556 S
C49    C697    1.417   .     S
C50    C88     1.417   .     A
C50    C376    1.417   1_455 S
C50    C51     1.474   1_554 S
C51    C99     1.417   .     A
C51    C50     1.474   1_556 S
C51    C387    1.417   1_455 S
C52    C53     1.474   .     S
C52    C442    1.417   1_455 S
C53    C359    1.417   1_455 S
C54    C677    1.417   1_545 A
C54    C720    1.474   1_545 S
C55    O253    1.385   .     S
C55    C383    1.417   .     S
C56    C718    1.474   .     S
C56    C688    1.417   .     S
C57    O910    1.279   1_545 A
C57    O290    1.279   .     S
C58    O850    1.279   1_545 A
C58    O257    1.279   .     S
C59    O529    1.279   1_455 A
C59    O268    1.279   .     S
C60    O205    1.279   .     A
C60    O611    1.279   1_455 S
C61    O206    1.279   .     A
C61    O210    1.279   .     S
C62    O207    1.279   .     A
C62    O211    1.279   .     A
C63    O212    1.279   .     A
C63    O208    1.279   .     A
C63    C682    1.460   1_545 S
C64    C681    1.460   1_545 S
C64    O209    1.279   .     S
C64    O214    1.279   .     S
C65    C120    1.456   .     S
C65    O215    1.279   .     A
C65    O243    1.279   .     A
C66    O254    1.385   .     S
C67    O244    1.279   .     A
C67    O216    1.279   .     A
C68    O241    1.279   .     A
C68    O217    1.279   .     A
C69    O242    1.279   .     A
C69    O218    1.279   .     A
C70    O248    1.279   .     A
C70    O219    1.279   .     A
C71    O220    1.279   .     A
C71    O249    1.279   .     A
C72    C118    1.456   .     S
C72    O245    1.279   .     A
C72    O221    1.279   .     A
C73    C119    1.456   .     S
C73    O247    1.279   .     A
C73    O222    1.279   .     A
C74    O234    1.279   .     A
C74    O223    1.279   .     A
C75    O225    1.279   .     A
C75    O236    1.279   .     A
C76    O232    1.279   .     A
C76    O226    1.279   .     A
C77    O255    1.385   .     S
C78    O227    1.279   .     A
C78    O233    1.279   .     A
C79    O228    1.279   .     A
C79    O239    1.279   .     A
C80    O229    1.279   .     A
C80    O240    1.279   .     A
C81    O230    1.279   .     A
C81    O237    1.279   .     A
C82    O231    1.279   .     A
C82    O238    1.279   .     A
C83    H121    1.083   .     S
C83    C100    1.387   .     A
C84    H132    1.083   .     S
C84    C98     1.387   .     A
C85    C97     1.387   .     A
C85    H143    1.083   .     S
C86    H154    1.083   .     S
C86    C96     1.387   .     A
C87    H165    1.083   .     S
C87    C95     1.387   .     A
C88    O256    1.385   .     S
C89    C94     1.387   .     A
C89    H176    1.083   .     S
C90    C93     1.387   .     A
C90    H182    1.083   .     S
C91    C92     1.387   .     A
C91    H183    1.083   .     S
C92    H184    1.083   .     S
C93    H122    1.083   .     S
C94    H123    1.083   .     S
C95    H124    1.083   .     S
C96    H125    1.083   .     S
C97    H126    1.083   .     S
C97    C120    1.402   .     A
C98    H127    1.083   .     S
C98    C119    1.402   .     A
C99    O258    1.385   .     S
C100   H128    1.083   .     S
C100   C118    1.402   .     A
C101   H129    1.083   .     S
C101   C117    1.387   .     A
C101   C119    1.402   .     A
C102   H130    1.083   .     S
C102   C118    1.402   .     A
C102   C116    1.387   .     A
C103   H131    1.083   .     S
C103   C115    1.387   .     A
C104   C120    1.402   .     A
C104   H133    1.083   .     S
C104   C114    1.387   .     A
C105   C113    1.387   .     A
C105   H134    1.083   .     S
C106   C112    1.387   .     A
C106   H135    1.083   .     S
C107   H136    1.083   .     S
C107   C111    1.387   .     A
C108   C109    1.387   .     A
C108   H137    1.083   .     S
C109   H138    1.083   .     S
C110   O259    1.385   .     S
C110   C384    1.417   .     S
C111   H139    1.083   .     S
C112   H140    1.083   .     S
C113   H141    1.083   .     S
C114   H142    1.083   .     S
C115   H144    1.083   .     S
C116   H145    1.083   .     S
C117   H146    1.083   .     S
H147   O250    0.988   1_556 S
H148   O251    0.988   1_554 S
H149   O252    0.988   1_556 S
H150   O253    0.988   1_554 S
H151   O254    0.988   1_556 S
H152   O255    0.988   1_554 S
H153   O256    0.988   1_556 S
H155   O258    0.988   1_554 S
H156   O259    0.988   .     S
H157   O260    0.988   .     S
H158   O261    0.988   .     S
H159   O262    0.988   .     S
H160   O263    0.988   .     S
H161   O264    0.988   .     S
H162   O265    0.988   .     S
H163   O266    0.988   .     S
H164   O270    0.991   .     S
H166   O273    0.991   .     S
H167   O276    0.991   .     S
H168   O280    0.991   .     S
H169   O283    0.991   .     S
H170   O286    0.991   .     S
H171   O289    0.991   .     S
H172   O293    0.991   .     S
H173   O296    0.991   .     S
H174   O299    0.991   .     S
H175   O188    0.991   .     S
H177   O191    0.991   .     S
H178   O194    0.991   .     S
H179   O198    0.991   .     S
H180   O201    0.991   .     S
H181   O204    0.991   .     S
O185   Zn317   1.945   .     S
O185   Zn328   1.945   .     S
O185   Zn320   1.945   .     S
O185   Zn988   1.945   1_545 S
O186   C722    1.279   .     A
O186   Zn319   1.936   .     S
O187   S303    1.503   .     D
O188   S303    1.681   .     S
O189   S304    1.504   .     D
O190   S304    1.503   .     D
O191   S304    1.681   .     S
O192   S305    1.504   .     D
O193   S305    1.503   .     D
O194   S305    1.681   .     S
O195   S306    1.504   .     D
O196   S306    1.503   .     D
O197   Zn322   1.936   .     S
O197   C391    1.279   .     A
O198   S306    1.681   .     S
O199   S307    1.504   .     D
O200   S307    1.503   .     D
O201   S307    1.681   .     S
O202   S308    1.504   .     D
O203   S308    1.503   .     D
O204   S308    1.681   .     S
O205   Zn321   1.936   .     S
O206   Zn331   1.936   .     S
O207   Zn330   1.936   .     S
O208   Zn325   1.936   .     S
O209   Zn317   1.936   .     S
O210   Zn327   1.936   .     S
O211   Zn326   1.936   .     S
O212   Zn329   1.936   .     S
O213   Zn329   1.945   .     S
O213   Zn325   1.945   .     S
O213   Zn323   1.945   .     S
O213   Zn983   1.945   1_545 S
O214   Zn328   1.936   .     S
O215   Zn320   1.938   .     S
O216   Zn319   1.938   .     S
O217   Zn322   1.938   .     S
O218   Zn321   1.938   .     S
O219   Zn324   1.938   .     S
O220   Zn323   1.938   .     S
O221   Zn318   1.938   .     S
O222   Zn332   1.938   .     S
O223   Zn319   1.938   .     S
O224   Zn330   1.945   .     S
O224   Zn326   1.945   .     S
O224   Zn318   1.945   .     S
O224   Zn654   1.945   1_455 S
O225   Zn320   1.938   .     S
O226   Zn332   1.938   .     S
O227   Zn318   1.938   .     S
O228   Zn323   1.938   .     S
O229   Zn324   1.938   .     S
O230   Zn321   1.938   .     S
O231   Zn322   1.938   .     S
O232   Zn659   1.938   .     S
O233   Zn326   1.938   .     S
O234   Zn993   1.938   .     S
O235   Zn327   1.945   .     S
O235   Zn331   1.945   .     S
O235   Zn321   1.945   .     S
O235   Zn664   1.945   1_455 S
O236   Zn328   1.938   .     S
O237   Zn331   1.938   .     S
O238   Zn662   1.938   .     S
O239   Zn325   1.938   .     S
O240   Zn981   1.938   .     S
O241   Zn658   1.938   .     S
O242   Zn327   1.938   .     S
O243   Zn317   1.938   .     S
O244   Zn989   1.938   .     S
O245   Zn330   1.938   .     S
O246   C721    1.279   .     A
O246   Zn324   1.936   .     S
O247   Zn663   1.938   .     S
O248   Zn992   1.938   .     S
O249   Zn329   1.938   .     S
O250   H147    0.988   1_554 S
O251   H148    0.988   1_556 S
O252   H149    0.988   1_554 S
O253   H150    0.988   1_556 S
O254   H151    0.988   1_554 S
O255   H152    0.988   1_556 S
O256   H153    0.988   1_554 S
O257   Zn323   1.936   .     S
O258   H155    0.988   1_556 S
O267   S301    1.504   .     D
O268   Zn318   1.936   .     S
O269   S301    1.503   .     D
O270   S301    1.681   .     S
O271   S309    1.503   .     D
O272   S309    1.503   .     D
O273   S309    1.681   .     S
O274   S310    1.504   .     D
O275   S310    1.503   .     D
O276   S310    1.681   .     S
O277   S311    1.504   .     D
O278   S311    1.503   .     D
O279   Zn332   1.936   .     S
O279   C392    1.279   .     S
O280   S311    1.681   .     S
O281   S312    1.504   .     D
O282   S312    1.503   .     D
O283   S312    1.681   .     S
O284   S313    1.504   .     D
O285   S313    1.503   .     D
O286   S313    1.681   .     S
O287   S314    1.504   .     D
O288   S314    1.503   .     D
O289   S314    1.681   .     S
O290   Zn320   1.936   .     S
O291   S315    1.504   .     D
O292   S315    1.503   .     D
O293   S315    1.681   .     S
O294   S316    1.504   .     D
O295   S316    1.503   .     D
O296   S316    1.681   .     S
O297   S302    1.504   .     D
O298   S302    1.503   .     D
O299   S302    1.681   .     S
O300   S303    1.504   .     D
Zn317  O904    1.938   1_545 S
Zn319  O877    1.945   .     S
Zn322  O556    1.945   .     S
Zn324  O849    1.945   .     S
Zn325  O908    1.938   1_545 S
Zn326  O573    1.938   1_455 S
Zn327  O564    1.938   1_455 S
Zn328  O912    1.938   1_545 S
Zn329  O898    1.938   1_545 S
Zn330  O570    1.938   1_455 S
Zn331  O579    1.938   1_455 S
Zn332  O567    1.945   .     S
C333   C362    1.402   .     A
C333   O582    1.385   .     S
C333   C1044   1.417   1_545 S
C334   C385    1.417   .     A
C334   C372    1.402   .     A
C334   O592    1.385   .     S
C335   C435    1.402   .     A
C335   C428    1.402   .     A
C335   C399    1.456   .     S
C336   C400    1.456   .     S
C336   C438    1.402   .     A
C336   C427    1.402   .     A
C337   C437    1.402   .     A
C337   C426    1.402   .     A
C337   C401    1.456   .     S
C338   C425    1.402   .     A
C338   C402    1.456   .     S
C338   C440    1.402   .     A
C339   C424    1.402   .     A
C339   C439    1.402   .     A
C339   C403    1.456   .     S
C340   C443    1.402   .     A
C340   C413    1.456   .     S
C340   C423    1.402   .     A
C341   C422    1.402   .     A
C341   C414    1.456   .     S
C341   C441    1.402   .     A
C342   C445    1.402   .     A
C342   C421    1.402   .     A
C342   C406    1.456   .     S
C343   C444    1.402   .     A
C343   C419    1.402   .     A
C343   C407    1.456   .     S
C344   C447    1.402   .     A
C344   C418    1.402   .     A
C344   C408    1.456   .     S
C345   C1050   1.417   .     A
C345   C373    1.402   .     A
C345   O593    1.385   .     S
C346   C446    1.402   .     A
C346   C417    1.402   .     A
C346   C410    1.456   .     S
C347   C416    1.402   .     A
C347   C411    1.456   .     S
C347   C449    1.402   .     A
C348   C412    1.456   .     S
C348   C448    1.402   .     A
C348   C415    1.402   .     A
C349   C1060   1.460   .     S
C349   C367    1.415   .     A
C349   C1026   1.415   .     S
C350   C368    1.415   .     A
C350   C1027   1.415   .     S
C350   C1059   1.460   .     S
C351   C369    1.415   .     A
C351   C394    1.460   .     S
C352   C393    1.460   .     S
C352   C370    1.415   .     A
C353   C392    1.460   .     S
C353   C375    1.415   .     A
C354   C391    1.460   .     S
C354   C372    1.415   .     S
C355   C390    1.460   .     S
C355   C1037   1.415   1_545 A
C355   C378    1.415   .     S
C356   C374    1.402   .     A
C356   O594    1.385   .     S
C356   C1052   1.417   1_545 S
C357   C389    1.460   .     S
C357   C1043   1.415   1_545 A
C357   C374    1.415   .     S
C358   O595    1.385   .     S
C358   C375    1.402   .     A
C358   C384    1.417   .     A
C359   O596    1.385   .     S
C359   C377    1.402   .     A
C359   C53     1.417   1_655 S
C360   C378    1.402   .     A
C360   O597    1.385   .     S
C360   C386    1.417   .     S
C361   O598    1.385   .     S
C361   C379    1.402   .     A
C361   C388    1.417   .     A
C362   S633    1.788   .     S
C362   C1013   1.415   1_545 S
C363   S641    1.788   .     S
C363   C365    1.402   .     A
C363   C1014   1.415   1_545 S
C364   S642    1.788   .     S
C364   C376    1.402   .     A
C364   C19     1.415   1_655 S
C365   O583    1.385   .     S
C365   C1045   1.417   1_545 S
C366   C387    1.402   .     A
C366   S643    1.788   .     S
C366   C20     1.415   1_655 S
C367   C398    1.402   .     A
C367   S644    1.788   .     S
C368   C409    1.402   .     A
C368   S645    1.788   .     S
C369   S646    1.788   .     S
C369   C420    1.402   .     A
C370   S647    1.788   .     S
C370   C431    1.402   .     A
C371   C442    1.402   .     A
C371   S648    1.788   .     S
C371   C21     1.415   1_655 S
C372   S634    1.788   .     S
C373   S635    1.788   .     S
C373   C1019   1.415   .     A
C374   S636    1.788   .     S
C375   S637    1.788   .     S
C376   O584    1.385   .     S
C376   C50     1.417   1_655 S
C377   C22     1.415   1_655 A
C377   S638    1.788   .     S
C378   S639    1.788   .     S
C379   C1021   1.415   .     A
C379   S640    1.788   .     S
C380   C398    1.417   .     A
C380   C997    1.417   .     S
C380   C381    1.474   1_554 S
C381   C409    1.417   .     A
C381   C380    1.474   1_556 S
C381   C1029   1.417   .     S
C382   C420    1.417   .     A
C382   C383    1.474   1_554 S
C383   C431    1.417   .     A
C383   C382    1.474   1_556 S
C384   C385    1.474   .     S
C386   C1009   1.417   1_545 A
C386   C1052   1.474   1_545 S
C387   O585    1.385   .     S
C387   C51     1.417   1_655 S
C388   C1050   1.474   .     S
C388   C1020   1.417   .     S
C389   O1242   1.279   1_545 A
C389   O622    1.279   .     S
C390   O1182   1.279   1_545 A
C390   O589    1.279   .     S
C391   O600    1.279   .     S
C392   O537    1.279   .     A
C393   O538    1.279   .     A
C393   O542    1.279   .     S
C394   O539    1.279   .     A
C394   O543    1.279   .     A
C395   O544    1.279   .     A
C395   O540    1.279   .     A
C395   C1014   1.460   1_545 S
C396   C1013   1.460   1_545 S
C396   O541    1.279   .     S
C396   O546    1.279   .     S
C397   C452    1.456   .     S
C397   O547    1.279   .     A
C397   O575    1.279   .     A
C398   O586    1.385   .     S
C399   O576    1.279   .     A
C399   O548    1.279   .     A
C400   O573    1.279   .     A
C400   O549    1.279   .     A
C401   O574    1.279   .     A
C401   O550    1.279   .     A
C402   O580    1.279   .     A
C402   O551    1.279   .     A
C403   O552    1.279   .     A
C403   O581    1.279   .     A
C404   C450    1.456   .     S
C404   O577    1.279   .     A
C404   O553    1.279   .     A
C405   C451    1.456   .     S
C405   O579    1.279   .     A
C405   O554    1.279   .     A
C406   O566    1.279   .     A
C406   O555    1.279   .     A
C407   O557    1.279   .     A
C407   O568    1.279   .     A
C408   O564    1.279   .     A
C408   O558    1.279   .     A
C409   O587    1.385   .     S
C410   O559    1.279   .     A
C410   O565    1.279   .     A
C411   O560    1.279   .     A
C411   O571    1.279   .     A
C412   O561    1.279   .     A
C412   O572    1.279   .     A
C413   O562    1.279   .     A
C413   O569    1.279   .     A
C414   O563    1.279   .     A
C414   O570    1.279   .     A
C415   H453    1.083   .     S
C415   C432    1.387   .     A
C416   H464    1.083   .     S
C416   C430    1.387   .     A
C417   C429    1.387   .     A
C417   H475    1.083   .     S
C418   H486    1.083   .     S
C418   C428    1.387   .     A
C419   H497    1.083   .     S
C419   C427    1.387   .     A
C420   O588    1.385   .     S
C421   C426    1.387   .     A
C421   H508    1.083   .     S
C422   C425    1.387   .     A
C422   H514    1.083   .     S
C423   C424    1.387   .     A
C423   H515    1.083   .     S
C424   H516    1.083   .     S
C425   H454    1.083   .     S
C426   H455    1.083   .     S
C427   H456    1.083   .     S
C428   H457    1.083   .     S
C429   H458    1.083   .     S
C429   C452    1.402   .     A
C430   H459    1.083   .     S
C430   C451    1.402   .     A
C431   O590    1.385   .     S
C432   H460    1.083   .     S
C432   C450    1.402   .     A
C433   H461    1.083   .     S
C433   C449    1.387   .     A
C433   C451    1.402   .     A
C434   H462    1.083   .     S
C434   C450    1.402   .     A
C434   C448    1.387   .     A
C435   H463    1.083   .     S
C435   C447    1.387   .     A
C436   C452    1.402   .     A
C436   H465    1.083   .     S
C436   C446    1.387   .     A
C437   C445    1.387   .     A
C437   H466    1.083   .     S
C438   C444    1.387   .     A
C438   H467    1.083   .     S
C439   H468    1.083   .     S
C439   C443    1.387   .     A
C440   C441    1.387   .     A
C440   H469    1.083   .     S
C441   H470    1.083   .     S
C442   O591    1.385   .     S
C442   C52     1.417   1_655 S
C443   H471    1.083   .     S
C444   H472    1.083   .     S
C445   H473    1.083   .     S
C446   H474    1.083   .     S
C447   H476    1.083   .     S
C448   H477    1.083   .     S
C449   H478    1.083   .     S
H479   O582    0.988   1_556 S
H480   O583    0.988   1_554 S
H481   O584    0.988   1_556 S
H482   O585    0.988   1_554 S
H483   O586    0.988   1_556 S
H484   O587    0.988   1_554 S
H485   O588    0.988   1_556 S
H487   O590    0.988   1_554 S
H488   O591    0.988   .     S
H489   O592    0.988   .     S
H490   O593    0.988   .     S
H491   O594    0.988   .     S
H492   O595    0.988   .     S
H493   O596    0.988   .     S
H494   O597    0.988   .     S
H495   O598    0.988   .     S
H496   O602    0.991   .     S
H498   O605    0.991   .     S
H499   O608    0.991   .     S
H500   O612    0.991   .     S
H501   O615    0.991   .     S
H502   O618    0.991   .     S
H503   O621    0.991   .     S
H504   O625    0.991   .     S
H505   O628    0.991   .     S
H506   O631    0.991   .     S
H507   O520    0.991   .     S
H509   O523    0.991   .     S
H510   O526    0.991   .     S
H511   O530    0.991   .     S
H512   O533    0.991   .     S
H513   O536    0.991   .     S
O517   Zn649   1.945   .     S
O517   Zn660   1.945   .     S
O517   Zn652   1.945   .     S
O517   Zn1320  1.945   1_545 S
O518   C1054   1.279   .     A
O518   Zn651   1.936   .     S
O519   S635    1.503   .     D
O520   S635    1.681   .     S
O521   S636    1.504   .     D
O522   S636    1.503   .     D
O523   S636    1.681   .     S
O524   S637    1.504   .     D
O525   S637    1.503   .     D
O526   S637    1.681   .     S
O527   S638    1.504   .     D
O528   S638    1.503   .     D
O529   Zn654   1.936   .     S
O529   C59     1.279   1_655 A
O530   S638    1.681   .     S
O531   S639    1.504   .     D
O532   S639    1.503   .     D
O533   S639    1.681   .     S
O534   S640    1.504   .     D
O535   S640    1.503   .     D
O536   S640    1.681   .     S
O537   Zn653   1.936   .     S
O538   Zn663   1.936   .     S
O539   Zn662   1.936   .     S
O540   Zn657   1.936   .     S
O541   Zn649   1.936   .     S
O542   Zn659   1.936   .     S
O543   Zn658   1.936   .     S
O544   Zn661   1.936   .     S
O545   Zn661   1.945   .     S
O545   Zn657   1.945   .     S
O545   Zn655   1.945   .     S
O545   Zn1315  1.945   1_545 S
O546   Zn660   1.936   .     S
O547   Zn652   1.938   .     S
O548   Zn651   1.938   .     S
O549   Zn654   1.938   .     S
O550   Zn653   1.938   .     S
O551   Zn656   1.938   .     S
O552   Zn655   1.938   .     S
O553   Zn650   1.938   .     S
O554   Zn664   1.938   .     S
O555   Zn651   1.938   .     S
O556   Zn662   1.945   .     S
O556   Zn658   1.945   .     S
O556   Zn650   1.945   .     S
O557   Zn652   1.938   .     S
O558   Zn664   1.938   .     S
O559   Zn650   1.938   .     S
O560   Zn655   1.938   .     S
O561   Zn656   1.938   .     S
O562   Zn653   1.938   .     S
O563   Zn654   1.938   .     S
O564   Zn327   1.938   1_655 S
O565   Zn658   1.938   .     S
O566   Zn1325  1.938   .     S
O567   Zn659   1.945   .     S
O567   Zn663   1.945   .     S
O567   Zn653   1.945   .     S
O568   Zn660   1.938   .     S
O569   Zn663   1.938   .     S
O570   Zn330   1.938   1_655 S
O571   Zn657   1.938   .     S
O572   Zn1313  1.938   .     S
O573   Zn326   1.938   1_655 S
O574   Zn659   1.938   .     S
O575   Zn649   1.938   .     S
O576   Zn1321  1.938   .     S
O577   Zn662   1.938   .     S
O578   C1053   1.279   .     A
O578   Zn656   1.936   .     S
O579   Zn331   1.938   1_655 S
O580   Zn1324  1.938   .     S
O581   Zn661   1.938   .     S
O582   H479    0.988   1_554 S
O583   H480    0.988   1_556 S
O584   H481    0.988   1_554 S
O585   H482    0.988   1_556 S
O586   H483    0.988   1_554 S
O587   H484    0.988   1_556 S
O588   H485    0.988   1_554 S
O589   Zn655   1.936   .     S
O590   H487    0.988   1_556 S
O599   S633    1.504   .     D
O600   Zn650   1.936   .     S
O601   S633    1.503   .     D
O602   S633    1.681   .     S
O603   S641    1.503   .     D
O604   S641    1.503   .     D
O605   S641    1.681   .     S
O606   S642    1.504   .     D
O607   S642    1.503   .     D
O608   S642    1.681   .     S
O609   S643    1.504   .     D
O610   S643    1.503   .     D
O611   Zn664   1.936   .     S
O611   C60     1.279   1_655 S
O612   S643    1.681   .     S
O613   S644    1.504   .     D
O614   S644    1.503   .     D
O615   S644    1.681   .     S
O616   S645    1.504   .     D
O617   S645    1.503   .     D
O618   S645    1.681   .     S
O619   S646    1.504   .     D
O620   S646    1.503   .     D
O621   S646    1.681   .     S
O622   Zn652   1.936   .     S
O623   S647    1.504   .     D
O624   S647    1.503   .     D
O625   S647    1.681   .     S
O626   S648    1.504   .     D
O627   S648    1.503   .     D
O628   S648    1.681   .     S
O629   S634    1.504   .     D
O630   S634    1.503   .     D
O631   S634    1.681   .     S
O632   S635    1.504   .     D
Zn649  O1236   1.938   1_545 S
Zn651  O1209   1.945   .     S
Zn654  O224    1.945   1_655 S
Zn656  O1181   1.945   .     S
Zn657  O1240   1.938   1_545 S
Zn660  O1244   1.938   1_545 S
Zn661  O1230   1.938   1_545 S
Zn664  O235    1.945   1_655 S
C665   C694    1.402   .     A
C665   O914    1.385   .     S
C666   C717    1.417   .     A
C666   C704    1.402   .     A
C666   O924    1.385   .     S
C667   C767    1.402   .     A
C667   C760    1.402   .     A
C667   C731    1.456   .     S
C668   C732    1.456   .     S
C668   C770    1.402   .     A
C668   C759    1.402   .     A
C669   C769    1.402   .     A
C669   C758    1.402   .     A
C669   C733    1.456   .     S
C670   C757    1.402   .     A
C670   C734    1.456   .     S
C670   C772    1.402   .     A
C671   C756    1.402   .     A
C671   C771    1.402   .     A
C671   C735    1.456   .     S
C672   C775    1.402   .     A
C672   C745    1.456   .     S
C672   C755    1.402   .     A
C673   C754    1.402   .     A
C673   C746    1.456   .     S
C673   C773    1.402   .     A
C674   C777    1.402   .     A
C674   C753    1.402   .     A
C674   C738    1.456   .     S
C675   C776    1.402   .     A
C675   C751    1.402   .     A
C675   C739    1.456   .     S
C676   C779    1.402   .     A
C676   C750    1.402   .     A
C676   C740    1.456   .     S
C677   C54     1.417   1_565 A
C677   C705    1.402   .     A
C677   O925    1.385   .     S
C678   C778    1.402   .     A
C678   C749    1.402   .     A
C678   C742    1.456   .     S
C679   C748    1.402   .     A
C679   C743    1.456   .     S
C679   C781    1.402   .     A
C680   C744    1.456   .     S
C680   C780    1.402   .     A
C680   C747    1.402   .     A
C681   C64     1.460   1_565 S
C681   C699    1.415   .     A
C681   C30     1.415   1_565 S
C682   C700    1.415   .     A
C682   C31     1.415   1_565 S
C682   C63     1.460   1_565 S
C683   C701    1.415   .     A
C683   C726    1.460   .     S
C683   C1028   1.415   1_455 S
C684   C725    1.460   .     S
C684   C702    1.415   .     A
C684   C1030   1.415   1_455 S
C685   C724    1.460   .     S
C685   C707    1.415   .     A
C685   C1035   1.415   1_455 S
C686   C1041   1.415   1_455 A
C686   C723    1.460   .     S
C686   C704    1.415   .     S
C687   C722    1.460   .     S
C687   C710    1.415   .     S
C688   C706    1.402   .     A
C688   O926    1.385   .     S
C689   C721    1.460   .     S
C689   C706    1.415   .     S
C690   O927    1.385   .     S
C690   C707    1.402   .     A
C690   C716    1.417   .     A
C691   O928    1.385   .     S
C691   C709    1.402   .     A
C691   C1049   1.417   .     S
C692   C710    1.402   .     A
C692   O929    1.385   .     S
C692   C718    1.417   .     S
C693   O930    1.385   .     S
C693   C711    1.402   .     A
C693   C720    1.417   .     A
C694   S965    1.788   .     S
C695   S973    1.788   .     S
C695   C697    1.402   .     A
C696   S974    1.788   .     S
C696   C708    1.402   .     A
C696   C1015   1.415   .     S
C697   O915    1.385   .     S
C698   C719    1.402   .     A
C698   S975    1.788   .     S
C698   C1016   1.415   .     S
C699   C730    1.402   .     A
C699   S976    1.788   .     S
C700   C741    1.402   .     A
C700   S977    1.788   .     S
C701   S978    1.788   .     S
C701   C752    1.402   .     A
C702   S979    1.788   .     S
C702   C763    1.402   .     A
C703   C774    1.402   .     A
C703   S980    1.788   .     S
C703   C1017   1.415   .     S
C704   S966    1.788   .     S
C705   S967    1.788   .     S
C705   C23     1.415   1_565 A
C706   S968    1.788   .     S
C707   S969    1.788   .     S
C708   O916    1.385   .     S
C708   C1046   1.417   .     S
C709   C1018   1.415   .     A
C709   S970    1.788   .     S
C710   S971    1.788   .     S
C711   C25     1.415   1_565 A
C711   S972    1.788   .     S
C712   C730    1.417   .     A
C712   C1      1.417   1_565 S
C712   C713    1.474   1_554 S
C713   C741    1.417   .     A
C713   C712    1.474   1_556 S
C713   C33     1.417   1_565 S
C714   C752    1.417   .     A
C714   C1040   1.417   1_455 S
C714   C715    1.474   1_554 S
C715   C763    1.417   .     A
C715   C714    1.474   1_556 S
C715   C1051   1.417   1_455 S
C716   C717    1.474   .     S
C716   C1106   1.417   1_455 S
C717   C1023   1.417   1_455 S
C719   O917    1.385   .     S
C719   C1047   1.417   .     S
C720   C54     1.474   1_565 S
C720   C24     1.417   1_565 S
C721   O954    1.279   .     S
C722   O921    1.279   .     S
C723   O1193   1.279   1_455 A
C723   O932    1.279   .     S
C724   O869    1.279   .     A
C724   O1275   1.279   1_455 S
C725   O870    1.279   .     A
C725   O874    1.279   .     S
C726   O871    1.279   .     A
C726   O875    1.279   .     A
C727   O876    1.279   .     A
C727   O872    1.279   .     A
C728   O873    1.279   .     S
C728   O878    1.279   .     S
C729   C784    1.456   .     S
C729   O879    1.279   .     A
C729   O907    1.279   .     A
C730   O918    1.385   .     S
C731   O908    1.279   .     A
C731   O880    1.279   .     A
C732   O905    1.279   .     A
C732   O881    1.279   .     A
C733   O906    1.279   .     A
C733   O882    1.279   .     A
C734   O912    1.279   .     A
C734   O883    1.279   .     A
C735   O884    1.279   .     A
C735   O913    1.279   .     A
C736   C782    1.456   .     S
C736   O909    1.279   .     A
C736   O885    1.279   .     A
C737   C783    1.456   .     S
C737   O911    1.279   .     A
C737   O886    1.279   .     A
C738   O898    1.279   .     A
C738   O887    1.279   .     A
C739   O889    1.279   .     A
C739   O900    1.279   .     A
C740   O896    1.279   .     A
C740   O890    1.279   .     A
C741   O919    1.385   .     S
C742   O891    1.279   .     A
C742   O897    1.279   .     A
C743   O892    1.279   .     A
C743   O903    1.279   .     A
C744   O893    1.279   .     A
C744   O904    1.279   .     A
C745   O894    1.279   .     A
C745   O901    1.279   .     A
C746   O895    1.279   .     A
C746   O902    1.279   .     A
C747   H785    1.083   .     S
C747   C764    1.387   .     A
C748   H796    1.083   .     S
C748   C762    1.387   .     A
C749   C761    1.387   .     A
C749   H807    1.083   .     S
C750   H818    1.083   .     S
C750   C760    1.387   .     A
C751   H829    1.083   .     S
C751   C759    1.387   .     A
C752   O920    1.385   .     S
C753   C758    1.387   .     A
C753   H840    1.083   .     S
C754   C757    1.387   .     A
C754   H846    1.083   .     S
C755   C756    1.387   .     A
C755   H847    1.083   .     S
C756   H848    1.083   .     S
C757   H786    1.083   .     S
C758   H787    1.083   .     S
C759   H788    1.083   .     S
C760   H789    1.083   .     S
C761   H790    1.083   .     S
C761   C784    1.402   .     A
C762   H791    1.083   .     S
C762   C783    1.402   .     A
C763   O922    1.385   .     S
C764   H792    1.083   .     S
C764   C782    1.402   .     A
C765   H793    1.083   .     S
C765   C781    1.387   .     A
C765   C783    1.402   .     A
C766   H794    1.083   .     S
C766   C782    1.402   .     A
C766   C780    1.387   .     A
C767   H795    1.083   .     S
C767   C779    1.387   .     A
C768   C784    1.402   .     A
C768   H797    1.083   .     S
C768   C778    1.387   .     A
C769   C777    1.387   .     A
C769   H798    1.083   .     S
C770   C776    1.387   .     A
C770   H799    1.083   .     S
C771   H800    1.083   .     S
C771   C775    1.387   .     A
C772   C773    1.387   .     A
C772   H801    1.083   .     S
C773   H802    1.083   .     S
C774   O923    1.385   .     S
C774   C1048   1.417   .     S
C775   H803    1.083   .     S
C776   H804    1.083   .     S
C777   H805    1.083   .     S
C778   H806    1.083   .     S
C779   H808    1.083   .     S
C780   H809    1.083   .     S
C781   H810    1.083   .     S
H811   O914    0.988   1_556 S
H812   O915    0.988   1_554 S
H813   O916    0.988   1_556 S
H814   O917    0.988   1_554 S
H815   O918    0.988   1_556 S
H816   O919    0.988   1_554 S
H817   O920    0.988   1_556 S
H819   O922    0.988   1_554 S
H820   O923    0.988   .     S
H821   O924    0.988   .     S
H822   O925    0.988   .     S
H823   O926    0.988   .     S
H824   O927    0.988   .     S
H825   O928    0.988   .     S
H826   O929    0.988   .     S
H827   O930    0.988   .     S
H828   O934    0.991   .     S
H830   O937    0.991   .     S
H831   O940    0.991   .     S
H832   O944    0.991   .     S
H833   O947    0.991   .     S
H834   O950    0.991   .     S
H835   O953    0.991   .     S
H836   O957    0.991   .     S
H837   O960    0.991   .     S
H838   O963    0.991   .     S
H839   O852    0.991   .     S
H841   O855    0.991   .     S
H842   O858    0.991   .     S
H843   O862    0.991   .     S
H844   O865    0.991   .     S
H845   O868    0.991   .     S
O849   Zn981   1.945   .     S
O849   Zn992   1.945   .     S
O849   Zn984   1.945   .     S
O850   C58     1.279   1_565 A
O850   Zn983   1.936   .     S
O851   S967    1.503   .     D
O852   S967    1.681   .     S
O853   S968    1.504   .     D
O854   S968    1.503   .     D
O855   S968    1.681   .     S
O856   S969    1.504   .     D
O857   S969    1.503   .     D
O858   S969    1.681   .     S
O859   S970    1.504   .     D
O860   S970    1.503   .     D
O861   Zn986   1.936   .     S
O861   C1055   1.279   .     A
O862   S970    1.681   .     S
O863   S971    1.504   .     D
O864   S971    1.503   .     D
O865   S971    1.681   .     S
O866   S972    1.504   .     D
O867   S972    1.503   .     D
O868   S972    1.681   .     S
O869   Zn985   1.936   .     S
O870   Zn995   1.936   .     S
O871   Zn994   1.936   .     S
O872   Zn989   1.936   .     S
O873   Zn981   1.936   .     S
O874   Zn991   1.936   .     S
O875   Zn990   1.936   .     S
O876   Zn993   1.936   .     S
O877   Zn993   1.945   .     S
O877   Zn989   1.945   .     S
O877   Zn987   1.945   .     S
O878   Zn992   1.936   .     S
O879   Zn984   1.938   .     S
O880   Zn983   1.938   .     S
O881   Zn986   1.938   .     S
O882   Zn985   1.938   .     S
O883   Zn988   1.938   .     S
O884   Zn987   1.938   .     S
O885   Zn982   1.938   .     S
O886   Zn996   1.938   .     S
O887   Zn983   1.938   .     S
O888   Zn994   1.945   .     S
O888   Zn990   1.945   .     S
O888   Zn982   1.945   .     S
O888   Zn1318  1.945   1_455 S
O889   Zn984   1.938   .     S
O890   Zn996   1.938   .     S
O891   Zn982   1.938   .     S
O892   Zn987   1.938   .     S
O893   Zn988   1.938   .     S
O894   Zn985   1.938   .     S
O895   Zn986   1.938   .     S
O896   Zn1323  1.938   .     S
O897   Zn990   1.938   .     S
O898   Zn329   1.938   1_565 S
O899   Zn991   1.945   .     S
O899   Zn995   1.945   .     S
O899   Zn985   1.945   .     S
O899   Zn1328  1.945   1_455 S
O900   Zn992   1.938   .     S
O901   Zn995   1.938   .     S
O902   Zn1326  1.938   .     S
O903   Zn989   1.938   .     S
O904   Zn317   1.938   1_565 S
O905   Zn1322  1.938   .     S
O906   Zn991   1.938   .     S
O907   Zn981   1.938   .     S
O908   Zn325   1.938   1_565 S
O909   Zn994   1.938   .     S
O910   C57     1.279   1_565 A
O910   Zn988   1.936   .     S
O911   Zn1327  1.938   .     S
O912   Zn328   1.938   1_565 S
O913   Zn993   1.938   .     S
O914   H811    0.988   1_554 S
O915   H812    0.988   1_556 S
O916   H813    0.988   1_554 S
O917   H814    0.988   1_556 S
O918   H815    0.988   1_554 S
O919   H816    0.988   1_556 S
O920   H817    0.988   1_554 S
O921   Zn987   1.936   .     S
O922   H819    0.988   1_556 S
O931   S965    1.504   .     D
O932   Zn982   1.936   .     S
O933   S965    1.503   .     D
O934   S965    1.681   .     S
O935   S973    1.503   .     D
O936   S973    1.503   .     D
O937   S973    1.681   .     S
O938   S974    1.504   .     D
O939   S974    1.503   .     D
O940   S974    1.681   .     S
O941   S975    1.504   .     D
O942   S975    1.503   .     D
O943   Zn996   1.936   .     S
O943   C1056   1.279   .     S
O944   S975    1.681   .     S
O945   S976    1.504   .     D
O946   S976    1.503   .     D
O947   S976    1.681   .     S
O948   S977    1.504   .     D
O949   S977    1.503   .     D
O950   S977    1.681   .     S
O951   S978    1.504   .     D
O952   S978    1.503   .     D
O953   S978    1.681   .     S
O954   Zn984   1.936   .     S
O955   S979    1.504   .     D
O956   S979    1.503   .     D
O957   S979    1.681   .     S
O958   S980    1.504   .     D
O959   S980    1.503   .     D
O960   S980    1.681   .     S
O961   S966    1.504   .     D
O962   S966    1.503   .     D
O963   S966    1.681   .     S
O964   S967    1.504   .     D
Zn983  O213    1.945   1_565 S
Zn986  O1220   1.945   .     S
Zn988  O185    1.945   1_565 S
Zn990  O1237   1.938   1_455 S
Zn991  O1228   1.938   1_455 S
Zn994  O1234   1.938   1_455 S
Zn995  O1243   1.938   1_455 S
Zn996  O1231   1.945   .     S
C997   C1026   1.402   .     A
C997   O1246   1.385   .     S
C998   C1049   1.417   .     A
C998   C1036   1.402   .     A
C998   O1256   1.385   .     S
C999   C1099   1.402   .     A
C999   C1092   1.402   .     A
C999   C1063   1.456   .     S
C1000  C1064   1.456   .     S
C1000  C1102   1.402   .     A
C1000  C1091   1.402   .     A
C1001  C1101   1.402   .     A
C1001  C1090   1.402   .     A
C1001  C1065   1.456   .     S
C1002  C1089   1.402   .     A
C1002  C1066   1.456   .     S
C1002  C1104   1.402   .     A
C1003  C1088   1.402   .     A
C1003  C1103   1.402   .     A
C1003  C1067   1.456   .     S
C1004  C1107   1.402   .     A
C1004  C1077   1.456   .     S
C1004  C1087   1.402   .     A
C1005  C1086   1.402   .     A
C1005  C1078   1.456   .     S
C1005  C1105   1.402   .     A
C1006  C1109   1.402   .     A
C1006  C1085   1.402   .     A
C1006  C1070   1.456   .     S
C1007  C1108   1.402   .     A
C1007  C1083   1.402   .     A
C1007  C1071   1.456   .     S
C1008  C1111   1.402   .     A
C1008  C1082   1.402   .     A
C1008  C1072   1.456   .     S
C1009  C386    1.417   1_565 A
C1009  C1037   1.402   .     A
C1009  O1257   1.385   .     S
C1010  C1110   1.402   .     A
C1010  C1081   1.402   .     A
C1010  C1074   1.456   .     S
C1011  C1080   1.402   .     A
C1011  C1075   1.456   .     S
C1011  C1113   1.402   .     A
C1012  C1076   1.456   .     S
C1012  C1112   1.402   .     A
C1012  C1079   1.402   .     A
C1013  C396    1.460   1_565 S
C1013  C1031   1.415   .     A
C1013  C362    1.415   1_565 S
C1014  C1032   1.415   .     A
C1014  C363    1.415   1_565 S
C1014  C395    1.460   1_565 S
C1015  C1033   1.415   .     A
C1015  C1058   1.460   .     S
C1016  C1057   1.460   .     S
C1016  C1034   1.415   .     A
C1017  C1056   1.460   .     S
C1017  C1039   1.415   .     A
C1018  C1055   1.460   .     S
C1018  C1036   1.415   .     S
C1019  C1054   1.460   .     S
C1019  C1042   1.415   .     S
C1020  C1038   1.402   .     A
C1020  O1258   1.385   .     S
C1021  C1053   1.460   .     S
C1021  C1038   1.415   .     S
C1022  O1259   1.385   .     S
C1022  C1039   1.402   .     A
C1022  C1048   1.417   .     A
C1023  O1260   1.385   .     S
C1023  C1041   1.402   .     A
C1023  C717    1.417   1_655 S
C1024  C1042   1.402   .     A
C1024  O1261   1.385   .     S
C1024  C1050   1.417   .     S
C1025  O1262   1.385   .     S
C1025  C1043   1.402   .     A
C1025  C1052   1.417   .     A
C1026  S1297   1.788   .     S
C1027  S1305   1.788   .     S
C1027  C1029   1.402   .     A
C1028  S1306   1.788   .     S
C1028  C1040   1.402   .     A
C1028  C683    1.415   1_655 S
C1029  O1247   1.385   .     S
C1030  C1051   1.402   .     A
C1030  S1307   1.788   .     S
C1030  C684    1.415   1_655 S
C1031  C1062   1.402   .     A
C1031  S1308   1.788   .     S
C1032  C1073   1.402   .     A
C1032  S1309   1.788   .     S
C1033  S1310   1.788   .     S
C1033  C1084   1.402   .     A
C1034  S1311   1.788   .     S
C1034  C1095   1.402   .     A
C1035  C1106   1.402   .     A
C1035  S1312   1.788   .     S
C1035  C685    1.415   1_655 S
C1036  S1298   1.788   .     S
C1037  S1299   1.788   .     S
C1037  C355    1.415   1_565 A
C1038  S1300   1.788   .     S
C1039  S1301   1.788   .     S
C1040  O1248   1.385   .     S
C1040  C714    1.417   1_655 S
C1041  C686    1.415   1_655 A
C1041  S1302   1.788   .     S
C1042  S1303   1.788   .     S
C1043  C357    1.415   1_565 A
C1043  S1304   1.788   .     S
C1044  C1062   1.417   .     A
C1044  C333    1.417   1_565 S
C1044  C1045   1.474   1_554 S
C1045  C1073   1.417   .     A
C1045  C1044   1.474   1_556 S
C1045  C365    1.417   1_565 S
C1046  C1084   1.417   .     A
C1046  C1047   1.474   1_554 S
C1047  C1095   1.417   .     A
C1047  C1046   1.474   1_556 S
C1048  C1049   1.474   .     S
C1051  O1249   1.385   .     S
C1051  C715    1.417   1_655 S
C1052  C386    1.474   1_565 S
C1052  C356    1.417   1_565 S
C1053  O1286   1.279   .     S
C1054  O1253   1.279   .     S
C1055  O1264   1.279   .     S
C1056  O1201   1.279   .     A
C1057  O1202   1.279   .     A
C1057  O1206   1.279   .     S
C1058  O1203   1.279   .     A
C1058  O1207   1.279   .     A
C1059  O1208   1.279   .     A
C1059  O1204   1.279   .     A
C1060  O1205   1.279   .     S
C1060  O1210   1.279   .     S
C1061  C1116   1.456   .     S
C1061  O1211   1.279   .     A
C1061  O1239   1.279   .     A
C1062  O1250   1.385   .     S
C1063  O1240   1.279   .     A
C1063  O1212   1.279   .     A
C1064  O1237   1.279   .     A
C1064  O1213   1.279   .     A
C1065  O1238   1.279   .     A
C1065  O1214   1.279   .     A
C1066  O1244   1.279   .     A
C1066  O1215   1.279   .     A
C1067  O1216   1.279   .     A
C1067  O1245   1.279   .     A
C1068  C1114   1.456   .     S
C1068  O1241   1.279   .     A
C1068  O1217   1.279   .     A
C1069  C1115   1.456   .     S
C1069  O1243   1.279   .     A
C1069  O1218   1.279   .     A
C1070  O1230   1.279   .     A
C1070  O1219   1.279   .     A
C1071  O1221   1.279   .     A
C1071  O1232   1.279   .     A
C1072  O1228   1.279   .     A
C1072  O1222   1.279   .     A
C1073  O1251   1.385   .     S
C1074  O1223   1.279   .     A
C1074  O1229   1.279   .     A
C1075  O1224   1.279   .     A
C1075  O1235   1.279   .     A
C1076  O1225   1.279   .     A
C1076  O1236   1.279   .     A
C1077  O1226   1.279   .     A
C1077  O1233   1.279   .     A
C1078  O1227   1.279   .     A
C1078  O1234   1.279   .     A
C1079  H1117   1.083   .     S
C1079  C1096   1.387   .     A
C1080  H1128   1.083   .     S
C1080  C1094   1.387   .     A
C1081  C1093   1.387   .     A
C1081  H1139   1.083   .     S
C1082  H1150   1.083   .     S
C1082  C1092   1.387   .     A
C1083  H1161   1.083   .     S
C1083  C1091   1.387   .     A
C1084  O1252   1.385   .     S
C1085  C1090   1.387   .     A
C1085  H1172   1.083   .     S
C1086  C1089   1.387   .     A
C1086  H1178   1.083   .     S
C1087  C1088   1.387   .     A
C1087  H1179   1.083   .     S
C1088  H1180   1.083   .     S
C1089  H1118   1.083   .     S
C1090  H1119   1.083   .     S
C1091  H1120   1.083   .     S
C1092  H1121   1.083   .     S
C1093  H1122   1.083   .     S
C1093  C1116   1.402   .     A
C1094  H1123   1.083   .     S
C1094  C1115   1.402   .     A
C1095  O1254   1.385   .     S
C1096  H1124   1.083   .     S
C1096  C1114   1.402   .     A
C1097  H1125   1.083   .     S
C1097  C1113   1.387   .     A
C1097  C1115   1.402   .     A
C1098  H1126   1.083   .     S
C1098  C1114   1.402   .     A
C1098  C1112   1.387   .     A
C1099  H1127   1.083   .     S
C1099  C1111   1.387   .     A
C1100  C1116   1.402   .     A
C1100  H1129   1.083   .     S
C1100  C1110   1.387   .     A
C1101  C1109   1.387   .     A
C1101  H1130   1.083   .     S
C1102  C1108   1.387   .     A
C1102  H1131   1.083   .     S
C1103  H1132   1.083   .     S
C1103  C1107   1.387   .     A
C1104  C1105   1.387   .     A
C1104  H1133   1.083   .     S
C1105  H1134   1.083   .     S
C1106  O1255   1.385   .     S
C1106  C716    1.417   1_655 S
C1107  H1135   1.083   .     S
C1108  H1136   1.083   .     S
C1109  H1137   1.083   .     S
C1110  H1138   1.083   .     S
C1111  H1140   1.083   .     S
C1112  H1141   1.083   .     S
C1113  H1142   1.083   .     S
H1143  O1246   0.988   1_556 S
H1144  O1247   0.988   1_554 S
H1145  O1248   0.988   1_556 S
H1146  O1249   0.988   1_554 S
H1147  O1250   0.988   1_556 S
H1148  O1251   0.988   1_554 S
H1149  O1252   0.988   1_556 S
H1151  O1254   0.988   1_554 S
H1152  O1255   0.988   .     S
H1153  O1256   0.988   .     S
H1154  O1257   0.988   .     S
H1155  O1258   0.988   .     S
H1156  O1259   0.988   .     S
H1157  O1260   0.988   .     S
H1158  O1261   0.988   .     S
H1159  O1262   0.988   .     S
H1160  O1266   0.991   .     S
H1162  O1269   0.991   .     S
H1163  O1272   0.991   .     S
H1164  O1276   0.991   .     S
H1165  O1279   0.991   .     S
H1166  O1282   0.991   .     S
H1167  O1285   0.991   .     S
H1168  O1289   0.991   .     S
H1169  O1292   0.991   .     S
H1170  O1295   0.991   .     S
H1171  O1184   0.991   .     S
H1173  O1187   0.991   .     S
H1174  O1190   0.991   .     S
H1175  O1194   0.991   .     S
H1176  O1197   0.991   .     S
H1177  O1200   0.991   .     S
O1181  Zn1313  1.945   .     S
O1181  Zn1324  1.945   .     S
O1181  Zn1316  1.945   .     S
O1182  C390    1.279   1_565 A
O1182  Zn1315  1.936   .     S
O1183  S1299   1.503   .     D
O1184  S1299   1.681   .     S
O1185  S1300   1.504   .     D
O1186  S1300   1.503   .     D
O1187  S1300   1.681   .     S
O1188  S1301   1.504   .     D
O1189  S1301   1.503   .     D
O1190  S1301   1.681   .     S
O1191  S1302   1.504   .     D
O1192  S1302   1.503   .     D
O1193  Zn1318  1.936   .     S
O1193  C723    1.279   1_655 A
O1194  S1302   1.681   .     S
O1195  S1303   1.504   .     D
O1196  S1303   1.503   .     D
O1197  S1303   1.681   .     S
O1198  S1304   1.504   .     D
O1199  S1304   1.503   .     D
O1200  S1304   1.681   .     S
O1201  Zn1317  1.936   .     S
O1202  Zn1327  1.936   .     S
O1203  Zn1326  1.936   .     S
O1204  Zn1321  1.936   .     S
O1205  Zn1313  1.936   .     S
O1206  Zn1323  1.936   .     S
O1207  Zn1322  1.936   .     S
O1208  Zn1325  1.936   .     S
O1209  Zn1325  1.945   .     S
O1209  Zn1321  1.945   .     S
O1209  Zn1319  1.945   .     S
O1210  Zn1324  1.936   .     S
O1211  Zn1316  1.938   .     S
O1212  Zn1315  1.938   .     S
O1213  Zn1318  1.938   .     S
O1214  Zn1317  1.938   .     S
O1215  Zn1320  1.938   .     S
O1216  Zn1319  1.938   .     S
O1217  Zn1314  1.938   .     S
O1218  Zn1328  1.938   .     S
O1219  Zn1315  1.938   .     S
O1220  Zn1326  1.945   .     S
O1220  Zn1322  1.945   .     S
O1220  Zn1314  1.945   .     S
O1221  Zn1316  1.938   .     S
O1222  Zn1328  1.938   .     S
O1223  Zn1314  1.938   .     S
O1224  Zn1319  1.938   .     S
O1225  Zn1320  1.938   .     S
O1226  Zn1317  1.938   .     S
O1227  Zn1318  1.938   .     S
O1228  Zn991   1.938   1_655 S
O1229  Zn1322  1.938   .     S
O1230  Zn661   1.938   1_565 S
O1231  Zn1323  1.945   .     S
O1231  Zn1327  1.945   .     S
O1231  Zn1317  1.945   .     S
O1232  Zn1324  1.938   .     S
O1233  Zn1327  1.938   .     S
O1234  Zn994   1.938   1_655 S
O1235  Zn1321  1.938   .     S
O1236  Zn649   1.938   1_565 S
O1237  Zn990   1.938   1_655 S
O1238  Zn1323  1.938   .     S
O1239  Zn1313  1.938   .     S
O1240  Zn657   1.938   1_565 S
O1241  Zn1326  1.938   .     S
O1242  C389    1.279   1_565 A
O1242  Zn1320  1.936   .     S
O1243  Zn995   1.938   1_655 S
O1244  Zn660   1.938   1_565 S
O1245  Zn1325  1.938   .     S
O1246  H1143   0.988   1_554 S
O1247  H1144   0.988   1_556 S
O1248  H1145   0.988   1_554 S
O1249  H1146   0.988   1_556 S
O1250  H1147   0.988   1_554 S
O1251  H1148   0.988   1_556 S
O1252  H1149   0.988   1_554 S
O1253  Zn1319  1.936   .     S
O1254  H1151   0.988   1_556 S
O1263  S1297   1.504   .     D
O1264  Zn1314  1.936   .     S
O1265  S1297   1.503   .     D
O1266  S1297   1.681   .     S
O1267  S1305   1.503   .     D
O1268  S1305   1.503   .     D
O1269  S1305   1.681   .     S
O1270  S1306   1.504   .     D
O1271  S1306   1.503   .     D
O1272  S1306   1.681   .     S
O1273  S1307   1.504   .     D
O1274  S1307   1.503   .     D
O1275  Zn1328  1.936   .     S
O1275  C724    1.279   1_655 S
O1276  S1307   1.681   .     S
O1277  S1308   1.504   .     D
O1278  S1308   1.503   .     D
O1279  S1308   1.681   .     S
O1280  S1309   1.504   .     D
O1281  S1309   1.503   .     D
O1282  S1309   1.681   .     S
O1283  S1310   1.504   .     D
O1284  S1310   1.503   .     D
O1285  S1310   1.681   .     S
O1286  Zn1316  1.936   .     S
O1287  S1311   1.504   .     D
O1288  S1311   1.503   .     D
O1289  S1311   1.681   .     S
O1290  S1312   1.504   .     D
O1291  S1312   1.503   .     D
O1292  S1312   1.681   .     S
O1293  S1298   1.504   .     D
O1294  S1298   1.503   .     D
O1295  S1298   1.681   .     S
O1296  S1299   1.504   .     D
Zn1315 O545    1.945   1_565 S
Zn1318 O888    1.945   1_655 S
Zn1320 O517    1.945   1_565 S
Zn1328 O899    1.945   1_655 S
