data_str_m1_o1_o2_pcu_sym.13
_audit_creation_date              2020-01-03
_audit_creation_method            'Materials Studio'
_symmetry_space_group_name_H-M    'P1'
_symmetry_Int_Tables_number       1
_symmetry_cell_setting            triclinic
loop_
_symmetry_equiv_pos_as_xyz
  x,y,z
_cell_length_a                    36.7090
_cell_length_b                    36.8691
_cell_length_c                    34.4041
_cell_angle_alpha                 89.8677
_cell_angle_beta                  89.8825
_cell_angle_gamma                 90.1414
loop_
_atom_site_label
_atom_site_type_symbol
_atom_site_fract_x
_atom_site_fract_y
_atom_site_fract_z
_atom_site_U_iso_or_equiv
_atom_site_adp_type
_atom_site_occupancy
Zn1    Zn    0.20660  -0.00000   0.21760   0.00000  Uiso   1.00
Zn2    Zn    0.29340  -0.00000   0.78240   0.00000  Uiso   1.00
Zn3    Zn    0.00000   0.20660   0.21760   0.00000  Uiso   1.00
Zn4    Zn    0.00000   0.29340   0.78240   0.00000  Uiso   1.00
Zn5    Zn    0.29340  -0.00000   0.21760   0.00000  Uiso   1.00
Zn6    Zn    0.20660  -0.00000   0.78240   0.00000  Uiso   1.00
Zn7    Zn    0.00000   0.29340   0.21760   0.00000  Uiso   1.00
Zn8    Zn    0.00000   0.20660   0.78240   0.00000  Uiso   1.00
Zn9    Zn    0.45660   0.25000   0.71760   0.00000  Uiso   1.00
Zn10   Zn    0.04340   0.25000   0.28240   0.00000  Uiso   1.00
Zn11   Zn    0.25000   0.45660   0.71760   0.00000  Uiso   1.00
Zn12   Zn    0.25000   0.04340   0.28240   0.00000  Uiso   1.00
Zn13   Zn    0.04340   0.25000   0.71760   0.00000  Uiso   1.00
Zn14   Zn    0.45660   0.25000   0.28240   0.00000  Uiso   1.00
Zn15   Zn    0.25000   0.04340   0.71760   0.00000  Uiso   1.00
Zn16   Zn    0.25000   0.45660   0.28240   0.00000  Uiso   1.00
C17    C     0.23380   0.47156   0.04158   0.00000  Uiso   1.00
C18    C     0.26540   0.47109   0.95861   0.00000  Uiso   1.00
C19    C     0.03253   0.25009   0.04161   0.00000  Uiso   1.00
C20    C     0.02325   0.27321   0.95842   0.00000  Uiso   1.00
C21    C     0.26631   0.02879   0.04134   0.00000  Uiso   1.00
C22    C     0.23456   0.02908   0.95842   0.00000  Uiso   1.00
C23    C     0.46661   0.25138   0.04223   0.00000  Uiso   1.00
C24    C     0.47540   0.22789   0.95870   0.00000  Uiso   1.00
C25    C     0.48476   0.22136   0.54160   0.00000  Uiso   1.00
C26    C     0.48443   0.27932   0.45831   0.00000  Uiso   1.00
C27    C     0.28257   0.49987   0.54162   0.00000  Uiso   1.00
C28    C     0.27339   0.02310   0.45841   0.00000  Uiso   1.00
C29    C     0.01520   0.27971   0.54139   0.00000  Uiso   1.00
C30    C     0.01541   0.22142   0.45869   0.00000  Uiso   1.00
C31    C     0.21666   0.00160   0.54221   0.00000  Uiso   1.00
C32    C     0.22537   0.47796   0.45871   0.00000  Uiso   1.00
H33    H     0.22147   0.44938   0.02566   0.00000  Uiso   1.00
H34    H     0.27712   0.44871   0.97474   0.00000  Uiso   1.00
H35    H     0.05784   0.24952   0.02540   0.00000  Uiso   1.00
H36    H     0.04170   0.29086   0.97409   0.00000  Uiso   1.00
H37    H     0.27868   0.05091   0.02519   0.00000  Uiso   1.00
H38    H     0.22287   0.05154   0.97438   0.00000  Uiso   1.00
H39    H     0.44104   0.25224   0.02658   0.00000  Uiso   1.00
H40    H     0.45677   0.21048   0.97461   0.00000  Uiso   1.00
H41    H     0.47324   0.19873   0.52571   0.00000  Uiso   1.00
H42    H     0.47264   0.30179   0.47418   0.00000  Uiso   1.00
H43    H     0.30788   0.49914   0.52541   0.00000  Uiso   1.00
H44    H     0.29191   0.04068   0.47408   0.00000  Uiso   1.00
H45    H     0.02680   0.30224   0.52526   0.00000  Uiso   1.00
H46    H     0.02718   0.19911   0.47489   0.00000  Uiso   1.00
H47    H     0.19110   0.00263   0.52656   0.00000  Uiso   1.00
H48    H     0.20668   0.46062   0.47462   0.00000  Uiso   1.00
C49    C     0.23381   0.47101   0.08218   0.00000  Uiso   1.00
C50    C     0.26550   0.47046   0.91798   0.00000  Uiso   1.00
C51    C     0.03343   0.25066   0.08219   0.00000  Uiso   1.00
C52    C     0.02436   0.27269   0.91790   0.00000  Uiso   1.00
C53    C     0.26655   0.02928   0.08197   0.00000  Uiso   1.00
C54    C     0.23444   0.02952   0.91780   0.00000  Uiso   1.00
C55    C     0.46634   0.25087   0.08282   0.00000  Uiso   1.00
C56    C     0.47481   0.22781   0.91813   0.00000  Uiso   1.00
C57    C     0.48500   0.22072   0.58217   0.00000  Uiso   1.00
C58    C     0.48436   0.27966   0.41769   0.00000  Uiso   1.00
C59    C     0.28346   0.00043   0.58220   0.00000  Uiso   1.00
C60    C     0.27447   0.02260   0.41789   0.00000  Uiso   1.00
C61    C     0.01554   0.28014   0.58204   0.00000  Uiso   1.00
C62    C     0.01549   0.22064   0.41807   0.00000  Uiso   1.00
C63    C     0.21637   0.00111   0.58281   0.00000  Uiso   1.00
C64    C     0.22477   0.47788   0.41813   0.00000  Uiso   1.00
O65    O     0.25000  -0.00000   0.25000   0.00000  Uiso   1.00
O66    O     0.25000  -0.00000   0.75000   0.00000  Uiso   1.00
O67    O     0.00000   0.25000   0.25000   0.00000  Uiso   1.00
O68    O     0.00000   0.25000   0.75000   0.00000  Uiso   1.00
O69    O     0.25000   0.46964   0.33683   0.00000  Uiso   1.00
O70    O     0.25000   0.03036   0.66317   0.00000  Uiso   1.00
O71    O     0.03036   0.25000   0.33683   0.00000  Uiso   1.00
O72    O     0.46964   0.25000   0.66317   0.00000  Uiso   1.00
O73    O     0.25000   0.03036   0.33683   0.00000  Uiso   1.00
O74    O     0.25000   0.46964   0.66317   0.00000  Uiso   1.00
O75    O     0.46964   0.25000   0.33683   0.00000  Uiso   1.00
O76    O     0.03036   0.25000   0.66317   0.00000  Uiso   1.00
O77    O     0.00000   0.21964   0.83683   0.00000  Uiso   1.00
O78    O     0.00000   0.28036   0.16317   0.00000  Uiso   1.00
O79    O     0.28036  -0.00000   0.83683   0.00000  Uiso   1.00
O80    O     0.21964  -0.00000   0.16317   0.00000  Uiso   1.00
O81    O     0.00000   0.28036   0.83683   0.00000  Uiso   1.00
O82    O     0.00000   0.21964   0.16317   0.00000  Uiso   1.00
O83    O     0.21964  -0.00000   0.83683   0.00000  Uiso   1.00
O84    O     0.28036  -0.00000   0.16317   0.00000  Uiso   1.00
O85    O     0.20726   0.07307   0.27282   0.00000  Uiso   1.00
O86    O     0.29275   0.42693   0.72718   0.00000  Uiso   1.00
O87    O     0.42693   0.20725   0.27282   0.00000  Uiso   1.00
O88    O     0.07307   0.29274   0.72718   0.00000  Uiso   1.00
O89    O     0.29275   0.42693   0.27282   0.00000  Uiso   1.00
O90    O     0.20726   0.07307   0.72718   0.00000  Uiso   1.00
O91    O     0.07307   0.29274   0.27282   0.00000  Uiso   1.00
O92    O     0.42693   0.20725   0.72718   0.00000  Uiso   1.00
O93    O     0.20726   0.42693   0.72718   0.00000  Uiso   1.00
O94    O     0.29275   0.07307   0.27282   0.00000  Uiso   1.00
O95    O     0.42693   0.29274   0.72718   0.00000  Uiso   1.00
O96    O     0.07307   0.20725   0.27282   0.00000  Uiso   1.00
O97    O     0.29275   0.07307   0.72718   0.00000  Uiso   1.00
O98    O     0.20726   0.42693   0.27282   0.00000  Uiso   1.00
O99    O     0.07307   0.20725   0.72718   0.00000  Uiso   1.00
O100   O     0.42693   0.29274   0.27282   0.00000  Uiso   1.00
O101   O     0.45726   0.32307   0.77282   0.00000  Uiso   1.00
O102   O     0.04275   0.17693   0.22718   0.00000  Uiso   1.00
O103   O     0.17693   0.45725   0.77282   0.00000  Uiso   1.00
O104   O     0.32307   0.04274   0.22718   0.00000  Uiso   1.00
O105   O     0.04275   0.17693   0.77282   0.00000  Uiso   1.00
O106   O     0.45726   0.32307   0.22718   0.00000  Uiso   1.00
O107   O     0.32307   0.04274   0.77282   0.00000  Uiso   1.00
O108   O     0.17693   0.45725   0.22718   0.00000  Uiso   1.00
O109   O     0.45726   0.17693   0.22718   0.00000  Uiso   1.00
O110   O     0.04275   0.32307   0.77282   0.00000  Uiso   1.00
O111   O     0.17693   0.04274   0.22718   0.00000  Uiso   1.00
O112   O     0.32307   0.45725   0.77282   0.00000  Uiso   1.00
O113   O     0.04275   0.32307   0.22718   0.00000  Uiso   1.00
O114   O     0.45726   0.17693   0.77282   0.00000  Uiso   1.00
O115   O     0.32307   0.45725   0.22718   0.00000  Uiso   1.00
O116   O     0.17693   0.04274   0.77282   0.00000  Uiso   1.00
C117   C     0.24999   0.00019   0.02125   0.00000  Uiso   1.00
C118   C     0.25000   0.00013   0.97872   0.00000  Uiso   1.00
C119   C     0.49944   0.25062   0.02159   0.00000  Uiso   1.00
C120   C     0.49927   0.25063   0.97891   0.00000  Uiso   1.00
C121   C     0.49984   0.25059   0.52127   0.00000  Uiso   1.00
C122   C     0.49992   0.25047   0.47872   0.00000  Uiso   1.00
C123   C     0.24948   0.00062   0.52159   0.00000  Uiso   1.00
C124   C     0.24933   0.00062   0.47891   0.00000  Uiso   1.00
C125   C     0.24994   0.49998   0.35507   0.00000  Uiso   1.00
C126   C     0.25010   0.00007   0.64506   0.00000  Uiso   1.00
C127   C     0.49997   0.24997   0.35508   0.00000  Uiso   1.00
C128   C     0.00006   0.25015   0.64492   0.00000  Uiso   1.00
C129   C     0.49994   0.24998   0.85507   0.00000  Uiso   1.00
C130   C     0.00010   0.25007   0.14506   0.00000  Uiso   1.00
C131   C     0.24997   0.49996   0.85508   0.00000  Uiso   1.00
C132   C     0.25004   0.00007   0.14491   0.00000  Uiso   1.00
C133   C     0.17993   0.06990   0.25004   0.00000  Uiso   1.00
C134   C     0.32006   0.42990   0.75021   0.00000  Uiso   1.00
C135   C     0.43003   0.17984   0.25043   0.00000  Uiso   1.00
C136   C     0.07011   0.31994   0.74973   0.00000  Uiso   1.00
C137   C     0.31990   0.42971   0.24956   0.00000  Uiso   1.00
C138   C     0.17961   0.06969   0.74912   0.00000  Uiso   1.00
C139   C     0.07016   0.32005   0.24988   0.00000  Uiso   1.00
C140   C     0.42983   0.18021   0.75019   0.00000  Uiso   1.00
C141   C     0.18009   0.42981   0.75058   0.00000  Uiso   1.00
C142   C     0.32017   0.06983   0.24994   0.00000  Uiso   1.00
C143   C     0.42994   0.31991   0.75003   0.00000  Uiso   1.00
C144   C     0.07004   0.17988   0.25023   0.00000  Uiso   1.00
C145   C     0.32016   0.06996   0.75005   0.00000  Uiso   1.00
C146   C     0.17989   0.43021   0.25019   0.00000  Uiso   1.00
C147   C     0.07010   0.17990   0.74986   0.00000  Uiso   1.00
C148   C     0.42975   0.31984   0.24939   0.00000  Uiso   1.00
C149   C     0.11514   0.41218   0.24961   0.00000  Uiso   1.00
C150   C     0.38535   0.08826   0.74721   0.00000  Uiso   1.00
C151   C     0.11000   0.13681   0.21449   0.00000  Uiso   1.00
C152   C     0.38952   0.36207   0.78553   0.00000  Uiso   1.00
C153   C     0.38522   0.08808   0.24468   0.00000  Uiso   1.00
C154   C     0.11543   0.41073   0.75953   0.00000  Uiso   1.00
C155   C     0.40907   0.38211   0.23190   0.00000  Uiso   1.00
C156   C     0.08935   0.11598   0.76227   0.00000  Uiso   1.00
C157   C     0.11542   0.08842   0.75898   0.00000  Uiso   1.00
C158   C     0.38196   0.40857   0.23129   0.00000  Uiso   1.00
C159   C     0.08820   0.38422   0.75589   0.00000  Uiso   1.00
C160   C     0.41220   0.11505   0.24556   0.00000  Uiso   1.00
C161   C     0.36438   0.39080   0.78557   0.00000  Uiso   1.00
C162   C     0.13807   0.11081   0.21420   0.00000  Uiso   1.00
C163   C     0.41211   0.11565   0.74496   0.00000  Uiso   1.00
C164   C     0.08833   0.38516   0.24647   0.00000  Uiso   1.00
C165   C     0.36517   0.16184   0.75537   0.00000  Uiso   1.00
C166   C     0.13553   0.33837   0.25237   0.00000  Uiso   1.00
C167   C     0.35976   0.38656   0.71450   0.00000  Uiso   1.00
C168   C     0.13912   0.11164   0.28556   0.00000  Uiso   1.00
C169   C     0.13495   0.33860   0.74208   0.00000  Uiso   1.00
C170   C     0.36520   0.16087   0.25808   0.00000  Uiso   1.00
C171   C     0.15843   0.13141   0.73001   0.00000  Uiso   1.00
C172   C     0.33907   0.36565   0.26142   0.00000  Uiso   1.00
C173   C     0.36540   0.33831   0.25847   0.00000  Uiso   1.00
C174   C     0.13210   0.15846   0.73114   0.00000  Uiso   1.00
C175   C     0.33809   0.13421   0.25468   0.00000  Uiso   1.00
C176   C     0.16209   0.36516   0.74461   0.00000  Uiso   1.00
C177   C     0.11388   0.14029   0.28566   0.00000  Uiso   1.00
C178   C     0.38785   0.36060   0.71420   0.00000  Uiso   1.00
C179   C     0.16249   0.36544   0.24954   0.00000  Uiso   1.00
C180   C     0.33827   0.13480   0.75531   0.00000  Uiso   1.00
C181   C     0.09841   0.34825   0.24962   0.00000  Uiso   1.00
C182   C     0.40184   0.15216   0.74976   0.00000  Uiso   1.00
C183   C     0.15193   0.09797   0.24987   0.00000  Uiso   1.00
C184   C     0.34875   0.40221   0.75008   0.00000  Uiso   1.00
C185   C     0.40206   0.15151   0.25147   0.00000  Uiso   1.00
C186   C     0.09817   0.34805   0.74861   0.00000  Uiso   1.00
C187   C     0.34750   0.40105   0.24803   0.00000  Uiso   1.00
C188   C     0.15082   0.09696   0.74622   0.00000  Uiso   1.00
C189   C     0.09784   0.15137   0.74869   0.00000  Uiso   1.00
C190   C     0.40111   0.34730   0.24699   0.00000  Uiso   1.00
C191   C     0.15221   0.40144   0.75210   0.00000  Uiso   1.00
C192   C     0.34829   0.09782   0.24922   0.00000  Uiso   1.00
C193   C     0.40197   0.34802   0.74986   0.00000  Uiso   1.00
C194   C     0.09867   0.15212   0.25012   0.00000  Uiso   1.00
C195   C     0.34833   0.09810   0.75101   0.00000  Uiso   1.00
C196   C     0.15204   0.40214   0.24967   0.00000  Uiso   1.00
C197   C     0.25015   0.00015   0.10254   0.00000  Uiso   1.00
C198   C     0.24994   0.49995   0.89743   0.00000  Uiso   1.00
C199   C     0.49999   0.25034   0.10289   0.00000  Uiso   1.00
C200   C     0.49977   0.25005   0.89750   0.00000  Uiso   1.00
C201   C     0.00020   0.25040   0.60256   0.00000  Uiso   1.00
C202   C     0.49992   0.25007   0.39742   0.00000  Uiso   1.00
C203   C     0.25002   0.00034   0.60289   0.00000  Uiso   1.00
C204   C     0.24980   0.00004   0.39750   0.00000  Uiso   1.00
N205   N     0.10523   0.44902   0.25682   0.00000  Uiso   1.00
H206   H     0.08703   0.45291   0.27928   0.00000  Uiso   1.00
C207   C     0.09923   0.47230   0.22349   0.00000  Uiso   1.00
H208   H     0.06957   0.47630   0.21894   0.00000  Uiso   1.00
H209   H     0.11158   0.46091   0.19664   0.00000  Uiso   1.00
H210   H     0.11179   0.49918   0.22909   0.00000  Uiso   1.00
N211   N     0.39502   0.05105   0.74264   0.00000  Uiso   1.00
H212   H     0.41282   0.04620   0.72005   0.00000  Uiso   1.00
C213   C     0.40552   0.03262   0.77814   0.00000  Uiso   1.00
H214   H     0.43172   0.04333   0.78935   0.00000  Uiso   1.00
H215   H     0.40882   0.00324   0.77217   0.00000  Uiso   1.00
H216   H     0.38454   0.03594   0.80110   0.00000  Uiso   1.00
N217   N     0.09268   0.14770   0.17930   0.00000  Uiso   1.00
H218   H     0.08586   0.12723   0.16033   0.00000  Uiso   1.00
C219   C     0.10749   0.17973   0.16081   0.00000  Uiso   1.00
H220   H     0.13459   0.17387   0.14807   0.00000  Uiso   1.00
H221   H     0.10982   0.20237   0.18192   0.00000  Uiso   1.00
H222   H     0.08896   0.18824   0.13712   0.00000  Uiso   1.00
N223   N     0.40189   0.34643   0.82115   0.00000  Uiso   1.00
H224   H     0.40515   0.36411   0.84397   0.00000  Uiso   1.00
C225   C     0.38315   0.31345   0.83241   0.00000  Uiso   1.00
H226   H     0.35406   0.31923   0.83880   0.00000  Uiso   1.00
H227   H     0.39605   0.30201   0.85889   0.00000  Uiso   1.00
H228   H     0.38487   0.29282   0.80899   0.00000  Uiso   1.00
N229   N     0.39509   0.05097   0.23993   0.00000  Uiso   1.00
H230   H     0.41464   0.04155   0.25887   0.00000  Uiso   1.00
C231   C     0.39990   0.03894   0.20014   0.00000  Uiso   1.00
H232   H     0.42738   0.02698   0.19620   0.00000  Uiso   1.00
H233   H     0.39632   0.06142   0.17886   0.00000  Uiso   1.00
H234   H     0.37953   0.01771   0.19364   0.00000  Uiso   1.00
N235   N     0.10581   0.44699   0.76943   0.00000  Uiso   1.00
H236   H     0.08342   0.45682   0.75482   0.00000  Uiso   1.00
C237   C     0.10417   0.45401   0.81083   0.00000  Uiso   1.00
H238   H     0.08105   0.43921   0.82441   0.00000  Uiso   1.00
H239   H     0.10042   0.48349   0.81579   0.00000  Uiso   1.00
H240   H     0.12975   0.44546   0.82536   0.00000  Uiso   1.00
N241   N     0.44411   0.39027   0.21607   0.00000  Uiso   1.00
H242   H     0.45607   0.41387   0.22575   0.00000  Uiso   1.00
C243   C     0.44874   0.38330   0.17481   0.00000  Uiso   1.00
H244   H     0.45327   0.40912   0.15890   0.00000  Uiso   1.00
H245   H     0.42477   0.36907   0.16219   0.00000  Uiso   1.00
H246   H     0.47305   0.36602   0.17027   0.00000  Uiso   1.00
N247   N     0.05372   0.10754   0.77630   0.00000  Uiso   1.00
H248   H     0.04204   0.08487   0.76395   0.00000  Uiso   1.00
C249   C     0.04992   0.10845   0.81821   0.00000  Uiso   1.00
H250   H     0.06581   0.08632   0.83197   0.00000  Uiso   1.00
H251   H     0.02078   0.10505   0.82613   0.00000  Uiso   1.00
H252   H     0.05957   0.13482   0.82993   0.00000  Uiso   1.00
N253   N     0.10537   0.05142   0.76487   0.00000  Uiso   1.00
H254   H     0.08720   0.04588   0.78693   0.00000  Uiso   1.00
C255   C     0.09913   0.03087   0.72958   0.00000  Uiso   1.00
H256   H     0.07094   0.01984   0.72944   0.00000  Uiso   1.00
H257   H     0.11881   0.00815   0.72819   0.00000  Uiso   1.00
H258   H     0.10281   0.04772   0.70296   0.00000  Uiso   1.00
N259   N     0.38907   0.44248   0.21260   0.00000  Uiso   1.00
H260   H     0.41223   0.45599   0.22138   0.00000  Uiso   1.00
C261   C     0.38244   0.44350   0.17098   0.00000  Uiso   1.00
H262   H     0.40733   0.45259   0.15535   0.00000  Uiso   1.00
H263   H     0.36047   0.46316   0.16446   0.00000  Uiso   1.00
H264   H     0.37396   0.41660   0.15949   0.00000  Uiso   1.00
N265   N     0.05057   0.39375   0.75871   0.00000  Uiso   1.00
H266   H     0.04414   0.41352   0.77863   0.00000  Uiso   1.00
C267   C     0.03253   0.39880   0.72174   0.00000  Uiso   1.00
H268   H     0.00308   0.40386   0.72669   0.00000  Uiso   1.00
H269   H     0.03522   0.37415   0.70346   0.00000  Uiso   1.00
H270   H     0.04444   0.42243   0.70608   0.00000  Uiso   1.00
N271   N     0.44979   0.10535   0.24359   0.00000  Uiso   1.00
H272   H     0.45811   0.08585   0.26315   0.00000  Uiso   1.00
C273   C     0.46551   0.10166   0.20511   0.00000  Uiso   1.00
H274   H     0.49152   0.11702   0.20382   0.00000  Uiso   1.00
H275   H     0.44706   0.11230   0.18217   0.00000  Uiso   1.00
H276   H     0.47169   0.07280   0.19904   0.00000  Uiso   1.00
N277   N     0.35227   0.40621   0.82132   0.00000  Uiso   1.00
H278   H     0.34550   0.38750   0.84246   0.00000  Uiso   1.00
C279   C     0.37481   0.43546   0.83596   0.00000  Uiso   1.00
H280   H     0.36066   0.44889   0.86056   0.00000  Uiso   1.00
H281   H     0.37998   0.45606   0.81306   0.00000  Uiso   1.00
H282   H     0.40140   0.42508   0.84636   0.00000  Uiso   1.00
N283   N     0.15301   0.09787   0.17840   0.00000  Uiso   1.00
H284   H     0.13550   0.09656   0.15515   0.00000  Uiso   1.00
C285   C     0.18829   0.11278   0.16804   0.00000  Uiso   1.00
H286   H     0.19734   0.10117   0.13989   0.00000  Uiso   1.00
H287   H     0.20901   0.10591   0.19026   0.00000  Uiso   1.00
H288   H     0.18681   0.14271   0.16513   0.00000  Uiso   1.00
N289   N     0.44937   0.10701   0.73749   0.00000  Uiso   1.00
H290   H     0.45862   0.08320   0.74952   0.00000  Uiso   1.00
C291   C     0.46044   0.11132   0.69738   0.00000  Uiso   1.00
H292   H     0.49031   0.10720   0.69490   0.00000  Uiso   1.00
H293   H     0.45397   0.13902   0.68681   0.00000  Uiso   1.00
H294   H     0.44632   0.09110   0.67881   0.00000  Uiso   1.00
N295   N     0.05133   0.39510   0.23993   0.00000  Uiso   1.00
H296   H     0.04201   0.41560   0.25763   0.00000  Uiso   1.00
C297   C     0.04266   0.40124   0.19932   0.00000  Uiso   1.00
H298   H     0.01544   0.41383   0.19685   0.00000  Uiso   1.00
H299   H     0.04273   0.37539   0.18295   0.00000  Uiso   1.00
H300   H     0.06261   0.41970   0.18534   0.00000  Uiso   1.00
N301   N     0.35579   0.19833   0.76494   0.00000  Uiso   1.00
H302   H     0.33739   0.20104   0.78744   0.00000  Uiso   1.00
C303   C     0.34897   0.22272   0.73266   0.00000  Uiso   1.00
H304   H     0.31951   0.22935   0.73112   0.00000  Uiso   1.00
H305   H     0.35756   0.21081   0.70442   0.00000  Uiso   1.00
H306   H     0.36428   0.24832   0.73731   0.00000  Uiso   1.00
N307   N     0.14553   0.30108   0.25471   0.00000  Uiso   1.00
H308   H     0.16516   0.29345   0.23489   0.00000  Uiso   1.00
C309   C     0.15318   0.28819   0.29369   0.00000  Uiso   1.00
H310   H     0.17708   0.30239   0.30622   0.00000  Uiso   1.00
H311   H     0.15918   0.25875   0.29274   0.00000  Uiso   1.00
H312   H     0.12949   0.29259   0.31318   0.00000  Uiso   1.00
N313   N     0.34210   0.39708   0.67936   0.00000  Uiso   1.00
H314   H     0.33518   0.37640   0.66069   0.00000  Uiso   1.00
C315   C     0.35664   0.42898   0.66039   0.00000  Uiso   1.00
H316   H     0.38359   0.42304   0.64731   0.00000  Uiso   1.00
H317   H     0.35921   0.45180   0.68127   0.00000  Uiso   1.00
H318   H     0.33779   0.43727   0.63687   0.00000  Uiso   1.00
N319   N     0.15124   0.09571   0.32113   0.00000  Uiso   1.00
H320   H     0.15424   0.11319   0.34416   0.00000  Uiso   1.00
C321   C     0.13251   0.06257   0.33186   0.00000  Uiso   1.00
H322   H     0.10335   0.06820   0.33803   0.00000  Uiso   1.00
H323   H     0.14523   0.05094   0.35835   0.00000  Uiso   1.00
H324   H     0.13451   0.04216   0.30826   0.00000  Uiso   1.00
N325   N     0.14480   0.30198   0.73407   0.00000  Uiso   1.00
H326   H     0.16644   0.29226   0.75004   0.00000  Uiso   1.00
C327   C     0.14654   0.29263   0.69314   0.00000  Uiso   1.00
H328   H     0.17419   0.28281   0.68543   0.00000  Uiso   1.00
H329   H     0.13961   0.31599   0.67402   0.00000  Uiso   1.00
H330   H     0.12685   0.27067   0.68711   0.00000  Uiso   1.00
N331   N     0.35543   0.19729   0.26704   0.00000  Uiso   1.00
H332   H     0.33339   0.20689   0.25167   0.00000  Uiso   1.00
C333   C     0.35279   0.20488   0.30828   0.00000  Uiso   1.00
H334   H     0.32930   0.19034   0.32145   0.00000  Uiso   1.00
H335   H     0.34902   0.23442   0.31269   0.00000  Uiso   1.00
H336   H     0.37797   0.19646   0.32365   0.00000  Uiso   1.00
N337   N     0.19284   0.13935   0.71249   0.00000  Uiso   1.00
H338   H     0.20349   0.16450   0.71902   0.00000  Uiso   1.00
C339   C     0.19648   0.12968   0.67173   0.00000  Uiso   1.00
H340   H     0.19781   0.15449   0.65346   0.00000  Uiso   1.00
H341   H     0.17348   0.11240   0.66166   0.00000  Uiso   1.00
H342   H     0.22216   0.11444   0.66732   0.00000  Uiso   1.00
N343   N     0.30320   0.35693   0.27453   0.00000  Uiso   1.00
H344   H     0.29188   0.33439   0.26157   0.00000  Uiso   1.00
C345   C     0.29860   0.35717   0.31636   0.00000  Uiso   1.00
H346   H     0.31417   0.33477   0.33004   0.00000  Uiso   1.00
H347   H     0.26929   0.35369   0.32356   0.00000  Uiso   1.00
H348   H     0.30807   0.38331   0.32880   0.00000  Uiso   1.00
N349   N     0.35541   0.30118   0.26336   0.00000  Uiso   1.00
H350   H     0.33665   0.29525   0.28472   0.00000  Uiso   1.00
C351   C     0.35016   0.28121   0.22751   0.00000  Uiso   1.00
H352   H     0.32196   0.27027   0.22623   0.00000  Uiso   1.00
H353   H     0.36981   0.25845   0.22636   0.00000  Uiso   1.00
H354   H     0.35466   0.29846   0.20133   0.00000  Uiso   1.00
N355   N     0.14099   0.19267   0.71412   0.00000  Uiso   1.00
H356   H     0.13737   0.21560   0.73076   0.00000  Uiso   1.00
C357   C     0.13499   0.19619   0.67260   0.00000  Uiso   1.00
H358   H     0.15889   0.20978   0.65913   0.00000  Uiso   1.00
H359   H     0.11045   0.21278   0.66675   0.00000  Uiso   1.00
H360   H     0.13097   0.16937   0.65851   0.00000  Uiso   1.00
N361   N     0.30040   0.14373   0.25611   0.00000  Uiso   1.00
H362   H     0.29347   0.16399   0.27525   0.00000  Uiso   1.00
C363   C     0.28340   0.14793   0.21847   0.00000  Uiso   1.00
H364   H     0.25386   0.15325   0.22238   0.00000  Uiso   1.00
H365   H     0.28645   0.12281   0.20101   0.00000  Uiso   1.00
H366   H     0.29584   0.17110   0.20251   0.00000  Uiso   1.00
N367   N     0.19944   0.35442   0.74317   0.00000  Uiso   1.00
H368   H     0.21644   0.36641   0.76325   0.00000  Uiso   1.00
C369   C     0.21548   0.34945   0.70500   0.00000  Uiso   1.00
H370   H     0.22613   0.32141   0.70268   0.00000  Uiso   1.00
H371   H     0.23867   0.36848   0.70085   0.00000  Uiso   1.00
H372   H     0.19545   0.35424   0.68136   0.00000  Uiso   1.00
N373   N     0.10124   0.15520   0.32145   0.00000  Uiso   1.00
H374   H     0.09431   0.13622   0.34225   0.00000  Uiso   1.00
C375   C     0.12342   0.18439   0.33678   0.00000  Uiso   1.00
H376   H     0.10867   0.19784   0.36094   0.00000  Uiso   1.00
H377   H     0.12921   0.20496   0.31403   0.00000  Uiso   1.00
H378   H     0.14971   0.17397   0.34797   0.00000  Uiso   1.00
N379   N     0.40265   0.34753   0.67839   0.00000  Uiso   1.00
H380   H     0.38500   0.34602   0.65527   0.00000  Uiso   1.00
C381   C     0.43777   0.36259   0.66772   0.00000  Uiso   1.00
H382   H     0.44673   0.35089   0.63959   0.00000  Uiso   1.00
H383   H     0.45866   0.35599   0.68987   0.00000  Uiso   1.00
H384   H     0.43608   0.39250   0.66463   0.00000  Uiso   1.00
N385   N     0.20016   0.35621   0.24624   0.00000  Uiso   1.00
H386   H     0.20840   0.33358   0.26134   0.00000  Uiso   1.00
C387   C     0.21423   0.35705   0.20695   0.00000  Uiso   1.00
H388   H     0.20095   0.33568   0.18916   0.00000  Uiso   1.00
H389   H     0.24405   0.35213   0.20738   0.00000  Uiso   1.00
H390   H     0.20940   0.38395   0.19337   0.00000  Uiso   1.00
N391   N     0.30121   0.14490   0.76097   0.00000  Uiso   1.00
H392   H     0.28559   0.12758   0.77773   0.00000  Uiso   1.00
C393   C     0.28282   0.15860   0.72681   0.00000  Uiso   1.00
H394   H     0.26545   0.18190   0.73518   0.00000  Uiso   1.00
H395   H     0.26560   0.13698   0.71418   0.00000  Uiso   1.00
H396   H     0.30228   0.16774   0.70400   0.00000  Uiso   1.00
N397   N     0.21808   0.44032   0.10210   0.00000  Uiso   1.00
O398   O     0.23367   0.42684   0.13283   0.00000  Uiso   1.00
O399   O     0.19085   0.42285   0.08674   0.00000  Uiso   1.00
N400   N     0.28077   0.43951   0.89832   0.00000  Uiso   1.00
O401   O     0.26611   0.42709   0.86660   0.00000  Uiso   1.00
O402   O     0.30668   0.42089   0.91464   0.00000  Uiso   1.00
N403   N     0.06836   0.25177   0.10146   0.00000  Uiso   1.00
O404   O     0.07216   0.26714   0.13522   0.00000  Uiso   1.00
O405   O     0.09752   0.24104   0.08326   0.00000  Uiso   1.00
N406   N     0.05133   0.29437   0.89811   0.00000  Uiso   1.00
O407   O     0.07000   0.28083   0.86942   0.00000  Uiso   1.00
O408   O     0.06101   0.32564   0.91225   0.00000  Uiso   1.00
N409   N     0.28295   0.05970   0.10161   0.00000  Uiso   1.00
O410   O     0.26878   0.07253   0.13343   0.00000  Uiso   1.00
O411   O     0.30974   0.07732   0.08537   0.00000  Uiso   1.00
N412   N     0.21922   0.06039   0.89791   0.00000  Uiso   1.00
O413   O     0.23443   0.07315   0.86651   0.00000  Uiso   1.00
O414   O     0.19273   0.07858   0.91372   0.00000  Uiso   1.00
N415   N     0.43181   0.25151   0.10293   0.00000  Uiso   1.00
O416   O     0.42715   0.23398   0.13543   0.00000  Uiso   1.00
O417   O     0.40368   0.26674   0.08676   0.00000  Uiso   1.00
N418   N     0.44798   0.20603   0.89850   0.00000  Uiso   1.00
O419   O     0.42975   0.21928   0.86935   0.00000  Uiso   1.00
O420   O     0.43787   0.17504   0.91323   0.00000  Uiso   1.00
N421   N     0.47097   0.18927   0.60210   0.00000  Uiso   1.00
O422   O     0.48807   0.17602   0.63200   0.00000  Uiso   1.00
O423   O     0.44416   0.17082   0.58722   0.00000  Uiso   1.00
N424   N     0.46910   0.31045   0.39769   0.00000  Uiso   1.00
O425   O     0.48434   0.32318   0.36630   0.00000  Uiso   1.00
O426   O     0.44253   0.32861   0.41341   0.00000  Uiso   1.00
N427   N     0.31839   0.00130   0.60149   0.00000  Uiso   1.00
O428   O     0.32228   0.01663   0.63525   0.00000  Uiso   1.00
O429   O     0.34748   0.49036   0.58331   0.00000  Uiso   1.00
N430   N     0.30150   0.04419   0.39809   0.00000  Uiso   1.00
O431   O     0.32007   0.03063   0.36934   0.00000  Uiso   1.00
O432   O     0.31133   0.07540   0.41226   0.00000  Uiso   1.00
N433   N     0.03116   0.31096   0.60172   0.00000  Uiso   1.00
O434   O     0.01738   0.32275   0.63418   0.00000  Uiso   1.00
O435   O     0.05693   0.32976   0.58512   0.00000  Uiso   1.00
N436   N     0.03071   0.18959   0.39853   0.00000  Uiso   1.00
O437   O     0.01615   0.17721   0.36674   0.00000  Uiso   1.00
O438   O     0.05637   0.17080   0.41506   0.00000  Uiso   1.00
N439   N     0.18184   0.00199   0.60291   0.00000  Uiso   1.00
O440   O     0.17705   0.48448   0.63541   0.00000  Uiso   1.00
O441   O     0.15383   0.01742   0.58674   0.00000  Uiso   1.00
N442   N     0.19787   0.45617   0.39852   0.00000  Uiso   1.00
O443   O     0.17971   0.46945   0.36934   0.00000  Uiso   1.00
O444   O     0.18767   0.42522   0.41327   0.00000  Uiso   1.00
Zn445  Zn    0.70660  -0.00000   0.21760   0.00000  Uiso   1.00
Zn446  Zn    0.79340  -0.00000   0.78240   0.00000  Uiso   1.00
Zn447  Zn    0.50000   0.20660   0.21760   0.00000  Uiso   1.00
Zn448  Zn    0.50000   0.29340   0.78240   0.00000  Uiso   1.00
Zn449  Zn    0.79340  -0.00000   0.21760   0.00000  Uiso   1.00
Zn450  Zn    0.70660  -0.00000   0.78240   0.00000  Uiso   1.00
Zn451  Zn    0.50000   0.29340   0.21760   0.00000  Uiso   1.00
Zn452  Zn    0.50000   0.20660   0.78240   0.00000  Uiso   1.00
Zn453  Zn    0.95660   0.25000   0.71760   0.00000  Uiso   1.00
Zn454  Zn    0.54340   0.25000   0.28240   0.00000  Uiso   1.00
Zn455  Zn    0.75000   0.45660   0.71760   0.00000  Uiso   1.00
Zn456  Zn    0.75000   0.04340   0.28240   0.00000  Uiso   1.00
Zn457  Zn    0.54340   0.25000   0.71760   0.00000  Uiso   1.00
Zn458  Zn    0.95660   0.25000   0.28240   0.00000  Uiso   1.00
Zn459  Zn    0.75000   0.04340   0.71760   0.00000  Uiso   1.00
Zn460  Zn    0.75000   0.45660   0.28240   0.00000  Uiso   1.00
C461   C     0.73380   0.47156   0.04158   0.00000  Uiso   1.00
C462   C     0.76540   0.47109   0.95861   0.00000  Uiso   1.00
C463   C     0.53253   0.25009   0.04161   0.00000  Uiso   1.00
C464   C     0.52325   0.27321   0.95842   0.00000  Uiso   1.00
C465   C     0.76631   0.02879   0.04134   0.00000  Uiso   1.00
C466   C     0.73456   0.02908   0.95842   0.00000  Uiso   1.00
C467   C     0.96661   0.25138   0.04223   0.00000  Uiso   1.00
C468   C     0.97540   0.22789   0.95870   0.00000  Uiso   1.00
C469   C     0.98476   0.22136   0.54160   0.00000  Uiso   1.00
C470   C     0.98443   0.27932   0.45831   0.00000  Uiso   1.00
C471   C     0.78257   0.49987   0.54162   0.00000  Uiso   1.00
C472   C     0.77339   0.02310   0.45841   0.00000  Uiso   1.00
C473   C     0.51520   0.27971   0.54139   0.00000  Uiso   1.00
C474   C     0.51541   0.22142   0.45869   0.00000  Uiso   1.00
C475   C     0.71666   0.00160   0.54221   0.00000  Uiso   1.00
C476   C     0.72537   0.47796   0.45871   0.00000  Uiso   1.00
H477   H     0.72147   0.44938   0.02566   0.00000  Uiso   1.00
H478   H     0.77712   0.44871   0.97474   0.00000  Uiso   1.00
H479   H     0.55784   0.24952   0.02540   0.00000  Uiso   1.00
H480   H     0.54170   0.29086   0.97409   0.00000  Uiso   1.00
H481   H     0.77868   0.05091   0.02519   0.00000  Uiso   1.00
H482   H     0.72287   0.05154   0.97438   0.00000  Uiso   1.00
H483   H     0.94104   0.25224   0.02658   0.00000  Uiso   1.00
H484   H     0.95677   0.21048   0.97461   0.00000  Uiso   1.00
H485   H     0.97324   0.19873   0.52571   0.00000  Uiso   1.00
H486   H     0.97264   0.30179   0.47418   0.00000  Uiso   1.00
H487   H     0.80788   0.49914   0.52541   0.00000  Uiso   1.00
H488   H     0.79191   0.04068   0.47408   0.00000  Uiso   1.00
H489   H     0.52680   0.30224   0.52526   0.00000  Uiso   1.00
H490   H     0.52718   0.19911   0.47489   0.00000  Uiso   1.00
H491   H     0.69110   0.00263   0.52656   0.00000  Uiso   1.00
H492   H     0.70668   0.46062   0.47462   0.00000  Uiso   1.00
C493   C     0.73381   0.47101   0.08218   0.00000  Uiso   1.00
C494   C     0.76550   0.47046   0.91798   0.00000  Uiso   1.00
C495   C     0.53343   0.25066   0.08219   0.00000  Uiso   1.00
C496   C     0.52436   0.27269   0.91790   0.00000  Uiso   1.00
C497   C     0.76655   0.02928   0.08197   0.00000  Uiso   1.00
C498   C     0.73444   0.02952   0.91780   0.00000  Uiso   1.00
C499   C     0.96634   0.25087   0.08282   0.00000  Uiso   1.00
C500   C     0.97481   0.22781   0.91813   0.00000  Uiso   1.00
C501   C     0.98500   0.22072   0.58217   0.00000  Uiso   1.00
C502   C     0.98436   0.27966   0.41769   0.00000  Uiso   1.00
C503   C     0.78346   0.00043   0.58220   0.00000  Uiso   1.00
C504   C     0.77447   0.02260   0.41789   0.00000  Uiso   1.00
C505   C     0.51554   0.28014   0.58204   0.00000  Uiso   1.00
C506   C     0.51549   0.22064   0.41807   0.00000  Uiso   1.00
C507   C     0.71637   0.00111   0.58281   0.00000  Uiso   1.00
C508   C     0.72477   0.47788   0.41813   0.00000  Uiso   1.00
O509   O     0.75000  -0.00000   0.25000   0.00000  Uiso   1.00
O510   O     0.75000  -0.00000   0.75000   0.00000  Uiso   1.00
O511   O     0.50000   0.25000   0.25000   0.00000  Uiso   1.00
O512   O     0.50000   0.25000   0.75000   0.00000  Uiso   1.00
O513   O     0.75000   0.46964   0.33683   0.00000  Uiso   1.00
O514   O     0.75000   0.03036   0.66317   0.00000  Uiso   1.00
O515   O     0.53036   0.25000   0.33683   0.00000  Uiso   1.00
O516   O     0.96964   0.25000   0.66317   0.00000  Uiso   1.00
O517   O     0.75000   0.03036   0.33683   0.00000  Uiso   1.00
O518   O     0.75000   0.46964   0.66317   0.00000  Uiso   1.00
O519   O     0.96964   0.25000   0.33683   0.00000  Uiso   1.00
O520   O     0.53036   0.25000   0.66317   0.00000  Uiso   1.00
O521   O     0.50000   0.21964   0.83683   0.00000  Uiso   1.00
O522   O     0.50000   0.28036   0.16317   0.00000  Uiso   1.00
O523   O     0.78036  -0.00000   0.83683   0.00000  Uiso   1.00
O524   O     0.71964  -0.00000   0.16317   0.00000  Uiso   1.00
O525   O     0.50000   0.28036   0.83683   0.00000  Uiso   1.00
O526   O     0.50000   0.21964   0.16317   0.00000  Uiso   1.00
O527   O     0.71964  -0.00000   0.83683   0.00000  Uiso   1.00
O528   O     0.78036  -0.00000   0.16317   0.00000  Uiso   1.00
O529   O     0.70726   0.07307   0.27282   0.00000  Uiso   1.00
O530   O     0.79275   0.42693   0.72718   0.00000  Uiso   1.00
O531   O     0.92693   0.20725   0.27282   0.00000  Uiso   1.00
O532   O     0.57307   0.29274   0.72718   0.00000  Uiso   1.00
O533   O     0.79275   0.42693   0.27282   0.00000  Uiso   1.00
O534   O     0.70726   0.07307   0.72718   0.00000  Uiso   1.00
O535   O     0.57307   0.29274   0.27282   0.00000  Uiso   1.00
O536   O     0.92693   0.20725   0.72718   0.00000  Uiso   1.00
O537   O     0.70726   0.42693   0.72718   0.00000  Uiso   1.00
O538   O     0.79275   0.07307   0.27282   0.00000  Uiso   1.00
O539   O     0.92693   0.29274   0.72718   0.00000  Uiso   1.00
O540   O     0.57307   0.20725   0.27282   0.00000  Uiso   1.00
O541   O     0.79275   0.07307   0.72718   0.00000  Uiso   1.00
O542   O     0.70726   0.42693   0.27282   0.00000  Uiso   1.00
O543   O     0.57307   0.20725   0.72718   0.00000  Uiso   1.00
O544   O     0.92693   0.29274   0.27282   0.00000  Uiso   1.00
O545   O     0.95726   0.32307   0.77282   0.00000  Uiso   1.00
O546   O     0.54275   0.17693   0.22718   0.00000  Uiso   1.00
O547   O     0.67693   0.45725   0.77282   0.00000  Uiso   1.00
O548   O     0.82307   0.04274   0.22718   0.00000  Uiso   1.00
O549   O     0.54275   0.17693   0.77282   0.00000  Uiso   1.00
O550   O     0.95726   0.32307   0.22718   0.00000  Uiso   1.00
O551   O     0.82307   0.04274   0.77282   0.00000  Uiso   1.00
O552   O     0.67693   0.45725   0.22718   0.00000  Uiso   1.00
O553   O     0.95726   0.17693   0.22718   0.00000  Uiso   1.00
O554   O     0.54275   0.32307   0.77282   0.00000  Uiso   1.00
O555   O     0.67693   0.04274   0.22718   0.00000  Uiso   1.00
O556   O     0.82307   0.45725   0.77282   0.00000  Uiso   1.00
O557   O     0.54275   0.32307   0.22718   0.00000  Uiso   1.00
O558   O     0.95726   0.17693   0.77282   0.00000  Uiso   1.00
O559   O     0.82307   0.45725   0.22718   0.00000  Uiso   1.00
O560   O     0.67693   0.04274   0.77282   0.00000  Uiso   1.00
C561   C     0.74999   0.00019   0.02125   0.00000  Uiso   1.00
C562   C     0.75000   0.00013   0.97872   0.00000  Uiso   1.00
C563   C     0.99944   0.25062   0.02159   0.00000  Uiso   1.00
C564   C     0.99927   0.25063   0.97891   0.00000  Uiso   1.00
C565   C     0.99984   0.25059   0.52127   0.00000  Uiso   1.00
C566   C     0.99992   0.25047   0.47872   0.00000  Uiso   1.00
C567   C     0.74948   0.00062   0.52159   0.00000  Uiso   1.00
C568   C     0.74933   0.00062   0.47891   0.00000  Uiso   1.00
C569   C     0.74994   0.49998   0.35507   0.00000  Uiso   1.00
C570   C     0.75010   0.00007   0.64506   0.00000  Uiso   1.00
C571   C     0.99997   0.24997   0.35508   0.00000  Uiso   1.00
C572   C     0.50006   0.25015   0.64492   0.00000  Uiso   1.00
C573   C     0.99994   0.24998   0.85507   0.00000  Uiso   1.00
C574   C     0.50010   0.25007   0.14506   0.00000  Uiso   1.00
C575   C     0.74997   0.49996   0.85508   0.00000  Uiso   1.00
C576   C     0.75004   0.00007   0.14491   0.00000  Uiso   1.00
C577   C     0.67993   0.06990   0.25004   0.00000  Uiso   1.00
C578   C     0.82006   0.42990   0.75021   0.00000  Uiso   1.00
C579   C     0.93003   0.17984   0.25043   0.00000  Uiso   1.00
C580   C     0.57011   0.31994   0.74973   0.00000  Uiso   1.00
C581   C     0.81990   0.42971   0.24956   0.00000  Uiso   1.00
C582   C     0.67961   0.06969   0.74912   0.00000  Uiso   1.00
C583   C     0.57016   0.32005   0.24988   0.00000  Uiso   1.00
C584   C     0.92983   0.18021   0.75019   0.00000  Uiso   1.00
C585   C     0.68009   0.42981   0.75058   0.00000  Uiso   1.00
C586   C     0.82017   0.06983   0.24994   0.00000  Uiso   1.00
C587   C     0.92994   0.31991   0.75003   0.00000  Uiso   1.00
C588   C     0.57004   0.17988   0.25023   0.00000  Uiso   1.00
C589   C     0.82016   0.06996   0.75005   0.00000  Uiso   1.00
C590   C     0.67989   0.43021   0.25019   0.00000  Uiso   1.00
C591   C     0.57010   0.17990   0.74986   0.00000  Uiso   1.00
C592   C     0.92975   0.31984   0.24939   0.00000  Uiso   1.00
C593   C     0.61514   0.41218   0.24961   0.00000  Uiso   1.00
C594   C     0.88535   0.08826   0.74721   0.00000  Uiso   1.00
C595   C     0.61000   0.13681   0.21449   0.00000  Uiso   1.00
C596   C     0.88952   0.36207   0.78553   0.00000  Uiso   1.00
C597   C     0.88522   0.08808   0.24468   0.00000  Uiso   1.00
C598   C     0.61543   0.41073   0.75953   0.00000  Uiso   1.00
C599   C     0.90907   0.38211   0.23190   0.00000  Uiso   1.00
C600   C     0.58935   0.11598   0.76227   0.00000  Uiso   1.00
C601   C     0.61542   0.08842   0.75898   0.00000  Uiso   1.00
C602   C     0.88196   0.40857   0.23129   0.00000  Uiso   1.00
C603   C     0.58820   0.38422   0.75589   0.00000  Uiso   1.00
C604   C     0.91220   0.11505   0.24556   0.00000  Uiso   1.00
C605   C     0.86438   0.39080   0.78557   0.00000  Uiso   1.00
C606   C     0.63807   0.11081   0.21420   0.00000  Uiso   1.00
C607   C     0.91211   0.11565   0.74496   0.00000  Uiso   1.00
C608   C     0.58833   0.38516   0.24647   0.00000  Uiso   1.00
C609   C     0.86517   0.16184   0.75537   0.00000  Uiso   1.00
C610   C     0.63553   0.33837   0.25237   0.00000  Uiso   1.00
C611   C     0.85976   0.38656   0.71450   0.00000  Uiso   1.00
C612   C     0.63912   0.11164   0.28556   0.00000  Uiso   1.00
C613   C     0.63495   0.33860   0.74208   0.00000  Uiso   1.00
C614   C     0.86520   0.16087   0.25808   0.00000  Uiso   1.00
C615   C     0.65843   0.13141   0.73001   0.00000  Uiso   1.00
C616   C     0.83907   0.36565   0.26142   0.00000  Uiso   1.00
C617   C     0.86540   0.33831   0.25847   0.00000  Uiso   1.00
C618   C     0.63210   0.15846   0.73114   0.00000  Uiso   1.00
C619   C     0.83809   0.13421   0.25468   0.00000  Uiso   1.00
C620   C     0.66209   0.36516   0.74461   0.00000  Uiso   1.00
C621   C     0.61388   0.14029   0.28566   0.00000  Uiso   1.00
C622   C     0.88785   0.36060   0.71420   0.00000  Uiso   1.00
C623   C     0.66249   0.36544   0.24954   0.00000  Uiso   1.00
C624   C     0.83827   0.13480   0.75531   0.00000  Uiso   1.00
C625   C     0.59841   0.34825   0.24962   0.00000  Uiso   1.00
C626   C     0.90184   0.15216   0.74976   0.00000  Uiso   1.00
C627   C     0.65193   0.09797   0.24987   0.00000  Uiso   1.00
C628   C     0.84875   0.40221   0.75008   0.00000  Uiso   1.00
C629   C     0.90206   0.15151   0.25147   0.00000  Uiso   1.00
C630   C     0.59817   0.34805   0.74861   0.00000  Uiso   1.00
C631   C     0.84750   0.40105   0.24803   0.00000  Uiso   1.00
C632   C     0.65082   0.09696   0.74622   0.00000  Uiso   1.00
C633   C     0.59784   0.15137   0.74869   0.00000  Uiso   1.00
C634   C     0.90111   0.34730   0.24699   0.00000  Uiso   1.00
C635   C     0.65221   0.40144   0.75210   0.00000  Uiso   1.00
C636   C     0.84829   0.09782   0.24922   0.00000  Uiso   1.00
C637   C     0.90197   0.34802   0.74986   0.00000  Uiso   1.00
C638   C     0.59867   0.15212   0.25012   0.00000  Uiso   1.00
C639   C     0.84833   0.09810   0.75101   0.00000  Uiso   1.00
C640   C     0.65204   0.40214   0.24967   0.00000  Uiso   1.00
C641   C     0.75015   0.00015   0.10254   0.00000  Uiso   1.00
C642   C     0.74994   0.49995   0.89743   0.00000  Uiso   1.00
C643   C     0.99999   0.25034   0.10289   0.00000  Uiso   1.00
C644   C     0.99977   0.25005   0.89750   0.00000  Uiso   1.00
C645   C     0.50020   0.25040   0.60256   0.00000  Uiso   1.00
C646   C     0.99992   0.25007   0.39742   0.00000  Uiso   1.00
C647   C     0.75002   0.00034   0.60289   0.00000  Uiso   1.00
C648   C     0.74980   0.00004   0.39750   0.00000  Uiso   1.00
N649   N     0.60523   0.44902   0.25682   0.00000  Uiso   1.00
H650   H     0.58703   0.45291   0.27928   0.00000  Uiso   1.00
C651   C     0.59923   0.47230   0.22349   0.00000  Uiso   1.00
H652   H     0.56957   0.47630   0.21894   0.00000  Uiso   1.00
H653   H     0.61158   0.46091   0.19664   0.00000  Uiso   1.00
H654   H     0.61179   0.49918   0.22909   0.00000  Uiso   1.00
N655   N     0.89502   0.05105   0.74264   0.00000  Uiso   1.00
H656   H     0.91282   0.04620   0.72005   0.00000  Uiso   1.00
C657   C     0.90552   0.03262   0.77814   0.00000  Uiso   1.00
H658   H     0.93172   0.04333   0.78935   0.00000  Uiso   1.00
H659   H     0.90882   0.00324   0.77217   0.00000  Uiso   1.00
H660   H     0.88454   0.03594   0.80110   0.00000  Uiso   1.00
N661   N     0.59268   0.14770   0.17930   0.00000  Uiso   1.00
H662   H     0.58586   0.12723   0.16033   0.00000  Uiso   1.00
C663   C     0.60749   0.17973   0.16081   0.00000  Uiso   1.00
H664   H     0.63459   0.17387   0.14807   0.00000  Uiso   1.00
H665   H     0.60982   0.20237   0.18192   0.00000  Uiso   1.00
H666   H     0.58896   0.18824   0.13712   0.00000  Uiso   1.00
N667   N     0.90189   0.34643   0.82115   0.00000  Uiso   1.00
H668   H     0.90515   0.36411   0.84397   0.00000  Uiso   1.00
C669   C     0.88315   0.31345   0.83241   0.00000  Uiso   1.00
H670   H     0.85406   0.31923   0.83880   0.00000  Uiso   1.00
H671   H     0.89605   0.30201   0.85889   0.00000  Uiso   1.00
H672   H     0.88487   0.29282   0.80899   0.00000  Uiso   1.00
N673   N     0.89509   0.05097   0.23993   0.00000  Uiso   1.00
H674   H     0.91464   0.04155   0.25887   0.00000  Uiso   1.00
C675   C     0.89990   0.03894   0.20014   0.00000  Uiso   1.00
H676   H     0.92738   0.02698   0.19620   0.00000  Uiso   1.00
H677   H     0.89632   0.06142   0.17886   0.00000  Uiso   1.00
H678   H     0.87953   0.01771   0.19364   0.00000  Uiso   1.00
N679   N     0.60581   0.44699   0.76943   0.00000  Uiso   1.00
H680   H     0.58342   0.45682   0.75482   0.00000  Uiso   1.00
C681   C     0.60417   0.45401   0.81083   0.00000  Uiso   1.00
H682   H     0.58105   0.43921   0.82441   0.00000  Uiso   1.00
H683   H     0.60042   0.48349   0.81579   0.00000  Uiso   1.00
H684   H     0.62975   0.44546   0.82536   0.00000  Uiso   1.00
N685   N     0.94411   0.39027   0.21607   0.00000  Uiso   1.00
H686   H     0.95607   0.41387   0.22575   0.00000  Uiso   1.00
C687   C     0.94874   0.38330   0.17481   0.00000  Uiso   1.00
H688   H     0.95327   0.40912   0.15890   0.00000  Uiso   1.00
H689   H     0.92477   0.36907   0.16219   0.00000  Uiso   1.00
H690   H     0.97305   0.36602   0.17027   0.00000  Uiso   1.00
N691   N     0.55372   0.10754   0.77630   0.00000  Uiso   1.00
H692   H     0.54204   0.08487   0.76395   0.00000  Uiso   1.00
C693   C     0.54992   0.10845   0.81821   0.00000  Uiso   1.00
H694   H     0.56581   0.08632   0.83197   0.00000  Uiso   1.00
H695   H     0.52078   0.10505   0.82613   0.00000  Uiso   1.00
H696   H     0.55957   0.13482   0.82993   0.00000  Uiso   1.00
N697   N     0.60537   0.05142   0.76487   0.00000  Uiso   1.00
H698   H     0.58720   0.04588   0.78693   0.00000  Uiso   1.00
C699   C     0.59913   0.03087   0.72958   0.00000  Uiso   1.00
H700   H     0.57094   0.01984   0.72944   0.00000  Uiso   1.00
H701   H     0.61881   0.00815   0.72819   0.00000  Uiso   1.00
H702   H     0.60281   0.04772   0.70296   0.00000  Uiso   1.00
N703   N     0.88907   0.44248   0.21260   0.00000  Uiso   1.00
H704   H     0.91223   0.45599   0.22138   0.00000  Uiso   1.00
C705   C     0.88244   0.44350   0.17098   0.00000  Uiso   1.00
H706   H     0.90733   0.45259   0.15535   0.00000  Uiso   1.00
H707   H     0.86047   0.46316   0.16446   0.00000  Uiso   1.00
H708   H     0.87396   0.41660   0.15949   0.00000  Uiso   1.00
N709   N     0.55057   0.39375   0.75871   0.00000  Uiso   1.00
H710   H     0.54414   0.41352   0.77863   0.00000  Uiso   1.00
C711   C     0.53253   0.39880   0.72174   0.00000  Uiso   1.00
H712   H     0.50308   0.40386   0.72669   0.00000  Uiso   1.00
H713   H     0.53522   0.37415   0.70346   0.00000  Uiso   1.00
H714   H     0.54444   0.42243   0.70608   0.00000  Uiso   1.00
N715   N     0.94979   0.10535   0.24359   0.00000  Uiso   1.00
H716   H     0.95811   0.08585   0.26315   0.00000  Uiso   1.00
C717   C     0.96551   0.10166   0.20511   0.00000  Uiso   1.00
H718   H     0.99152   0.11702   0.20382   0.00000  Uiso   1.00
H719   H     0.94706   0.11230   0.18217   0.00000  Uiso   1.00
H720   H     0.97169   0.07280   0.19904   0.00000  Uiso   1.00
N721   N     0.85227   0.40621   0.82132   0.00000  Uiso   1.00
H722   H     0.84550   0.38750   0.84246   0.00000  Uiso   1.00
C723   C     0.87481   0.43546   0.83596   0.00000  Uiso   1.00
H724   H     0.86066   0.44889   0.86056   0.00000  Uiso   1.00
H725   H     0.87998   0.45606   0.81306   0.00000  Uiso   1.00
H726   H     0.90140   0.42508   0.84636   0.00000  Uiso   1.00
N727   N     0.65301   0.09787   0.17840   0.00000  Uiso   1.00
H728   H     0.63550   0.09656   0.15515   0.00000  Uiso   1.00
C729   C     0.68829   0.11278   0.16804   0.00000  Uiso   1.00
H730   H     0.69734   0.10117   0.13989   0.00000  Uiso   1.00
H731   H     0.70901   0.10591   0.19026   0.00000  Uiso   1.00
H732   H     0.68681   0.14271   0.16513   0.00000  Uiso   1.00
N733   N     0.94937   0.10701   0.73749   0.00000  Uiso   1.00
H734   H     0.95862   0.08320   0.74952   0.00000  Uiso   1.00
C735   C     0.96044   0.11132   0.69738   0.00000  Uiso   1.00
H736   H     0.99031   0.10720   0.69490   0.00000  Uiso   1.00
H737   H     0.95397   0.13902   0.68681   0.00000  Uiso   1.00
H738   H     0.94632   0.09110   0.67881   0.00000  Uiso   1.00
N739   N     0.55133   0.39510   0.23993   0.00000  Uiso   1.00
H740   H     0.54201   0.41560   0.25763   0.00000  Uiso   1.00
C741   C     0.54266   0.40124   0.19932   0.00000  Uiso   1.00
H742   H     0.51544   0.41383   0.19685   0.00000  Uiso   1.00
H743   H     0.54273   0.37539   0.18295   0.00000  Uiso   1.00
H744   H     0.56261   0.41970   0.18534   0.00000  Uiso   1.00
N745   N     0.85579   0.19833   0.76494   0.00000  Uiso   1.00
H746   H     0.83739   0.20104   0.78744   0.00000  Uiso   1.00
C747   C     0.84897   0.22272   0.73266   0.00000  Uiso   1.00
H748   H     0.81951   0.22935   0.73112   0.00000  Uiso   1.00
H749   H     0.85756   0.21081   0.70442   0.00000  Uiso   1.00
H750   H     0.86428   0.24832   0.73731   0.00000  Uiso   1.00
N751   N     0.64553   0.30108   0.25471   0.00000  Uiso   1.00
H752   H     0.66516   0.29345   0.23489   0.00000  Uiso   1.00
C753   C     0.65318   0.28819   0.29369   0.00000  Uiso   1.00
H754   H     0.67708   0.30239   0.30622   0.00000  Uiso   1.00
H755   H     0.65918   0.25875   0.29274   0.00000  Uiso   1.00
H756   H     0.62949   0.29259   0.31318   0.00000  Uiso   1.00
N757   N     0.84210   0.39708   0.67936   0.00000  Uiso   1.00
H758   H     0.83518   0.37640   0.66069   0.00000  Uiso   1.00
C759   C     0.85664   0.42898   0.66039   0.00000  Uiso   1.00
H760   H     0.88359   0.42304   0.64731   0.00000  Uiso   1.00
H761   H     0.85921   0.45180   0.68127   0.00000  Uiso   1.00
H762   H     0.83779   0.43727   0.63687   0.00000  Uiso   1.00
N763   N     0.65124   0.09571   0.32113   0.00000  Uiso   1.00
H764   H     0.65424   0.11319   0.34416   0.00000  Uiso   1.00
C765   C     0.63251   0.06257   0.33186   0.00000  Uiso   1.00
H766   H     0.60335   0.06820   0.33803   0.00000  Uiso   1.00
H767   H     0.64523   0.05094   0.35835   0.00000  Uiso   1.00
H768   H     0.63451   0.04216   0.30826   0.00000  Uiso   1.00
N769   N     0.64480   0.30198   0.73407   0.00000  Uiso   1.00
H770   H     0.66644   0.29226   0.75004   0.00000  Uiso   1.00
C771   C     0.64654   0.29263   0.69314   0.00000  Uiso   1.00
H772   H     0.67419   0.28281   0.68543   0.00000  Uiso   1.00
H773   H     0.63961   0.31599   0.67402   0.00000  Uiso   1.00
H774   H     0.62685   0.27067   0.68711   0.00000  Uiso   1.00
N775   N     0.85543   0.19729   0.26704   0.00000  Uiso   1.00
H776   H     0.83339   0.20689   0.25167   0.00000  Uiso   1.00
C777   C     0.85279   0.20488   0.30828   0.00000  Uiso   1.00
H778   H     0.82930   0.19034   0.32145   0.00000  Uiso   1.00
H779   H     0.84902   0.23442   0.31269   0.00000  Uiso   1.00
H780   H     0.87797   0.19646   0.32365   0.00000  Uiso   1.00
N781   N     0.69284   0.13935   0.71249   0.00000  Uiso   1.00
H782   H     0.70349   0.16450   0.71902   0.00000  Uiso   1.00
C783   C     0.69648   0.12968   0.67173   0.00000  Uiso   1.00
H784   H     0.69781   0.15449   0.65346   0.00000  Uiso   1.00
H785   H     0.67348   0.11240   0.66166   0.00000  Uiso   1.00
H786   H     0.72216   0.11444   0.66732   0.00000  Uiso   1.00
N787   N     0.80320   0.35693   0.27453   0.00000  Uiso   1.00
H788   H     0.79188   0.33439   0.26157   0.00000  Uiso   1.00
C789   C     0.79860   0.35717   0.31636   0.00000  Uiso   1.00
H790   H     0.81417   0.33477   0.33004   0.00000  Uiso   1.00
H791   H     0.76929   0.35369   0.32356   0.00000  Uiso   1.00
H792   H     0.80807   0.38331   0.32880   0.00000  Uiso   1.00
N793   N     0.85541   0.30118   0.26336   0.00000  Uiso   1.00
H794   H     0.83665   0.29525   0.28472   0.00000  Uiso   1.00
C795   C     0.85016   0.28121   0.22751   0.00000  Uiso   1.00
H796   H     0.82196   0.27027   0.22623   0.00000  Uiso   1.00
H797   H     0.86981   0.25845   0.22636   0.00000  Uiso   1.00
H798   H     0.85466   0.29846   0.20133   0.00000  Uiso   1.00
N799   N     0.64099   0.19267   0.71412   0.00000  Uiso   1.00
H800   H     0.63737   0.21560   0.73076   0.00000  Uiso   1.00
C801   C     0.63499   0.19619   0.67260   0.00000  Uiso   1.00
H802   H     0.65889   0.20978   0.65913   0.00000  Uiso   1.00
H803   H     0.61045   0.21278   0.66675   0.00000  Uiso   1.00
H804   H     0.63097   0.16937   0.65851   0.00000  Uiso   1.00
N805   N     0.80040   0.14373   0.25611   0.00000  Uiso   1.00
H806   H     0.79347   0.16399   0.27525   0.00000  Uiso   1.00
C807   C     0.78340   0.14793   0.21847   0.00000  Uiso   1.00
H808   H     0.75386   0.15325   0.22238   0.00000  Uiso   1.00
H809   H     0.78645   0.12281   0.20101   0.00000  Uiso   1.00
H810   H     0.79584   0.17110   0.20251   0.00000  Uiso   1.00
N811   N     0.69944   0.35442   0.74317   0.00000  Uiso   1.00
H812   H     0.71644   0.36641   0.76325   0.00000  Uiso   1.00
C813   C     0.71548   0.34945   0.70500   0.00000  Uiso   1.00
H814   H     0.72613   0.32141   0.70268   0.00000  Uiso   1.00
H815   H     0.73867   0.36848   0.70085   0.00000  Uiso   1.00
H816   H     0.69545   0.35424   0.68136   0.00000  Uiso   1.00
N817   N     0.60124   0.15520   0.32145   0.00000  Uiso   1.00
H818   H     0.59431   0.13622   0.34225   0.00000  Uiso   1.00
C819   C     0.62342   0.18439   0.33678   0.00000  Uiso   1.00
H820   H     0.60867   0.19784   0.36094   0.00000  Uiso   1.00
H821   H     0.62921   0.20496   0.31403   0.00000  Uiso   1.00
H822   H     0.64971   0.17397   0.34797   0.00000  Uiso   1.00
N823   N     0.90265   0.34753   0.67839   0.00000  Uiso   1.00
H824   H     0.88500   0.34602   0.65527   0.00000  Uiso   1.00
C825   C     0.93777   0.36259   0.66772   0.00000  Uiso   1.00
H826   H     0.94673   0.35089   0.63959   0.00000  Uiso   1.00
H827   H     0.95866   0.35599   0.68987   0.00000  Uiso   1.00
H828   H     0.93608   0.39250   0.66463   0.00000  Uiso   1.00
N829   N     0.70016   0.35621   0.24624   0.00000  Uiso   1.00
H830   H     0.70840   0.33358   0.26134   0.00000  Uiso   1.00
C831   C     0.71423   0.35705   0.20695   0.00000  Uiso   1.00
H832   H     0.70095   0.33568   0.18916   0.00000  Uiso   1.00
H833   H     0.74405   0.35213   0.20738   0.00000  Uiso   1.00
H834   H     0.70940   0.38395   0.19337   0.00000  Uiso   1.00
N835   N     0.80121   0.14490   0.76097   0.00000  Uiso   1.00
H836   H     0.78559   0.12758   0.77773   0.00000  Uiso   1.00
C837   C     0.78282   0.15860   0.72681   0.00000  Uiso   1.00
H838   H     0.76545   0.18190   0.73518   0.00000  Uiso   1.00
H839   H     0.76560   0.13698   0.71418   0.00000  Uiso   1.00
H840   H     0.80228   0.16774   0.70400   0.00000  Uiso   1.00
N841   N     0.71808   0.44032   0.10210   0.00000  Uiso   1.00
O842   O     0.73367   0.42684   0.13283   0.00000  Uiso   1.00
O843   O     0.69085   0.42285   0.08674   0.00000  Uiso   1.00
N844   N     0.78077   0.43951   0.89832   0.00000  Uiso   1.00
O845   O     0.76611   0.42709   0.86660   0.00000  Uiso   1.00
O846   O     0.80668   0.42089   0.91464   0.00000  Uiso   1.00
N847   N     0.56836   0.25177   0.10146   0.00000  Uiso   1.00
O848   O     0.57216   0.26714   0.13522   0.00000  Uiso   1.00
O849   O     0.59752   0.24104   0.08326   0.00000  Uiso   1.00
N850   N     0.55133   0.29437   0.89811   0.00000  Uiso   1.00
O851   O     0.57000   0.28083   0.86942   0.00000  Uiso   1.00
O852   O     0.56101   0.32564   0.91225   0.00000  Uiso   1.00
N853   N     0.78295   0.05970   0.10161   0.00000  Uiso   1.00
O854   O     0.76878   0.07253   0.13343   0.00000  Uiso   1.00
O855   O     0.80974   0.07732   0.08537   0.00000  Uiso   1.00
N856   N     0.71922   0.06039   0.89791   0.00000  Uiso   1.00
O857   O     0.73443   0.07315   0.86651   0.00000  Uiso   1.00
O858   O     0.69273   0.07858   0.91372   0.00000  Uiso   1.00
N859   N     0.93181   0.25151   0.10293   0.00000  Uiso   1.00
O860   O     0.92715   0.23398   0.13543   0.00000  Uiso   1.00
O861   O     0.90368   0.26674   0.08676   0.00000  Uiso   1.00
N862   N     0.94798   0.20603   0.89850   0.00000  Uiso   1.00
O863   O     0.92975   0.21928   0.86935   0.00000  Uiso   1.00
O864   O     0.93787   0.17504   0.91323   0.00000  Uiso   1.00
N865   N     0.97097   0.18927   0.60210   0.00000  Uiso   1.00
O866   O     0.98807   0.17602   0.63200   0.00000  Uiso   1.00
O867   O     0.94416   0.17082   0.58722   0.00000  Uiso   1.00
N868   N     0.96910   0.31045   0.39769   0.00000  Uiso   1.00
O869   O     0.98434   0.32318   0.36630   0.00000  Uiso   1.00
O870   O     0.94253   0.32861   0.41341   0.00000  Uiso   1.00
N871   N     0.81839   0.00130   0.60149   0.00000  Uiso   1.00
O872   O     0.82228   0.01663   0.63525   0.00000  Uiso   1.00
O873   O     0.84748   0.49036   0.58331   0.00000  Uiso   1.00
N874   N     0.80150   0.04419   0.39809   0.00000  Uiso   1.00
O875   O     0.82007   0.03063   0.36934   0.00000  Uiso   1.00
O876   O     0.81133   0.07540   0.41226   0.00000  Uiso   1.00
N877   N     0.53116   0.31096   0.60172   0.00000  Uiso   1.00
O878   O     0.51738   0.32275   0.63418   0.00000  Uiso   1.00
O879   O     0.55693   0.32976   0.58512   0.00000  Uiso   1.00
N880   N     0.53071   0.18959   0.39853   0.00000  Uiso   1.00
O881   O     0.51615   0.17721   0.36674   0.00000  Uiso   1.00
O882   O     0.55637   0.17080   0.41506   0.00000  Uiso   1.00
N883   N     0.68184   0.00199   0.60291   0.00000  Uiso   1.00
O884   O     0.67705   0.48448   0.63541   0.00000  Uiso   1.00
O885   O     0.65383   0.01742   0.58674   0.00000  Uiso   1.00
N886   N     0.69787   0.45617   0.39852   0.00000  Uiso   1.00
O887   O     0.67971   0.46945   0.36934   0.00000  Uiso   1.00
O888   O     0.68767   0.42522   0.41327   0.00000  Uiso   1.00
Zn889  Zn    0.20660   0.50000   0.21760   0.00000  Uiso   1.00
Zn890  Zn    0.29340   0.50000   0.78240   0.00000  Uiso   1.00
Zn891  Zn    0.00000   0.70660   0.21760   0.00000  Uiso   1.00
Zn892  Zn    0.00000   0.79340   0.78240   0.00000  Uiso   1.00
Zn893  Zn    0.29340   0.50000   0.21760   0.00000  Uiso   1.00
Zn894  Zn    0.20660   0.50000   0.78240   0.00000  Uiso   1.00
Zn895  Zn    0.00000   0.79340   0.21760   0.00000  Uiso   1.00
Zn896  Zn    0.00000   0.70660   0.78240   0.00000  Uiso   1.00
Zn897  Zn    0.45660   0.75000   0.71760   0.00000  Uiso   1.00
Zn898  Zn    0.04340   0.75000   0.28240   0.00000  Uiso   1.00
Zn899  Zn    0.25000   0.95660   0.71760   0.00000  Uiso   1.00
Zn900  Zn    0.25000   0.54340   0.28240   0.00000  Uiso   1.00
Zn901  Zn    0.04340   0.75000   0.71760   0.00000  Uiso   1.00
Zn902  Zn    0.45660   0.75000   0.28240   0.00000  Uiso   1.00
Zn903  Zn    0.25000   0.54340   0.71760   0.00000  Uiso   1.00
Zn904  Zn    0.25000   0.95660   0.28240   0.00000  Uiso   1.00
C905   C     0.23380   0.97156   0.04158   0.00000  Uiso   1.00
C906   C     0.26540   0.97109   0.95861   0.00000  Uiso   1.00
C907   C     0.03253   0.75009   0.04161   0.00000  Uiso   1.00
C908   C     0.02325   0.77321   0.95842   0.00000  Uiso   1.00
C909   C     0.26631   0.52879   0.04134   0.00000  Uiso   1.00
C910   C     0.23456   0.52908   0.95842   0.00000  Uiso   1.00
C911   C     0.46661   0.75138   0.04223   0.00000  Uiso   1.00
C912   C     0.47540   0.72789   0.95870   0.00000  Uiso   1.00
C913   C     0.48476   0.72136   0.54160   0.00000  Uiso   1.00
C914   C     0.48443   0.77932   0.45831   0.00000  Uiso   1.00
C915   C     0.28257   0.99987   0.54162   0.00000  Uiso   1.00
C916   C     0.27339   0.52310   0.45841   0.00000  Uiso   1.00
C917   C     0.01520   0.77971   0.54139   0.00000  Uiso   1.00
C918   C     0.01541   0.72142   0.45869   0.00000  Uiso   1.00
C919   C     0.21666   0.50160   0.54221   0.00000  Uiso   1.00
C920   C     0.22537   0.97796   0.45871   0.00000  Uiso   1.00
H921   H     0.22147   0.94938   0.02566   0.00000  Uiso   1.00
H922   H     0.27712   0.94871   0.97474   0.00000  Uiso   1.00
H923   H     0.05784   0.74952   0.02540   0.00000  Uiso   1.00
H924   H     0.04170   0.79086   0.97409   0.00000  Uiso   1.00
H925   H     0.27868   0.55091   0.02519   0.00000  Uiso   1.00
H926   H     0.22287   0.55154   0.97438   0.00000  Uiso   1.00
H927   H     0.44104   0.75224   0.02658   0.00000  Uiso   1.00
H928   H     0.45677   0.71048   0.97461   0.00000  Uiso   1.00
H929   H     0.47324   0.69873   0.52571   0.00000  Uiso   1.00
H930   H     0.47264   0.80179   0.47418   0.00000  Uiso   1.00
H931   H     0.30788   0.99914   0.52541   0.00000  Uiso   1.00
H932   H     0.29191   0.54068   0.47408   0.00000  Uiso   1.00
H933   H     0.02680   0.80224   0.52526   0.00000  Uiso   1.00
H934   H     0.02718   0.69911   0.47489   0.00000  Uiso   1.00
H935   H     0.19110   0.50263   0.52656   0.00000  Uiso   1.00
H936   H     0.20668   0.96062   0.47462   0.00000  Uiso   1.00
C937   C     0.23381   0.97101   0.08218   0.00000  Uiso   1.00
C938   C     0.26550   0.97046   0.91798   0.00000  Uiso   1.00
C939   C     0.03343   0.75066   0.08219   0.00000  Uiso   1.00
C940   C     0.02436   0.77269   0.91790   0.00000  Uiso   1.00
C941   C     0.26655   0.52928   0.08197   0.00000  Uiso   1.00
C942   C     0.23444   0.52952   0.91780   0.00000  Uiso   1.00
C943   C     0.46634   0.75087   0.08282   0.00000  Uiso   1.00
C944   C     0.47481   0.72781   0.91813   0.00000  Uiso   1.00
C945   C     0.48500   0.72072   0.58217   0.00000  Uiso   1.00
C946   C     0.48436   0.77966   0.41769   0.00000  Uiso   1.00
C947   C     0.28346   0.50043   0.58220   0.00000  Uiso   1.00
C948   C     0.27447   0.52260   0.41789   0.00000  Uiso   1.00
C949   C     0.01554   0.78014   0.58204   0.00000  Uiso   1.00
C950   C     0.01549   0.72064   0.41807   0.00000  Uiso   1.00
C951   C     0.21637   0.50111   0.58281   0.00000  Uiso   1.00
C952   C     0.22477   0.97788   0.41813   0.00000  Uiso   1.00
O953   O     0.25000   0.50000   0.25000   0.00000  Uiso   1.00
O954   O     0.25000   0.50000   0.75000   0.00000  Uiso   1.00
O955   O     0.00000   0.75000   0.25000   0.00000  Uiso   1.00
O956   O     0.00000   0.75000   0.75000   0.00000  Uiso   1.00
O957   O     0.25000   0.96964   0.33683   0.00000  Uiso   1.00
O958   O     0.25000   0.53036   0.66317   0.00000  Uiso   1.00
O959   O     0.03036   0.75000   0.33683   0.00000  Uiso   1.00
O960   O     0.46964   0.75000   0.66317   0.00000  Uiso   1.00
O961   O     0.25000   0.53036   0.33683   0.00000  Uiso   1.00
O962   O     0.25000   0.96964   0.66317   0.00000  Uiso   1.00
O963   O     0.46964   0.75000   0.33683   0.00000  Uiso   1.00
O964   O     0.03036   0.75000   0.66317   0.00000  Uiso   1.00
O965   O     0.00000   0.71964   0.83683   0.00000  Uiso   1.00
O966   O     0.00000   0.78036   0.16317   0.00000  Uiso   1.00
O967   O     0.28036   0.50000   0.83683   0.00000  Uiso   1.00
O968   O     0.21964   0.50000   0.16317   0.00000  Uiso   1.00
O969   O     0.00000   0.78036   0.83683   0.00000  Uiso   1.00
O970   O     0.00000   0.71964   0.16317   0.00000  Uiso   1.00
O971   O     0.21964   0.50000   0.83683   0.00000  Uiso   1.00
O972   O     0.28036   0.50000   0.16317   0.00000  Uiso   1.00
O973   O     0.20726   0.57307   0.27282   0.00000  Uiso   1.00
O974   O     0.29275   0.92693   0.72718   0.00000  Uiso   1.00
O975   O     0.42693   0.70725   0.27282   0.00000  Uiso   1.00
O976   O     0.07307   0.79274   0.72718   0.00000  Uiso   1.00
O977   O     0.29275   0.92693   0.27282   0.00000  Uiso   1.00
O978   O     0.20726   0.57307   0.72718   0.00000  Uiso   1.00
O979   O     0.07307   0.79274   0.27282   0.00000  Uiso   1.00
O980   O     0.42693   0.70725   0.72718   0.00000  Uiso   1.00
O981   O     0.20726   0.92693   0.72718   0.00000  Uiso   1.00
O982   O     0.29275   0.57307   0.27282   0.00000  Uiso   1.00
O983   O     0.42693   0.79274   0.72718   0.00000  Uiso   1.00
O984   O     0.07307   0.70725   0.27282   0.00000  Uiso   1.00
O985   O     0.29275   0.57307   0.72718   0.00000  Uiso   1.00
O986   O     0.20726   0.92693   0.27282   0.00000  Uiso   1.00
O987   O     0.07307   0.70725   0.72718   0.00000  Uiso   1.00
O988   O     0.42693   0.79274   0.27282   0.00000  Uiso   1.00
O989   O     0.45726   0.82307   0.77282   0.00000  Uiso   1.00
O990   O     0.04275   0.67693   0.22718   0.00000  Uiso   1.00
O991   O     0.17693   0.95725   0.77282   0.00000  Uiso   1.00
O992   O     0.32307   0.54274   0.22718   0.00000  Uiso   1.00
O993   O     0.04275   0.67693   0.77282   0.00000  Uiso   1.00
O994   O     0.45726   0.82307   0.22718   0.00000  Uiso   1.00
O995   O     0.32307   0.54274   0.77282   0.00000  Uiso   1.00
O996   O     0.17693   0.95725   0.22718   0.00000  Uiso   1.00
O997   O     0.45726   0.67693   0.22718   0.00000  Uiso   1.00
O998   O     0.04275   0.82307   0.77282   0.00000  Uiso   1.00
O999   O     0.17693   0.54274   0.22718   0.00000  Uiso   1.00
O1000  O     0.32307   0.95725   0.77282   0.00000  Uiso   1.00
O1001  O     0.04275   0.82307   0.22718   0.00000  Uiso   1.00
O1002  O     0.45726   0.67693   0.77282   0.00000  Uiso   1.00
O1003  O     0.32307   0.95725   0.22718   0.00000  Uiso   1.00
O1004  O     0.17693   0.54274   0.77282   0.00000  Uiso   1.00
C1005  C     0.24999   0.50019   0.02125   0.00000  Uiso   1.00
C1006  C     0.25000   0.50013   0.97872   0.00000  Uiso   1.00
C1007  C     0.49944   0.75062   0.02159   0.00000  Uiso   1.00
C1008  C     0.49927   0.75063   0.97891   0.00000  Uiso   1.00
C1009  C     0.49984   0.75059   0.52127   0.00000  Uiso   1.00
C1010  C     0.49992   0.75047   0.47872   0.00000  Uiso   1.00
C1011  C     0.24948   0.50062   0.52159   0.00000  Uiso   1.00
C1012  C     0.24933   0.50062   0.47891   0.00000  Uiso   1.00
C1013  C     0.24994   0.99998   0.35507   0.00000  Uiso   1.00
C1014  C     0.25010   0.50007   0.64506   0.00000  Uiso   1.00
C1015  C     0.49997   0.74997   0.35508   0.00000  Uiso   1.00
C1016  C     0.00006   0.75015   0.64492   0.00000  Uiso   1.00
C1017  C     0.49994   0.74998   0.85507   0.00000  Uiso   1.00
C1018  C     0.00010   0.75007   0.14506   0.00000  Uiso   1.00
C1019  C     0.24997   0.99996   0.85508   0.00000  Uiso   1.00
C1020  C     0.25004   0.50007   0.14491   0.00000  Uiso   1.00
C1021  C     0.17993   0.56990   0.25004   0.00000  Uiso   1.00
C1022  C     0.32006   0.92990   0.75021   0.00000  Uiso   1.00
C1023  C     0.43003   0.67984   0.25043   0.00000  Uiso   1.00
C1024  C     0.07011   0.81994   0.74973   0.00000  Uiso   1.00
C1025  C     0.31990   0.92971   0.24956   0.00000  Uiso   1.00
C1026  C     0.17961   0.56969   0.74912   0.00000  Uiso   1.00
C1027  C     0.07016   0.82005   0.24988   0.00000  Uiso   1.00
C1028  C     0.42983   0.68021   0.75019   0.00000  Uiso   1.00
C1029  C     0.18009   0.92981   0.75058   0.00000  Uiso   1.00
C1030  C     0.32017   0.56983   0.24994   0.00000  Uiso   1.00
C1031  C     0.42994   0.81991   0.75003   0.00000  Uiso   1.00
C1032  C     0.07004   0.67988   0.25023   0.00000  Uiso   1.00
C1033  C     0.32016   0.56996   0.75005   0.00000  Uiso   1.00
C1034  C     0.17989   0.93021   0.25019   0.00000  Uiso   1.00
C1035  C     0.07010   0.67990   0.74986   0.00000  Uiso   1.00
C1036  C     0.42975   0.81984   0.24939   0.00000  Uiso   1.00
C1037  C     0.11514   0.91218   0.24961   0.00000  Uiso   1.00
C1038  C     0.38535   0.58826   0.74721   0.00000  Uiso   1.00
C1039  C     0.11000   0.63681   0.21449   0.00000  Uiso   1.00
C1040  C     0.38952   0.86207   0.78553   0.00000  Uiso   1.00
C1041  C     0.38522   0.58808   0.24468   0.00000  Uiso   1.00
C1042  C     0.11543   0.91073   0.75953   0.00000  Uiso   1.00
C1043  C     0.40907   0.88211   0.23190   0.00000  Uiso   1.00
C1044  C     0.08935   0.61598   0.76227   0.00000  Uiso   1.00
C1045  C     0.11542   0.58842   0.75898   0.00000  Uiso   1.00
C1046  C     0.38196   0.90857   0.23129   0.00000  Uiso   1.00
C1047  C     0.08820   0.88422   0.75589   0.00000  Uiso   1.00
C1048  C     0.41220   0.61505   0.24556   0.00000  Uiso   1.00
C1049  C     0.36438   0.89080   0.78557   0.00000  Uiso   1.00
C1050  C     0.13807   0.61081   0.21420   0.00000  Uiso   1.00
C1051  C     0.41211   0.61565   0.74496   0.00000  Uiso   1.00
C1052  C     0.08833   0.88516   0.24647   0.00000  Uiso   1.00
C1053  C     0.36517   0.66184   0.75537   0.00000  Uiso   1.00
C1054  C     0.13553   0.83837   0.25237   0.00000  Uiso   1.00
C1055  C     0.35976   0.88656   0.71450   0.00000  Uiso   1.00
C1056  C     0.13912   0.61164   0.28556   0.00000  Uiso   1.00
C1057  C     0.13495   0.83860   0.74208   0.00000  Uiso   1.00
C1058  C     0.36520   0.66087   0.25808   0.00000  Uiso   1.00
C1059  C     0.15843   0.63141   0.73001   0.00000  Uiso   1.00
C1060  C     0.33907   0.86565   0.26142   0.00000  Uiso   1.00
C1061  C     0.36540   0.83831   0.25847   0.00000  Uiso   1.00
C1062  C     0.13210   0.65846   0.73114   0.00000  Uiso   1.00
C1063  C     0.33809   0.63421   0.25468   0.00000  Uiso   1.00
C1064  C     0.16209   0.86516   0.74461   0.00000  Uiso   1.00
C1065  C     0.11388   0.64029   0.28566   0.00000  Uiso   1.00
C1066  C     0.38785   0.86060   0.71420   0.00000  Uiso   1.00
C1067  C     0.16249   0.86544   0.24954   0.00000  Uiso   1.00
C1068  C     0.33827   0.63480   0.75531   0.00000  Uiso   1.00
C1069  C     0.09841   0.84825   0.24962   0.00000  Uiso   1.00
C1070  C     0.40184   0.65216   0.74976   0.00000  Uiso   1.00
C1071  C     0.15193   0.59797   0.24987   0.00000  Uiso   1.00
C1072  C     0.34875   0.90221   0.75008   0.00000  Uiso   1.00
C1073  C     0.40206   0.65151   0.25147   0.00000  Uiso   1.00
C1074  C     0.09817   0.84805   0.74861   0.00000  Uiso   1.00
C1075  C     0.34750   0.90105   0.24803   0.00000  Uiso   1.00
C1076  C     0.15082   0.59696   0.74622   0.00000  Uiso   1.00
C1077  C     0.09784   0.65137   0.74869   0.00000  Uiso   1.00
C1078  C     0.40111   0.84730   0.24699   0.00000  Uiso   1.00
C1079  C     0.15221   0.90144   0.75210   0.00000  Uiso   1.00
C1080  C     0.34829   0.59782   0.24922   0.00000  Uiso   1.00
C1081  C     0.40197   0.84802   0.74986   0.00000  Uiso   1.00
C1082  C     0.09867   0.65212   0.25012   0.00000  Uiso   1.00
C1083  C     0.34833   0.59810   0.75101   0.00000  Uiso   1.00
C1084  C     0.15204   0.90214   0.24967   0.00000  Uiso   1.00
C1085  C     0.25015   0.50015   0.10254   0.00000  Uiso   1.00
C1086  C     0.24994   0.99995   0.89743   0.00000  Uiso   1.00
C1087  C     0.49999   0.75034   0.10289   0.00000  Uiso   1.00
C1088  C     0.49977   0.75005   0.89750   0.00000  Uiso   1.00
C1089  C     0.00020   0.75040   0.60256   0.00000  Uiso   1.00
C1090  C     0.49992   0.75007   0.39742   0.00000  Uiso   1.00
C1091  C     0.25002   0.50034   0.60289   0.00000  Uiso   1.00
C1092  C     0.24980   0.50004   0.39750   0.00000  Uiso   1.00
N1093  N     0.10523   0.94902   0.25682   0.00000  Uiso   1.00
H1094  H     0.08703   0.95291   0.27928   0.00000  Uiso   1.00
C1095  C     0.09923   0.97230   0.22349   0.00000  Uiso   1.00
H1096  H     0.06957   0.97630   0.21894   0.00000  Uiso   1.00
H1097  H     0.11158   0.96091   0.19664   0.00000  Uiso   1.00
H1098  H     0.11179   0.99918   0.22909   0.00000  Uiso   1.00
N1099  N     0.39502   0.55105   0.74264   0.00000  Uiso   1.00
H1100  H     0.41282   0.54620   0.72005   0.00000  Uiso   1.00
C1101  C     0.40552   0.53262   0.77814   0.00000  Uiso   1.00
H1102  H     0.43172   0.54333   0.78935   0.00000  Uiso   1.00
H1103  H     0.40882   0.50324   0.77217   0.00000  Uiso   1.00
H1104  H     0.38454   0.53594   0.80110   0.00000  Uiso   1.00
N1105  N     0.09268   0.64770   0.17930   0.00000  Uiso   1.00
H1106  H     0.08586   0.62723   0.16033   0.00000  Uiso   1.00
C1107  C     0.10749   0.67973   0.16081   0.00000  Uiso   1.00
H1108  H     0.13459   0.67387   0.14807   0.00000  Uiso   1.00
H1109  H     0.10982   0.70237   0.18192   0.00000  Uiso   1.00
H1110  H     0.08896   0.68824   0.13712   0.00000  Uiso   1.00
N1111  N     0.40189   0.84643   0.82115   0.00000  Uiso   1.00
H1112  H     0.40515   0.86411   0.84397   0.00000  Uiso   1.00
C1113  C     0.38315   0.81345   0.83241   0.00000  Uiso   1.00
H1114  H     0.35406   0.81923   0.83880   0.00000  Uiso   1.00
H1115  H     0.39605   0.80201   0.85889   0.00000  Uiso   1.00
H1116  H     0.38487   0.79282   0.80899   0.00000  Uiso   1.00
N1117  N     0.39509   0.55097   0.23993   0.00000  Uiso   1.00
H1118  H     0.41464   0.54155   0.25887   0.00000  Uiso   1.00
C1119  C     0.39990   0.53894   0.20014   0.00000  Uiso   1.00
H1120  H     0.42738   0.52698   0.19620   0.00000  Uiso   1.00
H1121  H     0.39632   0.56142   0.17886   0.00000  Uiso   1.00
H1122  H     0.37953   0.51771   0.19364   0.00000  Uiso   1.00
N1123  N     0.10581   0.94699   0.76943   0.00000  Uiso   1.00
H1124  H     0.08342   0.95682   0.75482   0.00000  Uiso   1.00
C1125  C     0.10417   0.95401   0.81083   0.00000  Uiso   1.00
H1126  H     0.08105   0.93921   0.82441   0.00000  Uiso   1.00
H1127  H     0.10042   0.98349   0.81579   0.00000  Uiso   1.00
H1128  H     0.12975   0.94546   0.82536   0.00000  Uiso   1.00
N1129  N     0.44411   0.89027   0.21607   0.00000  Uiso   1.00
H1130  H     0.45607   0.91387   0.22575   0.00000  Uiso   1.00
C1131  C     0.44874   0.88330   0.17481   0.00000  Uiso   1.00
H1132  H     0.45327   0.90912   0.15890   0.00000  Uiso   1.00
H1133  H     0.42477   0.86907   0.16219   0.00000  Uiso   1.00
H1134  H     0.47305   0.86602   0.17027   0.00000  Uiso   1.00
N1135  N     0.05372   0.60754   0.77630   0.00000  Uiso   1.00
H1136  H     0.04204   0.58487   0.76395   0.00000  Uiso   1.00
C1137  C     0.04992   0.60845   0.81821   0.00000  Uiso   1.00
H1138  H     0.06581   0.58632   0.83197   0.00000  Uiso   1.00
H1139  H     0.02078   0.60505   0.82613   0.00000  Uiso   1.00
H1140  H     0.05957   0.63482   0.82993   0.00000  Uiso   1.00
N1141  N     0.10537   0.55142   0.76487   0.00000  Uiso   1.00
H1142  H     0.08720   0.54588   0.78693   0.00000  Uiso   1.00
C1143  C     0.09913   0.53087   0.72958   0.00000  Uiso   1.00
H1144  H     0.07094   0.51984   0.72944   0.00000  Uiso   1.00
H1145  H     0.11881   0.50815   0.72819   0.00000  Uiso   1.00
H1146  H     0.10281   0.54772   0.70296   0.00000  Uiso   1.00
N1147  N     0.38907   0.94248   0.21260   0.00000  Uiso   1.00
H1148  H     0.41223   0.95599   0.22138   0.00000  Uiso   1.00
C1149  C     0.38244   0.94350   0.17098   0.00000  Uiso   1.00
H1150  H     0.40733   0.95259   0.15535   0.00000  Uiso   1.00
H1151  H     0.36047   0.96316   0.16446   0.00000  Uiso   1.00
H1152  H     0.37396   0.91660   0.15949   0.00000  Uiso   1.00
N1153  N     0.05057   0.89375   0.75871   0.00000  Uiso   1.00
H1154  H     0.04414   0.91352   0.77863   0.00000  Uiso   1.00
C1155  C     0.03253   0.89880   0.72174   0.00000  Uiso   1.00
H1156  H     0.00308   0.90386   0.72669   0.00000  Uiso   1.00
H1157  H     0.03522   0.87415   0.70346   0.00000  Uiso   1.00
H1158  H     0.04444   0.92243   0.70608   0.00000  Uiso   1.00
N1159  N     0.44979   0.60535   0.24359   0.00000  Uiso   1.00
H1160  H     0.45811   0.58585   0.26315   0.00000  Uiso   1.00
C1161  C     0.46551   0.60166   0.20511   0.00000  Uiso   1.00
H1162  H     0.49152   0.61702   0.20382   0.00000  Uiso   1.00
H1163  H     0.44706   0.61230   0.18217   0.00000  Uiso   1.00
H1164  H     0.47169   0.57280   0.19904   0.00000  Uiso   1.00
N1165  N     0.35227   0.90621   0.82132   0.00000  Uiso   1.00
H1166  H     0.34550   0.88750   0.84246   0.00000  Uiso   1.00
C1167  C     0.37481   0.93546   0.83596   0.00000  Uiso   1.00
H1168  H     0.36066   0.94889   0.86056   0.00000  Uiso   1.00
H1169  H     0.37998   0.95606   0.81306   0.00000  Uiso   1.00
H1170  H     0.40140   0.92508   0.84636   0.00000  Uiso   1.00
N1171  N     0.15301   0.59787   0.17840   0.00000  Uiso   1.00
H1172  H     0.13550   0.59656   0.15515   0.00000  Uiso   1.00
C1173  C     0.18829   0.61278   0.16804   0.00000  Uiso   1.00
H1174  H     0.19734   0.60117   0.13989   0.00000  Uiso   1.00
H1175  H     0.20901   0.60591   0.19026   0.00000  Uiso   1.00
H1176  H     0.18681   0.64271   0.16513   0.00000  Uiso   1.00
N1177  N     0.44937   0.60701   0.73749   0.00000  Uiso   1.00
H1178  H     0.45862   0.58320   0.74952   0.00000  Uiso   1.00
C1179  C     0.46044   0.61132   0.69738   0.00000  Uiso   1.00
H1180  H     0.49031   0.60720   0.69490   0.00000  Uiso   1.00
H1181  H     0.45397   0.63902   0.68681   0.00000  Uiso   1.00
H1182  H     0.44632   0.59110   0.67881   0.00000  Uiso   1.00
N1183  N     0.05133   0.89510   0.23993   0.00000  Uiso   1.00
H1184  H     0.04201   0.91560   0.25763   0.00000  Uiso   1.00
C1185  C     0.04266   0.90124   0.19932   0.00000  Uiso   1.00
H1186  H     0.01544   0.91383   0.19685   0.00000  Uiso   1.00
H1187  H     0.04273   0.87539   0.18295   0.00000  Uiso   1.00
H1188  H     0.06261   0.91970   0.18534   0.00000  Uiso   1.00
N1189  N     0.35579   0.69833   0.76494   0.00000  Uiso   1.00
H1190  H     0.33739   0.70104   0.78744   0.00000  Uiso   1.00
C1191  C     0.34897   0.72272   0.73266   0.00000  Uiso   1.00
H1192  H     0.31951   0.72935   0.73112   0.00000  Uiso   1.00
H1193  H     0.35756   0.71081   0.70442   0.00000  Uiso   1.00
H1194  H     0.36428   0.74832   0.73731   0.00000  Uiso   1.00
N1195  N     0.14553   0.80108   0.25471   0.00000  Uiso   1.00
H1196  H     0.16516   0.79345   0.23489   0.00000  Uiso   1.00
C1197  C     0.15318   0.78819   0.29369   0.00000  Uiso   1.00
H1198  H     0.17708   0.80239   0.30622   0.00000  Uiso   1.00
H1199  H     0.15918   0.75875   0.29274   0.00000  Uiso   1.00
H1200  H     0.12949   0.79259   0.31318   0.00000  Uiso   1.00
N1201  N     0.34210   0.89708   0.67936   0.00000  Uiso   1.00
H1202  H     0.33518   0.87640   0.66069   0.00000  Uiso   1.00
C1203  C     0.35664   0.92898   0.66039   0.00000  Uiso   1.00
H1204  H     0.38359   0.92304   0.64731   0.00000  Uiso   1.00
H1205  H     0.35921   0.95180   0.68127   0.00000  Uiso   1.00
H1206  H     0.33779   0.93727   0.63687   0.00000  Uiso   1.00
N1207  N     0.15124   0.59571   0.32113   0.00000  Uiso   1.00
H1208  H     0.15424   0.61319   0.34416   0.00000  Uiso   1.00
C1209  C     0.13251   0.56257   0.33186   0.00000  Uiso   1.00
H1210  H     0.10335   0.56820   0.33803   0.00000  Uiso   1.00
H1211  H     0.14523   0.55094   0.35835   0.00000  Uiso   1.00
H1212  H     0.13451   0.54216   0.30826   0.00000  Uiso   1.00
N1213  N     0.14480   0.80198   0.73407   0.00000  Uiso   1.00
H1214  H     0.16644   0.79226   0.75004   0.00000  Uiso   1.00
C1215  C     0.14654   0.79263   0.69314   0.00000  Uiso   1.00
H1216  H     0.17419   0.78281   0.68543   0.00000  Uiso   1.00
H1217  H     0.13961   0.81599   0.67402   0.00000  Uiso   1.00
H1218  H     0.12685   0.77067   0.68711   0.00000  Uiso   1.00
N1219  N     0.35543   0.69729   0.26704   0.00000  Uiso   1.00
H1220  H     0.33339   0.70689   0.25167   0.00000  Uiso   1.00
C1221  C     0.35279   0.70488   0.30828   0.00000  Uiso   1.00
H1222  H     0.32930   0.69034   0.32145   0.00000  Uiso   1.00
H1223  H     0.34902   0.73442   0.31269   0.00000  Uiso   1.00
H1224  H     0.37797   0.69646   0.32365   0.00000  Uiso   1.00
N1225  N     0.19284   0.63935   0.71249   0.00000  Uiso   1.00
H1226  H     0.20349   0.66450   0.71902   0.00000  Uiso   1.00
C1227  C     0.19648   0.62968   0.67173   0.00000  Uiso   1.00
H1228  H     0.19781   0.65449   0.65346   0.00000  Uiso   1.00
H1229  H     0.17348   0.61240   0.66166   0.00000  Uiso   1.00
H1230  H     0.22216   0.61444   0.66732   0.00000  Uiso   1.00
N1231  N     0.30320   0.85693   0.27453   0.00000  Uiso   1.00
H1232  H     0.29188   0.83439   0.26157   0.00000  Uiso   1.00
C1233  C     0.29860   0.85717   0.31636   0.00000  Uiso   1.00
H1234  H     0.31417   0.83477   0.33004   0.00000  Uiso   1.00
H1235  H     0.26929   0.85369   0.32356   0.00000  Uiso   1.00
H1236  H     0.30807   0.88331   0.32880   0.00000  Uiso   1.00
N1237  N     0.35541   0.80118   0.26336   0.00000  Uiso   1.00
H1238  H     0.33665   0.79525   0.28472   0.00000  Uiso   1.00
C1239  C     0.35016   0.78121   0.22751   0.00000  Uiso   1.00
H1240  H     0.32196   0.77027   0.22623   0.00000  Uiso   1.00
H1241  H     0.36981   0.75845   0.22636   0.00000  Uiso   1.00
H1242  H     0.35466   0.79846   0.20133   0.00000  Uiso   1.00
N1243  N     0.14099   0.69267   0.71412   0.00000  Uiso   1.00
H1244  H     0.13737   0.71560   0.73076   0.00000  Uiso   1.00
C1245  C     0.13499   0.69619   0.67260   0.00000  Uiso   1.00
H1246  H     0.15889   0.70978   0.65913   0.00000  Uiso   1.00
H1247  H     0.11045   0.71278   0.66675   0.00000  Uiso   1.00
H1248  H     0.13097   0.66937   0.65851   0.00000  Uiso   1.00
N1249  N     0.30040   0.64373   0.25611   0.00000  Uiso   1.00
H1250  H     0.29347   0.66399   0.27525   0.00000  Uiso   1.00
C1251  C     0.28340   0.64793   0.21847   0.00000  Uiso   1.00
H1252  H     0.25386   0.65325   0.22238   0.00000  Uiso   1.00
H1253  H     0.28645   0.62281   0.20101   0.00000  Uiso   1.00
H1254  H     0.29584   0.67110   0.20251   0.00000  Uiso   1.00
N1255  N     0.19944   0.85442   0.74317   0.00000  Uiso   1.00
H1256  H     0.21644   0.86641   0.76325   0.00000  Uiso   1.00
C1257  C     0.21548   0.84945   0.70500   0.00000  Uiso   1.00
H1258  H     0.22613   0.82141   0.70268   0.00000  Uiso   1.00
H1259  H     0.23867   0.86848   0.70085   0.00000  Uiso   1.00
H1260  H     0.19545   0.85424   0.68136   0.00000  Uiso   1.00
N1261  N     0.10124   0.65520   0.32145   0.00000  Uiso   1.00
H1262  H     0.09431   0.63622   0.34225   0.00000  Uiso   1.00
C1263  C     0.12342   0.68439   0.33678   0.00000  Uiso   1.00
H1264  H     0.10867   0.69784   0.36094   0.00000  Uiso   1.00
H1265  H     0.12921   0.70496   0.31403   0.00000  Uiso   1.00
H1266  H     0.14971   0.67397   0.34797   0.00000  Uiso   1.00
N1267  N     0.40265   0.84753   0.67839   0.00000  Uiso   1.00
H1268  H     0.38500   0.84602   0.65527   0.00000  Uiso   1.00
C1269  C     0.43777   0.86259   0.66772   0.00000  Uiso   1.00
H1270  H     0.44673   0.85089   0.63959   0.00000  Uiso   1.00
H1271  H     0.45866   0.85599   0.68987   0.00000  Uiso   1.00
H1272  H     0.43608   0.89250   0.66463   0.00000  Uiso   1.00
N1273  N     0.20016   0.85621   0.24624   0.00000  Uiso   1.00
H1274  H     0.20840   0.83358   0.26134   0.00000  Uiso   1.00
C1275  C     0.21423   0.85705   0.20695   0.00000  Uiso   1.00
H1276  H     0.20095   0.83568   0.18916   0.00000  Uiso   1.00
H1277  H     0.24405   0.85213   0.20738   0.00000  Uiso   1.00
H1278  H     0.20940   0.88395   0.19337   0.00000  Uiso   1.00
N1279  N     0.30121   0.64490   0.76097   0.00000  Uiso   1.00
H1280  H     0.28559   0.62758   0.77773   0.00000  Uiso   1.00
C1281  C     0.28282   0.65860   0.72681   0.00000  Uiso   1.00
H1282  H     0.26545   0.68190   0.73518   0.00000  Uiso   1.00
H1283  H     0.26560   0.63698   0.71418   0.00000  Uiso   1.00
H1284  H     0.30228   0.66774   0.70400   0.00000  Uiso   1.00
N1285  N     0.21808   0.94032   0.10210   0.00000  Uiso   1.00
O1286  O     0.23367   0.92684   0.13283   0.00000  Uiso   1.00
O1287  O     0.19085   0.92285   0.08674   0.00000  Uiso   1.00
N1288  N     0.28077   0.93951   0.89832   0.00000  Uiso   1.00
O1289  O     0.26611   0.92709   0.86660   0.00000  Uiso   1.00
O1290  O     0.30668   0.92089   0.91464   0.00000  Uiso   1.00
N1291  N     0.06836   0.75177   0.10146   0.00000  Uiso   1.00
O1292  O     0.07216   0.76714   0.13522   0.00000  Uiso   1.00
O1293  O     0.09752   0.74104   0.08326   0.00000  Uiso   1.00
N1294  N     0.05133   0.79437   0.89811   0.00000  Uiso   1.00
O1295  O     0.07000   0.78083   0.86942   0.00000  Uiso   1.00
O1296  O     0.06101   0.82564   0.91225   0.00000  Uiso   1.00
N1297  N     0.28295   0.55970   0.10161   0.00000  Uiso   1.00
O1298  O     0.26878   0.57253   0.13343   0.00000  Uiso   1.00
O1299  O     0.30974   0.57732   0.08537   0.00000  Uiso   1.00
N1300  N     0.21922   0.56039   0.89791   0.00000  Uiso   1.00
O1301  O     0.23443   0.57315   0.86651   0.00000  Uiso   1.00
O1302  O     0.19273   0.57858   0.91372   0.00000  Uiso   1.00
N1303  N     0.43181   0.75151   0.10293   0.00000  Uiso   1.00
O1304  O     0.42715   0.73398   0.13543   0.00000  Uiso   1.00
O1305  O     0.40368   0.76674   0.08676   0.00000  Uiso   1.00
N1306  N     0.44798   0.70603   0.89850   0.00000  Uiso   1.00
O1307  O     0.42975   0.71928   0.86935   0.00000  Uiso   1.00
O1308  O     0.43787   0.67504   0.91323   0.00000  Uiso   1.00
N1309  N     0.47097   0.68927   0.60210   0.00000  Uiso   1.00
O1310  O     0.48807   0.67602   0.63200   0.00000  Uiso   1.00
O1311  O     0.44416   0.67082   0.58722   0.00000  Uiso   1.00
N1312  N     0.46910   0.81045   0.39769   0.00000  Uiso   1.00
O1313  O     0.48434   0.82318   0.36630   0.00000  Uiso   1.00
O1314  O     0.44253   0.82861   0.41341   0.00000  Uiso   1.00
N1315  N     0.31839   0.50130   0.60149   0.00000  Uiso   1.00
O1316  O     0.32228   0.51663   0.63525   0.00000  Uiso   1.00
O1317  O     0.34748   0.99036   0.58331   0.00000  Uiso   1.00
N1318  N     0.30150   0.54419   0.39809   0.00000  Uiso   1.00
O1319  O     0.32007   0.53063   0.36934   0.00000  Uiso   1.00
O1320  O     0.31133   0.57540   0.41226   0.00000  Uiso   1.00
N1321  N     0.03116   0.81096   0.60172   0.00000  Uiso   1.00
O1322  O     0.01738   0.82275   0.63418   0.00000  Uiso   1.00
O1323  O     0.05693   0.82976   0.58512   0.00000  Uiso   1.00
N1324  N     0.03071   0.68959   0.39853   0.00000  Uiso   1.00
O1325  O     0.01615   0.67721   0.36674   0.00000  Uiso   1.00
O1326  O     0.05637   0.67080   0.41506   0.00000  Uiso   1.00
N1327  N     0.18184   0.50199   0.60291   0.00000  Uiso   1.00
O1328  O     0.17705   0.98448   0.63541   0.00000  Uiso   1.00
O1329  O     0.15383   0.51742   0.58674   0.00000  Uiso   1.00
N1330  N     0.19787   0.95617   0.39852   0.00000  Uiso   1.00
O1331  O     0.17971   0.96945   0.36934   0.00000  Uiso   1.00
O1332  O     0.18767   0.92522   0.41327   0.00000  Uiso   1.00
Zn1333 Zn    0.70660   0.50000   0.21760   0.00000  Uiso   1.00
Zn1334 Zn    0.79340   0.50000   0.78240   0.00000  Uiso   1.00
Zn1335 Zn    0.50000   0.70660   0.21760   0.00000  Uiso   1.00
Zn1336 Zn    0.50000   0.79340   0.78240   0.00000  Uiso   1.00
Zn1337 Zn    0.79340   0.50000   0.21760   0.00000  Uiso   1.00
Zn1338 Zn    0.70660   0.50000   0.78240   0.00000  Uiso   1.00
Zn1339 Zn    0.50000   0.79340   0.21760   0.00000  Uiso   1.00
Zn1340 Zn    0.50000   0.70660   0.78240   0.00000  Uiso   1.00
Zn1341 Zn    0.95660   0.75000   0.71760   0.00000  Uiso   1.00
Zn1342 Zn    0.54340   0.75000   0.28240   0.00000  Uiso   1.00
Zn1343 Zn    0.75000   0.95660   0.71760   0.00000  Uiso   1.00
Zn1344 Zn    0.75000   0.54340   0.28240   0.00000  Uiso   1.00
Zn1345 Zn    0.54340   0.75000   0.71760   0.00000  Uiso   1.00
Zn1346 Zn    0.95660   0.75000   0.28240   0.00000  Uiso   1.00
Zn1347 Zn    0.75000   0.54340   0.71760   0.00000  Uiso   1.00
Zn1348 Zn    0.75000   0.95660   0.28240   0.00000  Uiso   1.00
C1349  C     0.73380   0.97156   0.04158   0.00000  Uiso   1.00
C1350  C     0.76540   0.97109   0.95861   0.00000  Uiso   1.00
C1351  C     0.53253   0.75009   0.04161   0.00000  Uiso   1.00
C1352  C     0.52325   0.77321   0.95842   0.00000  Uiso   1.00
C1353  C     0.76631   0.52879   0.04134   0.00000  Uiso   1.00
C1354  C     0.73456   0.52908   0.95842   0.00000  Uiso   1.00
C1355  C     0.96661   0.75138   0.04223   0.00000  Uiso   1.00
C1356  C     0.97540   0.72789   0.95870   0.00000  Uiso   1.00
C1357  C     0.98476   0.72136   0.54160   0.00000  Uiso   1.00
C1358  C     0.98443   0.77932   0.45831   0.00000  Uiso   1.00
C1359  C     0.78257   0.99987   0.54162   0.00000  Uiso   1.00
C1360  C     0.77339   0.52310   0.45841   0.00000  Uiso   1.00
C1361  C     0.51520   0.77971   0.54139   0.00000  Uiso   1.00
C1362  C     0.51541   0.72142   0.45869   0.00000  Uiso   1.00
C1363  C     0.71666   0.50160   0.54221   0.00000  Uiso   1.00
C1364  C     0.72537   0.97796   0.45871   0.00000  Uiso   1.00
H1365  H     0.72147   0.94938   0.02566   0.00000  Uiso   1.00
H1366  H     0.77712   0.94871   0.97474   0.00000  Uiso   1.00
H1367  H     0.55784   0.74952   0.02540   0.00000  Uiso   1.00
H1368  H     0.54170   0.79086   0.97409   0.00000  Uiso   1.00
H1369  H     0.77868   0.55091   0.02519   0.00000  Uiso   1.00
H1370  H     0.72287   0.55154   0.97438   0.00000  Uiso   1.00
H1371  H     0.94104   0.75224   0.02658   0.00000  Uiso   1.00
H1372  H     0.95677   0.71048   0.97461   0.00000  Uiso   1.00
H1373  H     0.97324   0.69873   0.52571   0.00000  Uiso   1.00
H1374  H     0.97264   0.80179   0.47418   0.00000  Uiso   1.00
H1375  H     0.80788   0.99914   0.52541   0.00000  Uiso   1.00
H1376  H     0.79191   0.54068   0.47408   0.00000  Uiso   1.00
H1377  H     0.52680   0.80224   0.52526   0.00000  Uiso   1.00
H1378  H     0.52718   0.69911   0.47489   0.00000  Uiso   1.00
H1379  H     0.69110   0.50263   0.52656   0.00000  Uiso   1.00
H1380  H     0.70668   0.96062   0.47462   0.00000  Uiso   1.00
C1381  C     0.73381   0.97101   0.08218   0.00000  Uiso   1.00
C1382  C     0.76550   0.97046   0.91798   0.00000  Uiso   1.00
C1383  C     0.53343   0.75066   0.08219   0.00000  Uiso   1.00
C1384  C     0.52436   0.77269   0.91790   0.00000  Uiso   1.00
C1385  C     0.76655   0.52928   0.08197   0.00000  Uiso   1.00
C1386  C     0.73444   0.52952   0.91780   0.00000  Uiso   1.00
C1387  C     0.96634   0.75087   0.08282   0.00000  Uiso   1.00
C1388  C     0.97481   0.72781   0.91813   0.00000  Uiso   1.00
C1389  C     0.98500   0.72072   0.58217   0.00000  Uiso   1.00
C1390  C     0.98436   0.77966   0.41769   0.00000  Uiso   1.00
C1391  C     0.78346   0.50043   0.58220   0.00000  Uiso   1.00
C1392  C     0.77447   0.52260   0.41789   0.00000  Uiso   1.00
C1393  C     0.51554   0.78014   0.58204   0.00000  Uiso   1.00
C1394  C     0.51549   0.72064   0.41807   0.00000  Uiso   1.00
C1395  C     0.71637   0.50111   0.58281   0.00000  Uiso   1.00
C1396  C     0.72477   0.97788   0.41813   0.00000  Uiso   1.00
O1397  O     0.75000   0.50000   0.25000   0.00000  Uiso   1.00
O1398  O     0.75000   0.50000   0.75000   0.00000  Uiso   1.00
O1399  O     0.50000   0.75000   0.25000   0.00000  Uiso   1.00
O1400  O     0.50000   0.75000   0.75000   0.00000  Uiso   1.00
O1401  O     0.75000   0.96964   0.33683   0.00000  Uiso   1.00
O1402  O     0.75000   0.53036   0.66317   0.00000  Uiso   1.00
O1403  O     0.53036   0.75000   0.33683   0.00000  Uiso   1.00
O1404  O     0.96964   0.75000   0.66317   0.00000  Uiso   1.00
O1405  O     0.75000   0.53036   0.33683   0.00000  Uiso   1.00
O1406  O     0.75000   0.96964   0.66317   0.00000  Uiso   1.00
O1407  O     0.96964   0.75000   0.33683   0.00000  Uiso   1.00
O1408  O     0.53036   0.75000   0.66317   0.00000  Uiso   1.00
O1409  O     0.50000   0.71964   0.83683   0.00000  Uiso   1.00
O1410  O     0.50000   0.78036   0.16317   0.00000  Uiso   1.00
O1411  O     0.78036   0.50000   0.83683   0.00000  Uiso   1.00
O1412  O     0.71964   0.50000   0.16317   0.00000  Uiso   1.00
O1413  O     0.50000   0.78036   0.83683   0.00000  Uiso   1.00
O1414  O     0.50000   0.71964   0.16317   0.00000  Uiso   1.00
O1415  O     0.71964   0.50000   0.83683   0.00000  Uiso   1.00
O1416  O     0.78036   0.50000   0.16317   0.00000  Uiso   1.00
O1417  O     0.70726   0.57307   0.27282   0.00000  Uiso   1.00
O1418  O     0.79275   0.92693   0.72718   0.00000  Uiso   1.00
O1419  O     0.92693   0.70725   0.27282   0.00000  Uiso   1.00
O1420  O     0.57307   0.79274   0.72718   0.00000  Uiso   1.00
O1421  O     0.79275   0.92693   0.27282   0.00000  Uiso   1.00
O1422  O     0.70726   0.57307   0.72718   0.00000  Uiso   1.00
O1423  O     0.57307   0.79274   0.27282   0.00000  Uiso   1.00
O1424  O     0.92693   0.70725   0.72718   0.00000  Uiso   1.00
O1425  O     0.70726   0.92693   0.72718   0.00000  Uiso   1.00
O1426  O     0.79275   0.57307   0.27282   0.00000  Uiso   1.00
O1427  O     0.92693   0.79274   0.72718   0.00000  Uiso   1.00
O1428  O     0.57307   0.70725   0.27282   0.00000  Uiso   1.00
O1429  O     0.79275   0.57307   0.72718   0.00000  Uiso   1.00
O1430  O     0.70726   0.92693   0.27282   0.00000  Uiso   1.00
O1431  O     0.57307   0.70725   0.72718   0.00000  Uiso   1.00
O1432  O     0.92693   0.79274   0.27282   0.00000  Uiso   1.00
O1433  O     0.95726   0.82307   0.77282   0.00000  Uiso   1.00
O1434  O     0.54275   0.67693   0.22718   0.00000  Uiso   1.00
O1435  O     0.67693   0.95725   0.77282   0.00000  Uiso   1.00
O1436  O     0.82307   0.54274   0.22718   0.00000  Uiso   1.00
O1437  O     0.54275   0.67693   0.77282   0.00000  Uiso   1.00
O1438  O     0.95726   0.82307   0.22718   0.00000  Uiso   1.00
O1439  O     0.82307   0.54274   0.77282   0.00000  Uiso   1.00
O1440  O     0.67693   0.95725   0.22718   0.00000  Uiso   1.00
O1441  O     0.95726   0.67693   0.22718   0.00000  Uiso   1.00
O1442  O     0.54275   0.82307   0.77282   0.00000  Uiso   1.00
O1443  O     0.67693   0.54274   0.22718   0.00000  Uiso   1.00
O1444  O     0.82307   0.95725   0.77282   0.00000  Uiso   1.00
O1445  O     0.54275   0.82307   0.22718   0.00000  Uiso   1.00
O1446  O     0.95726   0.67693   0.77282   0.00000  Uiso   1.00
O1447  O     0.82307   0.95725   0.22718   0.00000  Uiso   1.00
O1448  O     0.67693   0.54274   0.77282   0.00000  Uiso   1.00
C1449  C     0.74999   0.50019   0.02125   0.00000  Uiso   1.00
C1450  C     0.75000   0.50013   0.97872   0.00000  Uiso   1.00
C1451  C     0.99944   0.75062   0.02159   0.00000  Uiso   1.00
C1452  C     0.99927   0.75063   0.97891   0.00000  Uiso   1.00
C1453  C     0.99984   0.75059   0.52127   0.00000  Uiso   1.00
C1454  C     0.99992   0.75047   0.47872   0.00000  Uiso   1.00
C1455  C     0.74948   0.50062   0.52159   0.00000  Uiso   1.00
C1456  C     0.74933   0.50062   0.47891   0.00000  Uiso   1.00
C1457  C     0.74994   0.99998   0.35507   0.00000  Uiso   1.00
C1458  C     0.75010   0.50007   0.64506   0.00000  Uiso   1.00
C1459  C     0.99997   0.74997   0.35508   0.00000  Uiso   1.00
C1460  C     0.50006   0.75015   0.64492   0.00000  Uiso   1.00
C1461  C     0.99994   0.74998   0.85507   0.00000  Uiso   1.00
C1462  C     0.50010   0.75007   0.14506   0.00000  Uiso   1.00
C1463  C     0.74997   0.99996   0.85508   0.00000  Uiso   1.00
C1464  C     0.75004   0.50007   0.14491   0.00000  Uiso   1.00
C1465  C     0.67993   0.56990   0.25004   0.00000  Uiso   1.00
C1466  C     0.82006   0.92990   0.75021   0.00000  Uiso   1.00
C1467  C     0.93003   0.67984   0.25043   0.00000  Uiso   1.00
C1468  C     0.57011   0.81994   0.74973   0.00000  Uiso   1.00
C1469  C     0.81990   0.92971   0.24956   0.00000  Uiso   1.00
C1470  C     0.67961   0.56969   0.74912   0.00000  Uiso   1.00
C1471  C     0.57016   0.82005   0.24988   0.00000  Uiso   1.00
C1472  C     0.92983   0.68021   0.75019   0.00000  Uiso   1.00
C1473  C     0.68009   0.92981   0.75058   0.00000  Uiso   1.00
C1474  C     0.82017   0.56983   0.24994   0.00000  Uiso   1.00
C1475  C     0.92994   0.81991   0.75003   0.00000  Uiso   1.00
C1476  C     0.57004   0.67988   0.25023   0.00000  Uiso   1.00
C1477  C     0.82016   0.56996   0.75005   0.00000  Uiso   1.00
C1478  C     0.67989   0.93021   0.25019   0.00000  Uiso   1.00
C1479  C     0.57010   0.67990   0.74986   0.00000  Uiso   1.00
C1480  C     0.92975   0.81984   0.24939   0.00000  Uiso   1.00
C1481  C     0.61514   0.91218   0.24961   0.00000  Uiso   1.00
C1482  C     0.88535   0.58826   0.74721   0.00000  Uiso   1.00
C1483  C     0.61000   0.63681   0.21449   0.00000  Uiso   1.00
C1484  C     0.88952   0.86207   0.78553   0.00000  Uiso   1.00
C1485  C     0.88522   0.58808   0.24468   0.00000  Uiso   1.00
C1486  C     0.61543   0.91073   0.75953   0.00000  Uiso   1.00
C1487  C     0.90907   0.88211   0.23190   0.00000  Uiso   1.00
C1488  C     0.58935   0.61598   0.76227   0.00000  Uiso   1.00
C1489  C     0.61542   0.58842   0.75898   0.00000  Uiso   1.00
C1490  C     0.88196   0.90857   0.23129   0.00000  Uiso   1.00
C1491  C     0.58820   0.88422   0.75589   0.00000  Uiso   1.00
C1492  C     0.91220   0.61505   0.24556   0.00000  Uiso   1.00
C1493  C     0.86438   0.89080   0.78557   0.00000  Uiso   1.00
C1494  C     0.63807   0.61081   0.21420   0.00000  Uiso   1.00
C1495  C     0.91211   0.61565   0.74496   0.00000  Uiso   1.00
C1496  C     0.58833   0.88516   0.24647   0.00000  Uiso   1.00
C1497  C     0.86517   0.66184   0.75537   0.00000  Uiso   1.00
C1498  C     0.63553   0.83837   0.25237   0.00000  Uiso   1.00
C1499  C     0.85976   0.88656   0.71450   0.00000  Uiso   1.00
C1500  C     0.63912   0.61164   0.28556   0.00000  Uiso   1.00
C1501  C     0.63495   0.83860   0.74208   0.00000  Uiso   1.00
C1502  C     0.86520   0.66087   0.25808   0.00000  Uiso   1.00
C1503  C     0.65843   0.63141   0.73001   0.00000  Uiso   1.00
C1504  C     0.83907   0.86565   0.26142   0.00000  Uiso   1.00
C1505  C     0.86540   0.83831   0.25847   0.00000  Uiso   1.00
C1506  C     0.63210   0.65846   0.73114   0.00000  Uiso   1.00
C1507  C     0.83809   0.63421   0.25468   0.00000  Uiso   1.00
C1508  C     0.66209   0.86516   0.74461   0.00000  Uiso   1.00
C1509  C     0.61388   0.64029   0.28566   0.00000  Uiso   1.00
C1510  C     0.88785   0.86060   0.71420   0.00000  Uiso   1.00
C1511  C     0.66249   0.86544   0.24954   0.00000  Uiso   1.00
C1512  C     0.83827   0.63480   0.75531   0.00000  Uiso   1.00
C1513  C     0.59841   0.84825   0.24962   0.00000  Uiso   1.00
C1514  C     0.90184   0.65216   0.74976   0.00000  Uiso   1.00
C1515  C     0.65193   0.59797   0.24987   0.00000  Uiso   1.00
C1516  C     0.84875   0.90221   0.75008   0.00000  Uiso   1.00
C1517  C     0.90206   0.65151   0.25147   0.00000  Uiso   1.00
C1518  C     0.59817   0.84805   0.74861   0.00000  Uiso   1.00
C1519  C     0.84750   0.90105   0.24803   0.00000  Uiso   1.00
C1520  C     0.65082   0.59696   0.74622   0.00000  Uiso   1.00
C1521  C     0.59784   0.65137   0.74869   0.00000  Uiso   1.00
C1522  C     0.90111   0.84730   0.24699   0.00000  Uiso   1.00
C1523  C     0.65221   0.90144   0.75210   0.00000  Uiso   1.00
C1524  C     0.84829   0.59782   0.24922   0.00000  Uiso   1.00
C1525  C     0.90197   0.84802   0.74986   0.00000  Uiso   1.00
C1526  C     0.59867   0.65212   0.25012   0.00000  Uiso   1.00
C1527  C     0.84833   0.59810   0.75101   0.00000  Uiso   1.00
C1528  C     0.65204   0.90214   0.24967   0.00000  Uiso   1.00
C1529  C     0.75015   0.50015   0.10254   0.00000  Uiso   1.00
C1530  C     0.74994   0.99995   0.89743   0.00000  Uiso   1.00
C1531  C     0.99999   0.75034   0.10289   0.00000  Uiso   1.00
C1532  C     0.99977   0.75005   0.89750   0.00000  Uiso   1.00
C1533  C     0.50020   0.75040   0.60256   0.00000  Uiso   1.00
C1534  C     0.99992   0.75007   0.39742   0.00000  Uiso   1.00
C1535  C     0.75002   0.50034   0.60289   0.00000  Uiso   1.00
C1536  C     0.74980   0.50004   0.39750   0.00000  Uiso   1.00
N1537  N     0.60523   0.94902   0.25682   0.00000  Uiso   1.00
H1538  H     0.58703   0.95291   0.27928   0.00000  Uiso   1.00
C1539  C     0.59923   0.97230   0.22349   0.00000  Uiso   1.00
H1540  H     0.56957   0.97630   0.21894   0.00000  Uiso   1.00
H1541  H     0.61158   0.96091   0.19664   0.00000  Uiso   1.00
H1542  H     0.61179   0.99918   0.22909   0.00000  Uiso   1.00
N1543  N     0.89502   0.55105   0.74264   0.00000  Uiso   1.00
H1544  H     0.91282   0.54620   0.72005   0.00000  Uiso   1.00
C1545  C     0.90552   0.53262   0.77814   0.00000  Uiso   1.00
H1546  H     0.93172   0.54333   0.78935   0.00000  Uiso   1.00
H1547  H     0.90882   0.50324   0.77217   0.00000  Uiso   1.00
H1548  H     0.88454   0.53594   0.80110   0.00000  Uiso   1.00
N1549  N     0.59268   0.64770   0.17930   0.00000  Uiso   1.00
H1550  H     0.58586   0.62723   0.16033   0.00000  Uiso   1.00
C1551  C     0.60749   0.67973   0.16081   0.00000  Uiso   1.00
H1552  H     0.63459   0.67387   0.14807   0.00000  Uiso   1.00
H1553  H     0.60982   0.70237   0.18192   0.00000  Uiso   1.00
H1554  H     0.58896   0.68824   0.13712   0.00000  Uiso   1.00
N1555  N     0.90189   0.84643   0.82115   0.00000  Uiso   1.00
H1556  H     0.90515   0.86411   0.84397   0.00000  Uiso   1.00
C1557  C     0.88315   0.81345   0.83241   0.00000  Uiso   1.00
H1558  H     0.85406   0.81923   0.83880   0.00000  Uiso   1.00
H1559  H     0.89605   0.80201   0.85889   0.00000  Uiso   1.00
H1560  H     0.88487   0.79282   0.80899   0.00000  Uiso   1.00
N1561  N     0.89509   0.55097   0.23993   0.00000  Uiso   1.00
H1562  H     0.91464   0.54155   0.25887   0.00000  Uiso   1.00
C1563  C     0.89990   0.53894   0.20014   0.00000  Uiso   1.00
H1564  H     0.92738   0.52698   0.19620   0.00000  Uiso   1.00
H1565  H     0.89632   0.56142   0.17886   0.00000  Uiso   1.00
H1566  H     0.87953   0.51771   0.19364   0.00000  Uiso   1.00
N1567  N     0.60581   0.94699   0.76943   0.00000  Uiso   1.00
H1568  H     0.58342   0.95682   0.75482   0.00000  Uiso   1.00
C1569  C     0.60417   0.95401   0.81083   0.00000  Uiso   1.00
H1570  H     0.58105   0.93921   0.82441   0.00000  Uiso   1.00
H1571  H     0.60042   0.98349   0.81579   0.00000  Uiso   1.00
H1572  H     0.62975   0.94546   0.82536   0.00000  Uiso   1.00
N1573  N     0.94411   0.89027   0.21607   0.00000  Uiso   1.00
H1574  H     0.95607   0.91387   0.22575   0.00000  Uiso   1.00
C1575  C     0.94874   0.88330   0.17481   0.00000  Uiso   1.00
H1576  H     0.95327   0.90912   0.15890   0.00000  Uiso   1.00
H1577  H     0.92477   0.86907   0.16219   0.00000  Uiso   1.00
H1578  H     0.97305   0.86602   0.17027   0.00000  Uiso   1.00
N1579  N     0.55372   0.60754   0.77630   0.00000  Uiso   1.00
H1580  H     0.54204   0.58487   0.76395   0.00000  Uiso   1.00
C1581  C     0.54992   0.60845   0.81821   0.00000  Uiso   1.00
H1582  H     0.56581   0.58632   0.83197   0.00000  Uiso   1.00
H1583  H     0.52078   0.60505   0.82613   0.00000  Uiso   1.00
H1584  H     0.55957   0.63482   0.82993   0.00000  Uiso   1.00
N1585  N     0.60537   0.55142   0.76487   0.00000  Uiso   1.00
H1586  H     0.58720   0.54588   0.78693   0.00000  Uiso   1.00
C1587  C     0.59913   0.53087   0.72958   0.00000  Uiso   1.00
H1588  H     0.57094   0.51984   0.72944   0.00000  Uiso   1.00
H1589  H     0.61881   0.50815   0.72819   0.00000  Uiso   1.00
H1590  H     0.60281   0.54772   0.70296   0.00000  Uiso   1.00
N1591  N     0.88907   0.94248   0.21260   0.00000  Uiso   1.00
H1592  H     0.91223   0.95599   0.22138   0.00000  Uiso   1.00
C1593  C     0.88244   0.94350   0.17098   0.00000  Uiso   1.00
H1594  H     0.90733   0.95259   0.15535   0.00000  Uiso   1.00
H1595  H     0.86047   0.96316   0.16446   0.00000  Uiso   1.00
H1596  H     0.87396   0.91660   0.15949   0.00000  Uiso   1.00
N1597  N     0.55057   0.89375   0.75871   0.00000  Uiso   1.00
H1598  H     0.54414   0.91352   0.77863   0.00000  Uiso   1.00
C1599  C     0.53253   0.89880   0.72174   0.00000  Uiso   1.00
H1600  H     0.50308   0.90386   0.72669   0.00000  Uiso   1.00
H1601  H     0.53522   0.87415   0.70346   0.00000  Uiso   1.00
H1602  H     0.54444   0.92243   0.70608   0.00000  Uiso   1.00
N1603  N     0.94979   0.60535   0.24359   0.00000  Uiso   1.00
H1604  H     0.95811   0.58585   0.26315   0.00000  Uiso   1.00
C1605  C     0.96551   0.60166   0.20511   0.00000  Uiso   1.00
H1606  H     0.99152   0.61702   0.20382   0.00000  Uiso   1.00
H1607  H     0.94706   0.61230   0.18217   0.00000  Uiso   1.00
H1608  H     0.97169   0.57280   0.19904   0.00000  Uiso   1.00
N1609  N     0.85227   0.90621   0.82132   0.00000  Uiso   1.00
H1610  H     0.84550   0.88750   0.84246   0.00000  Uiso   1.00
C1611  C     0.87481   0.93546   0.83596   0.00000  Uiso   1.00
H1612  H     0.86066   0.94889   0.86056   0.00000  Uiso   1.00
H1613  H     0.87998   0.95606   0.81306   0.00000  Uiso   1.00
H1614  H     0.90140   0.92508   0.84636   0.00000  Uiso   1.00
N1615  N     0.65301   0.59787   0.17840   0.00000  Uiso   1.00
H1616  H     0.63550   0.59656   0.15515   0.00000  Uiso   1.00
C1617  C     0.68829   0.61278   0.16804   0.00000  Uiso   1.00
H1618  H     0.69734   0.60117   0.13989   0.00000  Uiso   1.00
H1619  H     0.70901   0.60591   0.19026   0.00000  Uiso   1.00
H1620  H     0.68681   0.64271   0.16513   0.00000  Uiso   1.00
N1621  N     0.94937   0.60701   0.73749   0.00000  Uiso   1.00
H1622  H     0.95862   0.58320   0.74952   0.00000  Uiso   1.00
C1623  C     0.96044   0.61132   0.69738   0.00000  Uiso   1.00
H1624  H     0.99031   0.60720   0.69490   0.00000  Uiso   1.00
H1625  H     0.95397   0.63902   0.68681   0.00000  Uiso   1.00
H1626  H     0.94632   0.59110   0.67881   0.00000  Uiso   1.00
N1627  N     0.55133   0.89510   0.23993   0.00000  Uiso   1.00
H1628  H     0.54201   0.91560   0.25763   0.00000  Uiso   1.00
C1629  C     0.54266   0.90124   0.19932   0.00000  Uiso   1.00
H1630  H     0.51544   0.91383   0.19685   0.00000  Uiso   1.00
H1631  H     0.54273   0.87539   0.18295   0.00000  Uiso   1.00
H1632  H     0.56261   0.91970   0.18534   0.00000  Uiso   1.00
N1633  N     0.85579   0.69833   0.76494   0.00000  Uiso   1.00
H1634  H     0.83739   0.70104   0.78744   0.00000  Uiso   1.00
C1635  C     0.84897   0.72272   0.73266   0.00000  Uiso   1.00
H1636  H     0.81951   0.72935   0.73112   0.00000  Uiso   1.00
H1637  H     0.85756   0.71081   0.70442   0.00000  Uiso   1.00
H1638  H     0.86428   0.74832   0.73731   0.00000  Uiso   1.00
N1639  N     0.64553   0.80108   0.25471   0.00000  Uiso   1.00
H1640  H     0.66516   0.79345   0.23489   0.00000  Uiso   1.00
C1641  C     0.65318   0.78819   0.29369   0.00000  Uiso   1.00
H1642  H     0.67708   0.80239   0.30622   0.00000  Uiso   1.00
H1643  H     0.65918   0.75875   0.29274   0.00000  Uiso   1.00
H1644  H     0.62949   0.79259   0.31318   0.00000  Uiso   1.00
N1645  N     0.84210   0.89708   0.67936   0.00000  Uiso   1.00
H1646  H     0.83518   0.87640   0.66069   0.00000  Uiso   1.00
C1647  C     0.85664   0.92898   0.66039   0.00000  Uiso   1.00
H1648  H     0.88359   0.92304   0.64731   0.00000  Uiso   1.00
H1649  H     0.85921   0.95180   0.68127   0.00000  Uiso   1.00
H1650  H     0.83779   0.93727   0.63687   0.00000  Uiso   1.00
N1651  N     0.65124   0.59571   0.32113   0.00000  Uiso   1.00
H1652  H     0.65424   0.61319   0.34416   0.00000  Uiso   1.00
C1653  C     0.63251   0.56257   0.33186   0.00000  Uiso   1.00
H1654  H     0.60335   0.56820   0.33803   0.00000  Uiso   1.00
H1655  H     0.64523   0.55094   0.35835   0.00000  Uiso   1.00
H1656  H     0.63451   0.54216   0.30826   0.00000  Uiso   1.00
N1657  N     0.64480   0.80198   0.73407   0.00000  Uiso   1.00
H1658  H     0.66644   0.79226   0.75004   0.00000  Uiso   1.00
C1659  C     0.64654   0.79263   0.69314   0.00000  Uiso   1.00
H1660  H     0.67419   0.78281   0.68543   0.00000  Uiso   1.00
H1661  H     0.63961   0.81599   0.67402   0.00000  Uiso   1.00
H1662  H     0.62685   0.77067   0.68711   0.00000  Uiso   1.00
N1663  N     0.85543   0.69729   0.26704   0.00000  Uiso   1.00
H1664  H     0.83339   0.70689   0.25167   0.00000  Uiso   1.00
C1665  C     0.85279   0.70488   0.30828   0.00000  Uiso   1.00
H1666  H     0.82930   0.69034   0.32145   0.00000  Uiso   1.00
H1667  H     0.84902   0.73442   0.31269   0.00000  Uiso   1.00
H1668  H     0.87797   0.69646   0.32365   0.00000  Uiso   1.00
N1669  N     0.69284   0.63935   0.71249   0.00000  Uiso   1.00
H1670  H     0.70349   0.66450   0.71902   0.00000  Uiso   1.00
C1671  C     0.69648   0.62968   0.67173   0.00000  Uiso   1.00
H1672  H     0.69781   0.65449   0.65346   0.00000  Uiso   1.00
H1673  H     0.67348   0.61240   0.66166   0.00000  Uiso   1.00
H1674  H     0.72216   0.61444   0.66732   0.00000  Uiso   1.00
N1675  N     0.80320   0.85693   0.27453   0.00000  Uiso   1.00
H1676  H     0.79188   0.83439   0.26157   0.00000  Uiso   1.00
C1677  C     0.79860   0.85717   0.31636   0.00000  Uiso   1.00
H1678  H     0.81417   0.83477   0.33004   0.00000  Uiso   1.00
H1679  H     0.76929   0.85369   0.32356   0.00000  Uiso   1.00
H1680  H     0.80807   0.88331   0.32880   0.00000  Uiso   1.00
N1681  N     0.85541   0.80118   0.26336   0.00000  Uiso   1.00
H1682  H     0.83665   0.79525   0.28472   0.00000  Uiso   1.00
C1683  C     0.85016   0.78121   0.22751   0.00000  Uiso   1.00
H1684  H     0.82196   0.77027   0.22623   0.00000  Uiso   1.00
H1685  H     0.86981   0.75845   0.22636   0.00000  Uiso   1.00
H1686  H     0.85466   0.79846   0.20133   0.00000  Uiso   1.00
N1687  N     0.64099   0.69267   0.71412   0.00000  Uiso   1.00
H1688  H     0.63737   0.71560   0.73076   0.00000  Uiso   1.00
C1689  C     0.63499   0.69619   0.67260   0.00000  Uiso   1.00
H1690  H     0.65889   0.70978   0.65913   0.00000  Uiso   1.00
H1691  H     0.61045   0.71278   0.66675   0.00000  Uiso   1.00
H1692  H     0.63097   0.66937   0.65851   0.00000  Uiso   1.00
N1693  N     0.80040   0.64373   0.25611   0.00000  Uiso   1.00
H1694  H     0.79347   0.66399   0.27525   0.00000  Uiso   1.00
C1695  C     0.78340   0.64793   0.21847   0.00000  Uiso   1.00
H1696  H     0.75386   0.65325   0.22238   0.00000  Uiso   1.00
H1697  H     0.78645   0.62281   0.20101   0.00000  Uiso   1.00
H1698  H     0.79584   0.67110   0.20251   0.00000  Uiso   1.00
N1699  N     0.69944   0.85442   0.74317   0.00000  Uiso   1.00
H1700  H     0.71644   0.86641   0.76325   0.00000  Uiso   1.00
C1701  C     0.71548   0.84945   0.70500   0.00000  Uiso   1.00
H1702  H     0.72613   0.82141   0.70268   0.00000  Uiso   1.00
H1703  H     0.73867   0.86848   0.70085   0.00000  Uiso   1.00
H1704  H     0.69545   0.85424   0.68136   0.00000  Uiso   1.00
N1705  N     0.60124   0.65520   0.32145   0.00000  Uiso   1.00
H1706  H     0.59431   0.63622   0.34225   0.00000  Uiso   1.00
C1707  C     0.62342   0.68439   0.33678   0.00000  Uiso   1.00
H1708  H     0.60867   0.69784   0.36094   0.00000  Uiso   1.00
H1709  H     0.62921   0.70496   0.31403   0.00000  Uiso   1.00
H1710  H     0.64971   0.67397   0.34797   0.00000  Uiso   1.00
N1711  N     0.90265   0.84753   0.67839   0.00000  Uiso   1.00
H1712  H     0.88500   0.84602   0.65527   0.00000  Uiso   1.00
C1713  C     0.93777   0.86259   0.66772   0.00000  Uiso   1.00
H1714  H     0.94673   0.85089   0.63959   0.00000  Uiso   1.00
H1715  H     0.95866   0.85599   0.68987   0.00000  Uiso   1.00
H1716  H     0.93608   0.89250   0.66463   0.00000  Uiso   1.00
N1717  N     0.70016   0.85621   0.24624   0.00000  Uiso   1.00
H1718  H     0.70840   0.83358   0.26134   0.00000  Uiso   1.00
C1719  C     0.71423   0.85705   0.20695   0.00000  Uiso   1.00
H1720  H     0.70095   0.83568   0.18916   0.00000  Uiso   1.00
H1721  H     0.74405   0.85213   0.20738   0.00000  Uiso   1.00
H1722  H     0.70940   0.88395   0.19337   0.00000  Uiso   1.00
N1723  N     0.80121   0.64490   0.76097   0.00000  Uiso   1.00
H1724  H     0.78559   0.62758   0.77773   0.00000  Uiso   1.00
C1725  C     0.78282   0.65860   0.72681   0.00000  Uiso   1.00
H1726  H     0.76545   0.68190   0.73518   0.00000  Uiso   1.00
H1727  H     0.76560   0.63698   0.71418   0.00000  Uiso   1.00
H1728  H     0.80228   0.66774   0.70400   0.00000  Uiso   1.00
N1729  N     0.71808   0.94032   0.10210   0.00000  Uiso   1.00
O1730  O     0.73367   0.92684   0.13283   0.00000  Uiso   1.00
O1731  O     0.69085   0.92285   0.08674   0.00000  Uiso   1.00
N1732  N     0.78077   0.93951   0.89832   0.00000  Uiso   1.00
O1733  O     0.76611   0.92709   0.86660   0.00000  Uiso   1.00
O1734  O     0.80668   0.92089   0.91464   0.00000  Uiso   1.00
N1735  N     0.56836   0.75177   0.10146   0.00000  Uiso   1.00
O1736  O     0.57216   0.76714   0.13522   0.00000  Uiso   1.00
O1737  O     0.59752   0.74104   0.08326   0.00000  Uiso   1.00
N1738  N     0.55133   0.79437   0.89811   0.00000  Uiso   1.00
O1739  O     0.57000   0.78083   0.86942   0.00000  Uiso   1.00
O1740  O     0.56101   0.82564   0.91225   0.00000  Uiso   1.00
N1741  N     0.78295   0.55970   0.10161   0.00000  Uiso   1.00
O1742  O     0.76878   0.57253   0.13343   0.00000  Uiso   1.00
O1743  O     0.80974   0.57732   0.08537   0.00000  Uiso   1.00
N1744  N     0.71922   0.56039   0.89791   0.00000  Uiso   1.00
O1745  O     0.73443   0.57315   0.86651   0.00000  Uiso   1.00
O1746  O     0.69273   0.57858   0.91372   0.00000  Uiso   1.00
N1747  N     0.93181   0.75151   0.10293   0.00000  Uiso   1.00
O1748  O     0.92715   0.73398   0.13543   0.00000  Uiso   1.00
O1749  O     0.90368   0.76674   0.08676   0.00000  Uiso   1.00
N1750  N     0.94798   0.70603   0.89850   0.00000  Uiso   1.00
O1751  O     0.92975   0.71928   0.86935   0.00000  Uiso   1.00
O1752  O     0.93787   0.67504   0.91323   0.00000  Uiso   1.00
N1753  N     0.97097   0.68927   0.60210   0.00000  Uiso   1.00
O1754  O     0.98807   0.67602   0.63200   0.00000  Uiso   1.00
O1755  O     0.94416   0.67082   0.58722   0.00000  Uiso   1.00
N1756  N     0.96910   0.81045   0.39769   0.00000  Uiso   1.00
O1757  O     0.98434   0.82318   0.36630   0.00000  Uiso   1.00
O1758  O     0.94253   0.82861   0.41341   0.00000  Uiso   1.00
N1759  N     0.81839   0.50130   0.60149   0.00000  Uiso   1.00
O1760  O     0.82228   0.51663   0.63525   0.00000  Uiso   1.00
O1761  O     0.84748   0.99036   0.58331   0.00000  Uiso   1.00
N1762  N     0.80150   0.54419   0.39809   0.00000  Uiso   1.00
O1763  O     0.82007   0.53063   0.36934   0.00000  Uiso   1.00
O1764  O     0.81133   0.57540   0.41226   0.00000  Uiso   1.00
N1765  N     0.53116   0.81096   0.60172   0.00000  Uiso   1.00
O1766  O     0.51738   0.82275   0.63418   0.00000  Uiso   1.00
O1767  O     0.55693   0.82976   0.58512   0.00000  Uiso   1.00
N1768  N     0.53071   0.68959   0.39853   0.00000  Uiso   1.00
O1769  O     0.51615   0.67721   0.36674   0.00000  Uiso   1.00
O1770  O     0.55637   0.67080   0.41506   0.00000  Uiso   1.00
N1771  N     0.68184   0.50199   0.60291   0.00000  Uiso   1.00
O1772  O     0.67705   0.98448   0.63541   0.00000  Uiso   1.00
O1773  O     0.65383   0.51742   0.58674   0.00000  Uiso   1.00
N1774  N     0.69787   0.95617   0.39852   0.00000  Uiso   1.00
O1775  O     0.67971   0.96945   0.36934   0.00000  Uiso   1.00
O1776  O     0.68767   0.92522   0.41327   0.00000  Uiso   1.00
loop_
_geom_bond_atom_site_label_1
_geom_bond_atom_site_label_2
_geom_bond_distance
_geom_bond_site_symmetry_2
_ccdc_geom_bond_type
Zn1    O65     1.946   .     S
Zn1    O111    1.946   .     S
Zn1    O80     1.932   .     S
Zn1    O996    1.941   1_545 S
Zn2    O66     1.946   .     S
Zn2    O79     1.932   .     S
Zn2    O107    1.941   .     S
Zn2    O1000   1.946   1_545 S
Zn3    O102    1.943   .     S
Zn3    O67     1.952   .     S
Zn3    O82     1.932   .     S
Zn3    O553    1.938   1_455 S
Zn4    O81     1.932   .     S
Zn4    O110    1.938   .     S
Zn4    O68     1.952   .     S
Zn4    O545    1.943   1_455 S
Zn5    O65     1.943   .     S
Zn5    O84     1.934   .     S
Zn5    O104    1.943   .     S
Zn5    O1003   1.946   1_545 S
Zn6    O116    1.946   .     S
Zn6    O83     1.934   .     S
Zn6    O66     1.943   .     S
Zn6    O991    1.943   1_545 S
Zn7    O113    1.940   .     S
Zn7    O67     1.948   .     S
Zn7    O78     1.934   .     S
Zn7    O550    1.943   1_455 S
Zn8    O558    1.940   1_455 S
Zn8    O68     1.948   .     S
Zn8    O77     1.934   .     S
Zn8    O105    1.943   .     S
Zn9    O95     1.946   .     S
Zn9    O72     1.932   .     S
Zn9    O92     1.941   .     S
Zn9    O512    1.946   .     S
Zn10   O71     1.932   .     S
Zn10   O91     1.941   .     S
Zn10   O96     1.946   .     S
Zn10   O67     1.946   .     S
Zn11   O86     1.943   .     S
Zn11   O93     1.938   .     S
Zn11   O74     1.932   .     S
Zn11   O954    1.952   .     S
Zn12   O73     1.932   .     S
Zn12   O94     1.938   .     S
Zn12   O65     1.952   .     S
Zn12   O85     1.943   .     S
Zn13   O99     1.946   .     S
Zn13   O76     1.934   .     S
Zn13   O88     1.943   .     S
Zn13   O68     1.943   .     S
Zn14   O100    1.946   .     S
Zn14   O75     1.934   .     S
Zn14   O87     1.943   .     S
Zn14   O511    1.943   .     S
Zn15   O97     1.940   .     S
Zn15   O66     1.948   .     S
Zn15   O70     1.934   .     S
Zn15   O90     1.943   .     S
Zn16   O89     1.943   .     S
Zn16   O98     1.940   .     S
Zn16   O69     1.934   .     S
Zn16   O953    1.948   .     S
C17    C49     1.397   .     A
C17    H33     1.084   .     S
C17    C1005   1.396   .     S
C18    H34     1.084   .     S
C18    C50     1.398   .     A
C18    C1006   1.396   .     S
C19    H35     1.083   .     S
C19    C51     1.397   .     A
C19    C563    1.398   1_455 S
C20    H36     1.083   .     S
C20    C52     1.395   .     A
C20    C564    1.398   1_455 S
C21    C117    1.397   .     A
C21    H37     1.084   .     S
C21    C53     1.398   .     A
C22    H38     1.084   .     S
C22    C118    1.396   .     A
C22    C54     1.397   .     A
C23    C55     1.397   .     A
C23    C119    1.398   .     A
C23    H39     1.083   .     S
C24    C120    1.399   .     A
C24    C56     1.396   .     A
C24    H40     1.083   .     S
C25    C57     1.396   .     A
C25    H41     1.084   .     S
C25    C121    1.396   .     A
C26    H42     1.084   .     S
C26    C58     1.397   .     A
C26    C122    1.396   .     A
C27    H43     1.083   .     S
C27    C947    1.397   .     S
C27    C1011   1.398   .     S
C28    C60     1.395   .     A
C28    C124    1.398   .     A
C28    H44     1.083   .     S
C29    H45     1.084   .     S
C29    C61     1.399   .     A
C29    C565    1.397   1_455 S
C30    H46     1.084   .     S
C30    C62     1.398   .     A
C30    C566    1.397   1_455 S
C31    C63     1.397   .     A
C31    H47     1.083   .     S
C31    C123    1.398   .     A
C32    C64     1.396   .     A
C32    H48     1.083   .     S
C32    C1012   1.398   .     S
C49    N397    1.440   .     S
C49    C1085   1.417   .     S
C50    C198    1.418   .     A
C50    N400    1.442   .     S
C51    N403    1.445   .     S
C51    C643    1.418   1_455 S
C52    N406    1.440   .     S
C52    C644    1.416   1_455 S
C53    C197    1.417   .     A
C53    N409    1.442   .     S
C54    N412    1.441   .     S
C54    C1086   1.417   1_545 S
C55    C199    1.417   .     A
C55    N415    1.443   .     S
C56    C200    1.416   .     A
C56    N418    1.440   .     S
C57    N421    1.439   .     S
C57    C645    1.415   .     S
C58    C202    1.417   .     A
C58    N424    1.441   .     S
C59    C203    1.418   .     A
C59    N427    1.445   .     S
C59    C915    1.397   1_545 S
C60    C204    1.416   .     A
C60    N430    1.440   .     S
C61    N433    1.442   .     S
C61    C201    1.418   .     A
C62    N436    1.442   .     S
C62    C646    1.417   1_455 S
C63    C203    1.417   .     A
C63    N439    1.443   .     S
C64    N442    1.440   .     S
C64    C1092   1.416   .     S
O65    Zn904   1.948   1_545 S
O66    Zn899   1.952   1_545 S
O67    Zn458   1.943   1_455 S
O68    Zn453   1.946   1_455 S
O69    C125    1.284   .     A
O70    C126    1.280   .     A
O71    C571    1.279   1_455 S
O72    C572    1.280   .     S
O73    C1013   1.283   1_545 S
O74    C1014   1.282   .     S
O75    C127    1.279   .     A
O76    C128    1.279   .     A
O77    C573    1.284   1_455 S
O78    C130    1.280   .     S
O79    C1019   1.279   1_545 S
O80    C132    1.280   .     A
O81    C573    1.283   1_455 S
O82    C130    1.282   .     S
O83    C1019   1.280   1_545 S
O84    C132    1.279   .     A
O85    C133    1.280   .     A
O86    C134    1.284   .     A
O87    C135    1.277   .     A
O88    C136    1.274   .     A
O89    C137    1.281   .     A
O90    C138    1.269   .     A
O91    C139    1.283   .     A
O92    C140    1.277   .     A
O93    C141    1.285   .     A
O94    C142    1.283   .     A
O95    C143    1.279   .     A
O96    C144    1.280   .     A
O97    C145    1.284   .     A
O98    C146    1.278   .     A
O99    C147    1.278   .     A
O100   C148    1.286   .     A
O101   C143    1.279   .     A
O101   Zn448   1.943   .     S
O102   C144    1.284   .     A
O103   C141    1.275   .     A
O103   Zn894   1.943   .     S
O104   C142    1.275   .     A
O105   C147    1.281   .     A
O106   C148    1.270   .     A
O106   Zn451   1.943   .     S
O107   C145    1.276   .     A
O108   C146    1.277   .     A
O108   Zn889   1.941   .     S
O109   C135    1.284   .     A
O109   Zn447   1.938   .     S
O110   C136    1.285   .     A
O111   C133    1.279   .     A
O112   C134    1.280   .     A
O112   Zn890   1.946   .     S
O113   C139    1.280   .     A
O114   Zn452   1.940   .     S
O114   C140    1.280   .     A
O115   C137    1.278   .     A
O115   Zn893   1.946   .     S
O116   C138    1.287   .     A
C117   C905    1.396   1_545 S
C117   C118    1.463   1_554 S
C118   C117    1.463   1_556 S
C118   C906    1.396   1_545 S
C119   C463    1.398   .     S
C119   C120    1.469   1_554 S
C120   C119    1.469   1_556 S
C120   C464    1.398   .     S
C121   C122    1.464   .     S
C121   C473    1.397   .     S
C122   C474    1.397   .     S
C123   C124    1.469   .     S
C123   C915    1.398   1_545 S
C124   C920    1.398   1_545 S
C125   O961    1.283   .     S
C125   C1092   1.460   .     S
C126   C203    1.451   .     S
C126   O962    1.282   1_545 S
C127   C202    1.457   .     S
C127   O515    1.279   .     S
C128   C201    1.457   .     S
C128   O516    1.280   1_455 S
C129   C200    1.460   .     S
C129   O525    1.283   .     S
C129   O521    1.284   .     S
C130   C643    1.451   1_455 S
C131   C198    1.457   .     S
C131   O967    1.279   .     S
C131   O971    1.280   .     S
C132   C197    1.458   .     S
C133   C183    1.460   .     S
C134   C184    1.469   .     S
C135   C185    1.463   .     S
C136   C186    1.460   .     S
C137   C187    1.467   .     S
C138   C188    1.464   .     S
C139   C181    1.467   .     S
C140   C182    1.456   .     S
C141   C191    1.462   .     S
C142   C192    1.458   .     S
C143   C193    1.461   .     S
C144   C194    1.469   .     S
C145   C195    1.463   .     S
C146   C196    1.453   .     S
C147   C189    1.466   .     S
C148   C190    1.463   .     S
C149   C196    1.405   .     A
C149   C164    1.403   .     A
C149   N205    1.429   .     S
C150   C163    1.409   .     A
C150   C195    1.414   .     A
C150   N211    1.427   .     S
C151   C194    1.413   .     A
C151   C162    1.409   .     A
C151   N217    1.426   .     S
C152   N223    1.429   .     S
C152   C161    1.407   .     A
C152   C193    1.409   .     A
C153   N229    1.426   .     S
C153   C160    1.402   .     A
C153   C192    1.412   .     A
C154   C191    1.417   .     A
C154   C159    1.402   .     A
C154   N235    1.425   .     S
C155   C158    1.396   .     A
C155   C190    1.413   .     A
C155   N241    1.427   .     S
C156   N247    1.427   .     S
C156   C189    1.419   .     A
C156   C157    1.402   .     A
C157   C188    1.406   .     A
C157   N253    1.426   .     S
C158   C187    1.416   .     A
C158   N259    1.427   .     S
C159   C186    1.407   .     A
C159   N265    1.429   .     S
C160   C185    1.411   .     A
C160   N271    1.428   .     S
C161   C184    1.414   .     A
C161   N277    1.427   .     S
C162   C183    1.411   .     A
C162   N283    1.431   .     S
C163   C182    1.408   .     A
C163   N289    1.428   .     S
C164   N295    1.426   .     S
C164   C181    1.415   .     A
C165   C182    1.407   .     A
C165   N301    1.428   .     S
C165   C180    1.401   .     A
C166   N307    1.426   .     S
C166   C181    1.415   .     A
C166   C179    1.407   .     A
C167   C178    1.409   .     A
C167   C184    1.413   .     A
C167   N313    1.426   .     S
C168   C177    1.407   .     A
C168   C183    1.409   .     A
C168   N319    1.429   .     S
C169   C176    1.399   .     A
C169   N325    1.426   .     S
C169   C186    1.413   .     A
C170   N331    1.425   .     S
C170   C185    1.415   .     A
C170   C175    1.402   .     A
C171   N337    1.428   .     S
C171   C188    1.413   .     A
C171   C174    1.391   .     A
C172   N343    1.427   .     S
C172   C187    1.416   .     A
C172   C173    1.402   .     A
C173   N349    1.426   .     S
C173   C190    1.407   .     A
C174   C189    1.417   .     A
C174   N355    1.426   .     S
C175   N361    1.429   .     S
C175   C192    1.407   .     A
C176   N367    1.429   .     S
C176   C191    1.411   .     A
C177   C194    1.414   .     A
C177   N373    1.427   .     S
C178   C193    1.411   .     A
C178   N379    1.431   .     S
C179   C196    1.408   .     A
C179   N385    1.429   .     S
C180   N391    1.424   .     S
C180   C195    1.412   .     A
C197   C937    1.417   1_545 S
C198   C942    1.417   .     S
C199   C574    1.451   .     S
C199   C495    1.418   .     S
C200   C496    1.416   .     S
C201   C501    1.415   1_455 S
C202   C506    1.417   .     S
C204   C1013   1.460   1_545 S
C204   C952    1.416   1_545 S
N205   H206    1.031   .     S
N205   C207    1.448   .     S
C207   H210    1.110   .     S
C207   H209    1.112   .     S
C207   H208    1.111   .     S
N211   C213    1.450   .     S
N211   H212    1.031   .     S
C213   H215    1.110   .     S
C213   H214    1.109   .     S
C213   H216    1.109   .     S
N217   H218    1.030   .     S
N217   C219    1.444   .     S
C219   H222    1.108   .     S
C219   H220    1.108   .     S
C219   H221    1.111   .     S
N223   H224    1.029   .     S
N223   C225    1.447   .     S
C225   H228    1.111   .     S
C225   H227    1.110   .     S
C225   H226    1.111   .     S
N229   H230    1.031   .     S
N229   C231    1.451   .     S
C231   H234    1.105   .     S
C231   H233    1.113   .     S
C231   H232    1.110   .     S
N235   C237    1.450   .     S
N235   H236    1.030   .     S
C237   H240    1.111   .     S
C237   H239    1.110   .     S
C237   H238    1.110   .     S
N241   H242    1.030   .     S
N241   C243    1.453   .     S
C243   H244    1.109   .     S
C243   H245    1.113   .     S
C243   H246    1.109   .     S
N247   C249    1.449   .     S
N247   H248    1.031   .     S
C249   H250    1.110   .     S
C249   H251    1.110   .     S
C249   H252    1.111   .     S
N253   C255    1.451   .     S
N253   H254    1.029   .     S
C255   H257    1.109   .     S
C255   H256    1.111   .     S
C255   H258    1.113   .     S
N259   C261    1.453   .     S
N259   H260    1.031   .     S
C261   H264    1.113   .     S
C261   H262    1.110   .     S
C261   H263    1.108   .     S
N265   C267    1.447   .     S
N265   H266    1.029   .     S
C267   H270    1.111   .     S
C267   H268    1.111   .     S
C267   H269    1.111   .     S
N271   H272    1.031   .     S
N271   C273    1.450   .     S
C273   H276    1.109   .     S
C273   H274    1.110   .     S
C273   H275    1.112   .     S
N277   H278    1.031   .     S
N277   C279    1.449   .     S
C279   H281    1.109   .     S
C279   H280    1.110   .     S
C279   H282    1.109   .     S
N283   H284    1.028   .     S
N283   C285    1.449   .     S
C285   H287    1.109   .     S
C285   H286    1.110   .     S
C285   H288    1.109   .     S
N289   H290    1.028   .     S
N289   C291    1.446   .     S
C291   H293    1.110   .     S
C291   H292    1.111   .     S
C291   H294    1.111   .     S
N295   C297    1.451   .     S
N295   H296    1.030   .     S
C297   H299    1.108   .     S
C297   H298    1.106   .     S
C297   H300    1.107   .     S
N301   H302    1.032   .     S
N301   C303    1.450   .     S
C303   H305    1.113   .     S
C303   H304    1.111   .     S
C303   H306    1.109   .     S
N307   C309    1.450   .     S
N307   H308    1.031   .     S
C309   H311    1.109   .     S
C309   H312    1.110   .     S
C309   H310    1.109   .     S
N313   C315    1.444   .     S
N313   H314    1.030   .     S
C315   H317    1.112   .     S
C315   H318    1.109   .     S
C315   H316    1.108   .     S
N319   C321    1.447   .     S
N319   H320    1.029   .     S
C321   H322    1.111   .     S
C321   H324    1.111   .     S
C321   H323    1.111   .     S
N325   C327    1.452   .     S
N325   H326    1.032   .     S
C327   H328    1.110   .     S
C327   H330    1.104   .     S
C327   H329    1.113   .     S
N331   H332    1.030   .     S
N331   C333    1.450   .     S
C333   H334    1.110   .     S
C333   H336    1.111   .     S
C333   H335    1.109   .     S
N337   H338    1.031   .     S
N337   C339    1.453   .     S
C339   H342    1.109   .     S
C339   H340    1.110   .     S
C339   H341    1.113   .     S
N343   C345    1.449   .     S
N343   H344    1.031   .     S
C345   H348    1.111   .     S
C345   H347    1.110   .     S
C345   H346    1.110   .     S
N349   H350    1.029   .     S
N349   C351    1.451   .     S
C351   H352    1.111   .     S
C351   H354    1.113   .     S
C351   H353    1.109   .     S
N355   C357    1.451   .     S
N355   H356    1.031   .     S
C357   H358    1.109   .     S
C357   H360    1.112   .     S
C357   H359    1.108   .     S
N361   C363    1.447   .     S
N361   H362    1.029   .     S
C363   H366    1.111   .     S
C363   H364    1.110   .     S
C363   H365    1.111   .     S
N367   H368    1.032   .     S
N367   C369    1.450   .     S
C369   H372    1.112   .     S
C369   H371    1.111   .     S
C369   H370    1.109   .     S
N373   C375    1.449   .     S
N373   H374    1.031   .     S
C375   H376    1.110   .     S
C375   H378    1.109   .     S
C375   H377    1.108   .     S
N379   H380    1.028   .     S
N379   C381    1.449   .     S
C381   H382    1.110   .     S
C381   H384    1.109   .     S
C381   H383    1.109   .     S
N385   C387    1.447   .     S
N385   H386    1.028   .     S
C387   H390    1.110   .     S
C387   H388    1.111   .     S
C387   H389    1.110   .     S
N391   C393    1.447   .     S
N391   H392    1.031   .     S
C393   H394    1.109   .     S
C393   H396    1.112   .     S
C393   H395    1.106   .     S
N397   O399    1.301   .     A
N397   O398    1.301   .     A
N400   O401    1.301   .     A
N400   O402    1.302   .     A
N403   O405    1.302   .     A
N403   O404    1.301   .     A
N406   O408    1.301   .     A
N406   O407    1.302   .     A
N409   O410    1.301   .     A
N409   O411    1.301   .     A
N412   O413    1.301   .     A
N412   O414    1.301   .     A
N415   O417    1.302   .     A
N415   O416    1.301   .     A
N418   O420    1.301   .     A
N418   O419    1.302   .     A
N421   O422    1.301   .     A
N421   O423    1.301   .     A
N424   O425    1.301   .     A
N424   O426    1.302   .     A
N427   O428    1.301   .     A
N427   O1317   1.302   1_545 S
O429   N1315   1.302   .     S
N430   O432    1.301   .     A
N430   O431    1.302   .     A
N433   O435    1.302   .     A
N433   O434    1.301   .     A
N436   O437    1.301   .     A
N436   O438    1.302   .     A
N439   O441    1.302   .     A
N439   O1328   1.301   1_545 S
O440   N1327   1.301   .     S
N442   O443    1.302   .     A
N442   O444    1.301   .     A
Zn445  O509    1.946   .     S
Zn445  O555    1.946   .     S
Zn445  O524    1.932   .     S
Zn445  O1440   1.941   1_545 S
Zn446  O510    1.946   .     S
Zn446  O523    1.932   .     S
Zn446  O551    1.941   .     S
Zn446  O1444   1.946   1_545 S
Zn447  O546    1.943   .     S
Zn447  O511    1.952   .     S
Zn447  O526    1.932   .     S
Zn448  O525    1.932   .     S
Zn448  O554    1.938   .     S
Zn448  O512    1.952   .     S
Zn449  O509    1.943   .     S
Zn449  O528    1.934   .     S
Zn449  O548    1.943   .     S
Zn449  O1447   1.946   1_545 S
Zn450  O560    1.946   .     S
Zn450  O527    1.934   .     S
Zn450  O510    1.943   .     S
Zn450  O1435   1.943   1_545 S
Zn451  O557    1.940   .     S
Zn451  O511    1.948   .     S
Zn451  O522    1.934   .     S
Zn452  O512    1.948   .     S
Zn452  O521    1.934   .     S
Zn452  O549    1.943   .     S
Zn453  O539    1.946   .     S
Zn453  O516    1.932   .     S
Zn453  O536    1.941   .     S
Zn453  O68     1.946   1_655 S
Zn454  O515    1.932   .     S
Zn454  O535    1.941   .     S
Zn454  O540    1.946   .     S
Zn454  O511    1.946   .     S
Zn455  O530    1.943   .     S
Zn455  O537    1.938   .     S
Zn455  O518    1.932   .     S
Zn455  O1398   1.952   .     S
Zn456  O517    1.932   .     S
Zn456  O538    1.938   .     S
Zn456  O509    1.952   .     S
Zn456  O529    1.943   .     S
Zn457  O543    1.946   .     S
Zn457  O520    1.934   .     S
Zn457  O532    1.943   .     S
Zn457  O512    1.943   .     S
Zn458  O544    1.946   .     S
Zn458  O519    1.934   .     S
Zn458  O531    1.943   .     S
Zn458  O67     1.943   1_655 S
Zn459  O541    1.940   .     S
Zn459  O510    1.948   .     S
Zn459  O514    1.934   .     S
Zn459  O534    1.943   .     S
Zn460  O533    1.943   .     S
Zn460  O542    1.940   .     S
Zn460  O513    1.934   .     S
Zn460  O1397   1.948   .     S
C461   C493    1.397   .     A
C461   H477    1.084   .     S
C461   C1449   1.396   .     S
C462   H478    1.084   .     S
C462   C494    1.398   .     A
C462   C1450   1.396   .     S
C463   H479    1.083   .     S
C463   C495    1.397   .     A
C464   H480    1.083   .     S
C464   C496    1.395   .     A
C465   C561    1.397   .     A
C465   H481    1.084   .     S
C465   C497    1.398   .     A
C466   H482    1.084   .     S
C466   C562    1.396   .     A
C466   C498    1.397   .     A
C467   C499    1.397   .     A
C467   C563    1.398   .     A
C467   H483    1.083   .     S
C468   C564    1.399   .     A
C468   C500    1.396   .     A
C468   H484    1.083   .     S
C469   C501    1.396   .     A
C469   H485    1.084   .     S
C469   C565    1.396   .     A
C470   H486    1.084   .     S
C470   C502    1.397   .     A
C470   C566    1.396   .     A
C471   H487    1.083   .     S
C471   C1391   1.397   .     S
C471   C1455   1.398   .     S
C472   C504    1.395   .     A
C472   C568    1.398   .     A
C472   H488    1.083   .     S
C473   H489    1.084   .     S
C473   C505    1.399   .     A
C474   H490    1.084   .     S
C474   C506    1.398   .     A
C475   C507    1.397   .     A
C475   H491    1.083   .     S
C475   C567    1.398   .     A
C476   C508    1.396   .     A
C476   H492    1.083   .     S
C476   C1456   1.398   .     S
C493   N841    1.440   .     S
C493   C1529   1.417   .     S
C494   C642    1.418   .     A
C494   N844    1.442   .     S
C495   N847    1.445   .     S
C496   N850    1.440   .     S
C497   C641    1.417   .     A
C497   N853    1.442   .     S
C498   N856    1.441   .     S
C498   C1530   1.417   1_545 S
C499   C643    1.417   .     A
C499   N859    1.443   .     S
C500   C644    1.416   .     A
C500   N862    1.440   .     S
C501   N865    1.439   .     S
C501   C201    1.415   1_655 S
C502   C646    1.417   .     A
C502   N868    1.441   .     S
C503   C647    1.418   .     A
C503   N871    1.445   .     S
C503   C1359   1.397   1_545 S
C504   C648    1.416   .     A
C504   N874    1.440   .     S
C505   N877    1.442   .     S
C505   C645    1.418   .     A
C506   N880    1.442   .     S
C507   C647    1.417   .     A
C507   N883    1.443   .     S
C508   N886    1.440   .     S
C508   C1536   1.416   .     S
O509   Zn1348  1.948   1_545 S
O510   Zn1343  1.952   1_545 S
O513   C569    1.284   .     A
O514   C570    1.280   .     A
O516   C128    1.280   1_655 S
O517   C1457   1.283   1_545 S
O518   C1458   1.282   .     S
O519   C571    1.279   .     A
O520   C572    1.279   .     A
O522   C574    1.280   .     S
O523   C1463   1.279   1_545 S
O524   C576    1.280   .     A
O526   C574    1.282   .     S
O527   C1463   1.280   1_545 S
O528   C576    1.279   .     A
O529   C577    1.280   .     A
O530   C578    1.284   .     A
O531   C579    1.277   .     A
O532   C580    1.274   .     A
O533   C581    1.281   .     A
O534   C582    1.269   .     A
O535   C583    1.283   .     A
O536   C584    1.277   .     A
O537   C585    1.285   .     A
O538   C586    1.283   .     A
O539   C587    1.279   .     A
O540   C588    1.280   .     A
O541   C589    1.284   .     A
O542   C590    1.278   .     A
O543   C591    1.278   .     A
O544   C592    1.286   .     A
O545   C587    1.279   .     A
O545   Zn4     1.943   1_655 S
O546   C588    1.284   .     A
O547   C585    1.275   .     A
O547   Zn1338  1.943   .     S
O548   C586    1.275   .     A
O549   C591    1.281   .     A
O550   C592    1.270   .     A
O550   Zn7     1.943   1_655 S
O551   C589    1.276   .     A
O552   C590    1.277   .     A
O552   Zn1333  1.941   .     S
O553   C579    1.284   .     A
O553   Zn3     1.938   1_655 S
O554   C580    1.285   .     A
O555   C577    1.279   .     A
O556   C578    1.280   .     A
O556   Zn1334  1.946   .     S
O557   C583    1.280   .     A
O558   Zn8     1.940   1_655 S
O558   C584    1.280   .     A
O559   C581    1.278   .     A
O559   Zn1337  1.946   .     S
O560   C582    1.287   .     A
C561   C1349   1.396   1_545 S
C561   C562    1.463   1_554 S
C562   C561    1.463   1_556 S
C562   C1350   1.396   1_545 S
C563   C19     1.398   1_655 S
C563   C564    1.469   1_554 S
C564   C563    1.469   1_556 S
C564   C20     1.398   1_655 S
C565   C566    1.464   .     S
C565   C29     1.397   1_655 S
C566   C30     1.397   1_655 S
C567   C568    1.469   .     S
C567   C1359   1.398   1_545 S
C568   C1364   1.398   1_545 S
C569   O1405   1.283   .     S
C569   C1536   1.460   .     S
C570   C647    1.451   .     S
C570   O1406   1.282   1_545 S
C571   C646    1.457   .     S
C571   O71     1.279   1_655 S
C572   C645    1.457   .     S
C573   C644    1.460   .     S
C573   O81     1.283   1_655 S
C573   O77     1.284   1_655 S
C575   C642    1.457   .     S
C575   O1411   1.279   .     S
C575   O1415   1.280   .     S
C576   C641    1.458   .     S
C577   C627    1.460   .     S
C578   C628    1.469   .     S
C579   C629    1.463   .     S
C580   C630    1.460   .     S
C581   C631    1.467   .     S
C582   C632    1.464   .     S
C583   C625    1.467   .     S
C584   C626    1.456   .     S
C585   C635    1.462   .     S
C586   C636    1.458   .     S
C587   C637    1.461   .     S
C588   C638    1.469   .     S
C589   C639    1.463   .     S
C590   C640    1.453   .     S
C591   C633    1.466   .     S
C592   C634    1.463   .     S
C593   C640    1.405   .     A
C593   C608    1.403   .     A
C593   N649    1.429   .     S
C594   C607    1.409   .     A
C594   C639    1.414   .     A
C594   N655    1.427   .     S
C595   C638    1.413   .     A
C595   C606    1.409   .     A
C595   N661    1.426   .     S
C596   N667    1.429   .     S
C596   C605    1.407   .     A
C596   C637    1.409   .     A
C597   N673    1.426   .     S
C597   C604    1.402   .     A
C597   C636    1.412   .     A
C598   C635    1.417   .     A
C598   C603    1.402   .     A
C598   N679    1.425   .     S
C599   C602    1.396   .     A
C599   C634    1.413   .     A
C599   N685    1.427   .     S
C600   N691    1.427   .     S
C600   C633    1.419   .     A
C600   C601    1.402   .     A
C601   C632    1.406   .     A
C601   N697    1.426   .     S
C602   C631    1.416   .     A
C602   N703    1.427   .     S
C603   C630    1.407   .     A
C603   N709    1.429   .     S
C604   C629    1.411   .     A
C604   N715    1.428   .     S
C605   C628    1.414   .     A
C605   N721    1.427   .     S
C606   C627    1.411   .     A
C606   N727    1.431   .     S
C607   C626    1.408   .     A
C607   N733    1.428   .     S
C608   N739    1.426   .     S
C608   C625    1.415   .     A
C609   C626    1.407   .     A
C609   N745    1.428   .     S
C609   C624    1.401   .     A
C610   N751    1.426   .     S
C610   C625    1.415   .     A
C610   C623    1.407   .     A
C611   C622    1.409   .     A
C611   C628    1.413   .     A
C611   N757    1.426   .     S
C612   C621    1.407   .     A
C612   C627    1.409   .     A
C612   N763    1.429   .     S
C613   C620    1.399   .     A
C613   N769    1.426   .     S
C613   C630    1.413   .     A
C614   N775    1.425   .     S
C614   C629    1.415   .     A
C614   C619    1.402   .     A
C615   N781    1.428   .     S
C615   C632    1.413   .     A
C615   C618    1.391   .     A
C616   N787    1.427   .     S
C616   C631    1.416   .     A
C616   C617    1.402   .     A
C617   N793    1.426   .     S
C617   C634    1.407   .     A
C618   C633    1.417   .     A
C618   N799    1.426   .     S
C619   N805    1.429   .     S
C619   C636    1.407   .     A
C620   N811    1.429   .     S
C620   C635    1.411   .     A
C621   C638    1.414   .     A
C621   N817    1.427   .     S
C622   C637    1.411   .     A
C622   N823    1.431   .     S
C623   C640    1.408   .     A
C623   N829    1.429   .     S
C624   N835    1.424   .     S
C624   C639    1.412   .     A
C641   C1381   1.417   1_545 S
C642   C1386   1.417   .     S
C643   C130    1.451   1_655 S
C643   C51     1.418   1_655 S
C644   C52     1.416   1_655 S
C646   C62     1.417   1_655 S
C648   C1457   1.460   1_545 S
C648   C1396   1.416   1_545 S
N649   H650    1.031   .     S
N649   C651    1.448   .     S
C651   H654    1.110   .     S
C651   H653    1.112   .     S
C651   H652    1.111   .     S
N655   C657    1.450   .     S
N655   H656    1.031   .     S
C657   H659    1.110   .     S
C657   H658    1.109   .     S
C657   H660    1.109   .     S
N661   H662    1.030   .     S
N661   C663    1.444   .     S
C663   H666    1.108   .     S
C663   H664    1.108   .     S
C663   H665    1.111   .     S
N667   H668    1.029   .     S
N667   C669    1.447   .     S
C669   H672    1.111   .     S
C669   H671    1.110   .     S
C669   H670    1.111   .     S
N673   H674    1.031   .     S
N673   C675    1.451   .     S
C675   H678    1.105   .     S
C675   H677    1.113   .     S
C675   H676    1.110   .     S
N679   C681    1.450   .     S
N679   H680    1.030   .     S
C681   H684    1.111   .     S
C681   H683    1.110   .     S
C681   H682    1.110   .     S
N685   H686    1.030   .     S
N685   C687    1.453   .     S
C687   H688    1.109   .     S
C687   H689    1.113   .     S
C687   H690    1.109   .     S
N691   C693    1.449   .     S
N691   H692    1.031   .     S
C693   H694    1.110   .     S
C693   H695    1.110   .     S
C693   H696    1.111   .     S
N697   C699    1.451   .     S
N697   H698    1.029   .     S
C699   H701    1.109   .     S
C699   H700    1.111   .     S
C699   H702    1.113   .     S
N703   C705    1.453   .     S
N703   H704    1.031   .     S
C705   H708    1.113   .     S
C705   H706    1.110   .     S
C705   H707    1.108   .     S
N709   C711    1.447   .     S
N709   H710    1.029   .     S
C711   H714    1.111   .     S
C711   H712    1.111   .     S
C711   H713    1.111   .     S
N715   H716    1.031   .     S
N715   C717    1.450   .     S
C717   H720    1.109   .     S
C717   H718    1.110   .     S
C717   H719    1.112   .     S
N721   H722    1.031   .     S
N721   C723    1.449   .     S
C723   H725    1.109   .     S
C723   H724    1.110   .     S
C723   H726    1.109   .     S
N727   H728    1.028   .     S
N727   C729    1.449   .     S
C729   H731    1.109   .     S
C729   H730    1.110   .     S
C729   H732    1.109   .     S
N733   H734    1.028   .     S
N733   C735    1.446   .     S
C735   H737    1.110   .     S
C735   H736    1.111   .     S
C735   H738    1.111   .     S
N739   C741    1.451   .     S
N739   H740    1.030   .     S
C741   H743    1.108   .     S
C741   H742    1.106   .     S
C741   H744    1.107   .     S
N745   H746    1.032   .     S
N745   C747    1.450   .     S
C747   H749    1.113   .     S
C747   H748    1.111   .     S
C747   H750    1.109   .     S
N751   C753    1.450   .     S
N751   H752    1.031   .     S
C753   H755    1.109   .     S
C753   H756    1.110   .     S
C753   H754    1.109   .     S
N757   C759    1.444   .     S
N757   H758    1.030   .     S
C759   H761    1.112   .     S
C759   H762    1.109   .     S
C759   H760    1.108   .     S
N763   C765    1.447   .     S
N763   H764    1.029   .     S
C765   H766    1.111   .     S
C765   H768    1.111   .     S
C765   H767    1.111   .     S
N769   C771    1.452   .     S
N769   H770    1.032   .     S
C771   H772    1.110   .     S
C771   H774    1.104   .     S
C771   H773    1.113   .     S
N775   H776    1.030   .     S
N775   C777    1.450   .     S
C777   H778    1.110   .     S
C777   H780    1.111   .     S
C777   H779    1.109   .     S
N781   H782    1.031   .     S
N781   C783    1.453   .     S
C783   H786    1.109   .     S
C783   H784    1.110   .     S
C783   H785    1.113   .     S
N787   C789    1.449   .     S
N787   H788    1.031   .     S
C789   H792    1.111   .     S
C789   H791    1.110   .     S
C789   H790    1.110   .     S
N793   H794    1.029   .     S
N793   C795    1.451   .     S
C795   H796    1.111   .     S
C795   H798    1.113   .     S
C795   H797    1.109   .     S
N799   C801    1.451   .     S
N799   H800    1.031   .     S
C801   H802    1.109   .     S
C801   H804    1.112   .     S
C801   H803    1.108   .     S
N805   C807    1.447   .     S
N805   H806    1.029   .     S
C807   H810    1.111   .     S
C807   H808    1.110   .     S
C807   H809    1.111   .     S
N811   H812    1.032   .     S
N811   C813    1.450   .     S
C813   H816    1.112   .     S
C813   H815    1.111   .     S
C813   H814    1.109   .     S
N817   C819    1.449   .     S
N817   H818    1.031   .     S
C819   H820    1.110   .     S
C819   H822    1.109   .     S
C819   H821    1.108   .     S
N823   H824    1.028   .     S
N823   C825    1.449   .     S
C825   H826    1.110   .     S
C825   H828    1.109   .     S
C825   H827    1.109   .     S
N829   C831    1.447   .     S
N829   H830    1.028   .     S
C831   H834    1.110   .     S
C831   H832    1.111   .     S
C831   H833    1.110   .     S
N835   C837    1.447   .     S
N835   H836    1.031   .     S
C837   H838    1.109   .     S
C837   H840    1.112   .     S
C837   H839    1.106   .     S
N841   O843    1.301   .     A
N841   O842    1.301   .     A
N844   O845    1.301   .     A
N844   O846    1.302   .     A
N847   O849    1.302   .     A
N847   O848    1.301   .     A
N850   O852    1.301   .     A
N850   O851    1.302   .     A
N853   O854    1.301   .     A
N853   O855    1.301   .     A
N856   O857    1.301   .     A
N856   O858    1.301   .     A
N859   O861    1.302   .     A
N859   O860    1.301   .     A
N862   O864    1.301   .     A
N862   O863    1.302   .     A
N865   O866    1.301   .     A
N865   O867    1.301   .     A
N868   O869    1.301   .     A
N868   O870    1.302   .     A
N871   O872    1.301   .     A
N871   O1761   1.302   1_545 S
O873   N1759   1.302   .     S
N874   O876    1.301   .     A
N874   O875    1.302   .     A
N877   O879    1.302   .     A
N877   O878    1.301   .     A
N880   O881    1.301   .     A
N880   O882    1.302   .     A
N883   O885    1.302   .     A
N883   O1772   1.301   1_545 S
O884   N1771   1.301   .     S
N886   O887    1.302   .     A
N886   O888    1.301   .     A
Zn889  O953    1.946   .     S
Zn889  O999    1.946   .     S
Zn889  O968    1.932   .     S
Zn890  O954    1.946   .     S
Zn890  O967    1.932   .     S
Zn890  O995    1.941   .     S
Zn891  O990    1.943   .     S
Zn891  O955    1.952   .     S
Zn891  O970    1.932   .     S
Zn891  O1441   1.938   1_455 S
Zn892  O969    1.932   .     S
Zn892  O998    1.938   .     S
Zn892  O956    1.952   .     S
Zn892  O1433   1.943   1_455 S
Zn893  O953    1.943   .     S
Zn893  O972    1.934   .     S
Zn893  O992    1.943   .     S
Zn894  O1004   1.946   .     S
Zn894  O971    1.934   .     S
Zn894  O954    1.943   .     S
Zn895  O1001   1.940   .     S
Zn895  O955    1.948   .     S
Zn895  O966    1.934   .     S
Zn895  O1438   1.943   1_455 S
Zn896  O1446   1.940   1_455 S
Zn896  O956    1.948   .     S
Zn896  O965    1.934   .     S
Zn896  O993    1.943   .     S
Zn897  O983    1.946   .     S
Zn897  O960    1.932   .     S
Zn897  O980    1.941   .     S
Zn897  O1400   1.946   .     S
Zn898  O959    1.932   .     S
Zn898  O979    1.941   .     S
Zn898  O984    1.946   .     S
Zn898  O955    1.946   .     S
Zn899  O974    1.943   .     S
Zn899  O981    1.938   .     S
Zn899  O962    1.932   .     S
Zn899  O66     1.952   1_565 S
Zn900  O961    1.932   .     S
Zn900  O982    1.938   .     S
Zn900  O953    1.952   .     S
Zn900  O973    1.943   .     S
Zn901  O987    1.946   .     S
Zn901  O964    1.934   .     S
Zn901  O976    1.943   .     S
Zn901  O956    1.943   .     S
Zn902  O988    1.946   .     S
Zn902  O963    1.934   .     S
Zn902  O975    1.943   .     S
Zn902  O1399   1.943   .     S
Zn903  O985    1.940   .     S
Zn903  O954    1.948   .     S
Zn903  O958    1.934   .     S
Zn903  O978    1.943   .     S
Zn904  O977    1.943   .     S
Zn904  O986    1.940   .     S
Zn904  O957    1.934   .     S
Zn904  O65     1.948   1_565 S
C905   C937    1.397   .     A
C905   H921    1.084   .     S
C905   C117    1.396   1_565 S
C906   H922    1.084   .     S
C906   C938    1.398   .     A
C906   C118    1.396   1_565 S
C907   H923    1.083   .     S
C907   C939    1.397   .     A
C907   C1451   1.398   1_455 S
C908   H924    1.083   .     S
C908   C940    1.395   .     A
C908   C1452   1.398   1_455 S
C909   C1005   1.397   .     A
C909   H925    1.084   .     S
C909   C941    1.398   .     A
C910   H926    1.084   .     S
C910   C1006   1.396   .     A
C910   C942    1.397   .     A
C911   C943    1.397   .     A
C911   C1007   1.398   .     A
C911   H927    1.083   .     S
C912   C1008   1.399   .     A
C912   C944    1.396   .     A
C912   H928    1.083   .     S
C913   C945    1.396   .     A
C913   H929    1.084   .     S
C913   C1009   1.396   .     A
C914   H930    1.084   .     S
C914   C946    1.397   .     A
C914   C1010   1.396   .     A
C915   H931    1.083   .     S
C915   C59     1.397   1_565 S
C915   C123    1.398   1_565 S
C916   C948    1.395   .     A
C916   C1012   1.398   .     A
C916   H932    1.083   .     S
C917   H933    1.084   .     S
C917   C949    1.399   .     A
C917   C1453   1.397   1_455 S
C918   H934    1.084   .     S
C918   C950    1.398   .     A
C918   C1454   1.397   1_455 S
C919   C951    1.397   .     A
C919   H935    1.083   .     S
C919   C1011   1.398   .     A
C920   C952    1.396   .     A
C920   H936    1.083   .     S
C920   C124    1.398   1_565 S
C937   N1285   1.440   .     S
C937   C197    1.417   1_565 S
C938   C1086   1.418   .     A
C938   N1288   1.442   .     S
C939   N1291   1.445   .     S
C939   C1531   1.418   1_455 S
C940   N1294   1.440   .     S
C940   C1532   1.416   1_455 S
C941   C1085   1.417   .     A
C941   N1297   1.442   .     S
C942   N1300   1.441   .     S
C943   C1087   1.417   .     A
C943   N1303   1.443   .     S
C944   C1088   1.416   .     A
C944   N1306   1.440   .     S
C945   N1309   1.439   .     S
C945   C1533   1.415   .     S
C946   C1090   1.417   .     A
C946   N1312   1.441   .     S
C947   C1091   1.418   .     A
C947   N1315   1.445   .     S
C948   C1092   1.416   .     A
C948   N1318   1.440   .     S
C949   N1321   1.442   .     S
C949   C1089   1.418   .     A
C950   N1324   1.442   .     S
C950   C1534   1.417   1_455 S
C951   C1091   1.417   .     A
C951   N1327   1.443   .     S
C952   N1330   1.440   .     S
C952   C204    1.416   1_565 S
O955   Zn1346  1.943   1_455 S
O956   Zn1341  1.946   1_455 S
O957   C1013   1.284   .     A
O958   C1014   1.280   .     A
O959   C1459   1.279   1_455 S
O960   C1460   1.280   .     S
O962   C126    1.282   1_565 S
O963   C1015   1.279   .     A
O964   C1016   1.279   .     A
O965   C1461   1.284   1_455 S
O966   C1018   1.280   .     S
O968   C1020   1.280   .     A
O969   C1461   1.283   1_455 S
O970   C1018   1.282   .     S
O972   C1020   1.279   .     A
O973   C1021   1.280   .     A
O974   C1022   1.284   .     A
O975   C1023   1.277   .     A
O976   C1024   1.274   .     A
O977   C1025   1.281   .     A
O978   C1026   1.269   .     A
O979   C1027   1.283   .     A
O980   C1028   1.277   .     A
O981   C1029   1.285   .     A
O982   C1030   1.283   .     A
O983   C1031   1.279   .     A
O984   C1032   1.280   .     A
O985   C1033   1.284   .     A
O986   C1034   1.278   .     A
O987   C1035   1.278   .     A
O988   C1036   1.286   .     A
O989   C1031   1.279   .     A
O989   Zn1336  1.943   .     S
O990   C1032   1.284   .     A
O991   C1029   1.275   .     A
O991   Zn6     1.943   1_565 S
O992   C1030   1.275   .     A
O993   C1035   1.281   .     A
O994   C1036   1.270   .     A
O994   Zn1339  1.943   .     S
O995   C1033   1.276   .     A
O996   C1034   1.277   .     A
O996   Zn1     1.941   1_565 S
O997   C1023   1.284   .     A
O997   Zn1335  1.938   .     S
O998   C1024   1.285   .     A
O999   C1021   1.279   .     A
O1000  C1022   1.280   .     A
O1000  Zn2     1.946   1_565 S
O1001  C1027   1.280   .     A
O1002  Zn1340  1.940   .     S
O1002  C1028   1.280   .     A
O1003  C1025   1.278   .     A
O1003  Zn5     1.946   1_565 S
O1004  C1026   1.287   .     A
C1005  C1006   1.463   1_554 S
C1006  C1005   1.463   1_556 S
C1007  C1351   1.398   .     S
C1007  C1008   1.469   1_554 S
C1008  C1007   1.469   1_556 S
C1008  C1352   1.398   .     S
C1009  C1010   1.464   .     S
C1009  C1361   1.397   .     S
C1010  C1362   1.397   .     S
C1011  C1012   1.469   .     S
C1013  O73     1.283   1_565 S
C1013  C204    1.460   1_565 S
C1014  C1091   1.451   .     S
C1015  C1090   1.457   .     S
C1015  O1403   1.279   .     S
C1016  C1089   1.457   .     S
C1016  O1404   1.280   1_455 S
C1017  C1088   1.460   .     S
C1017  O1413   1.283   .     S
C1017  O1409   1.284   .     S
C1018  C1531   1.451   1_455 S
C1019  C1086   1.457   .     S
C1019  O79     1.279   1_565 S
C1019  O83     1.280   1_565 S
C1020  C1085   1.458   .     S
C1021  C1071   1.460   .     S
C1022  C1072   1.469   .     S
C1023  C1073   1.463   .     S
C1024  C1074   1.460   .     S
C1025  C1075   1.467   .     S
C1026  C1076   1.464   .     S
C1027  C1069   1.467   .     S
C1028  C1070   1.456   .     S
C1029  C1079   1.462   .     S
C1030  C1080   1.458   .     S
C1031  C1081   1.461   .     S
C1032  C1082   1.469   .     S
C1033  C1083   1.463   .     S
C1034  C1084   1.453   .     S
C1035  C1077   1.466   .     S
C1036  C1078   1.463   .     S
C1037  C1084   1.405   .     A
C1037  C1052   1.403   .     A
C1037  N1093   1.429   .     S
C1038  C1051   1.409   .     A
C1038  C1083   1.414   .     A
C1038  N1099   1.427   .     S
C1039  C1082   1.413   .     A
C1039  C1050   1.409   .     A
C1039  N1105   1.426   .     S
C1040  N1111   1.429   .     S
C1040  C1049   1.407   .     A
C1040  C1081   1.409   .     A
C1041  N1117   1.426   .     S
C1041  C1048   1.402   .     A
C1041  C1080   1.412   .     A
C1042  C1079   1.417   .     A
C1042  C1047   1.402   .     A
C1042  N1123   1.425   .     S
C1043  C1046   1.396   .     A
C1043  C1078   1.413   .     A
C1043  N1129   1.427   .     S
C1044  N1135   1.427   .     S
C1044  C1077   1.419   .     A
C1044  C1045   1.402   .     A
C1045  C1076   1.406   .     A
C1045  N1141   1.426   .     S
C1046  C1075   1.416   .     A
C1046  N1147   1.427   .     S
C1047  C1074   1.407   .     A
C1047  N1153   1.429   .     S
C1048  C1073   1.411   .     A
C1048  N1159   1.428   .     S
C1049  C1072   1.414   .     A
C1049  N1165   1.427   .     S
C1050  C1071   1.411   .     A
C1050  N1171   1.431   .     S
C1051  C1070   1.408   .     A
C1051  N1177   1.428   .     S
C1052  N1183   1.426   .     S
C1052  C1069   1.415   .     A
C1053  C1070   1.407   .     A
C1053  N1189   1.428   .     S
C1053  C1068   1.401   .     A
C1054  N1195   1.426   .     S
C1054  C1069   1.415   .     A
C1054  C1067   1.407   .     A
C1055  C1066   1.409   .     A
C1055  C1072   1.413   .     A
C1055  N1201   1.426   .     S
C1056  C1065   1.407   .     A
C1056  C1071   1.409   .     A
C1056  N1207   1.429   .     S
C1057  C1064   1.399   .     A
C1057  N1213   1.426   .     S
C1057  C1074   1.413   .     A
C1058  N1219   1.425   .     S
C1058  C1073   1.415   .     A
C1058  C1063   1.402   .     A
C1059  N1225   1.428   .     S
C1059  C1076   1.413   .     A
C1059  C1062   1.391   .     A
C1060  N1231   1.427   .     S
C1060  C1075   1.416   .     A
C1060  C1061   1.402   .     A
C1061  N1237   1.426   .     S
C1061  C1078   1.407   .     A
C1062  C1077   1.417   .     A
C1062  N1243   1.426   .     S
C1063  N1249   1.429   .     S
C1063  C1080   1.407   .     A
C1064  N1255   1.429   .     S
C1064  C1079   1.411   .     A
C1065  C1082   1.414   .     A
C1065  N1261   1.427   .     S
C1066  C1081   1.411   .     A
C1066  N1267   1.431   .     S
C1067  C1084   1.408   .     A
C1067  N1273   1.429   .     S
C1068  N1279   1.424   .     S
C1068  C1083   1.412   .     A
C1086  C54     1.417   1_565 S
C1087  C1462   1.451   .     S
C1087  C1383   1.418   .     S
C1088  C1384   1.416   .     S
C1089  C1389   1.415   1_455 S
C1090  C1394   1.417   .     S
N1093  H1094   1.031   .     S
N1093  C1095   1.448   .     S
C1095  H1098   1.110   .     S
C1095  H1097   1.112   .     S
C1095  H1096   1.111   .     S
N1099  C1101   1.450   .     S
N1099  H1100   1.031   .     S
C1101  H1103   1.110   .     S
C1101  H1102   1.109   .     S
C1101  H1104   1.109   .     S
N1105  H1106   1.030   .     S
N1105  C1107   1.444   .     S
C1107  H1110   1.108   .     S
C1107  H1108   1.108   .     S
C1107  H1109   1.111   .     S
N1111  H1112   1.029   .     S
N1111  C1113   1.447   .     S
C1113  H1116   1.111   .     S
C1113  H1115   1.110   .     S
C1113  H1114   1.111   .     S
N1117  H1118   1.031   .     S
N1117  C1119   1.451   .     S
C1119  H1122   1.105   .     S
C1119  H1121   1.113   .     S
C1119  H1120   1.110   .     S
N1123  C1125   1.450   .     S
N1123  H1124   1.030   .     S
C1125  H1128   1.111   .     S
C1125  H1127   1.110   .     S
C1125  H1126   1.110   .     S
N1129  H1130   1.030   .     S
N1129  C1131   1.453   .     S
C1131  H1132   1.109   .     S
C1131  H1133   1.113   .     S
C1131  H1134   1.109   .     S
N1135  C1137   1.449   .     S
N1135  H1136   1.031   .     S
C1137  H1138   1.110   .     S
C1137  H1139   1.110   .     S
C1137  H1140   1.111   .     S
N1141  C1143   1.451   .     S
N1141  H1142   1.029   .     S
C1143  H1145   1.109   .     S
C1143  H1144   1.111   .     S
C1143  H1146   1.113   .     S
N1147  C1149   1.453   .     S
N1147  H1148   1.031   .     S
C1149  H1152   1.113   .     S
C1149  H1150   1.110   .     S
C1149  H1151   1.108   .     S
N1153  C1155   1.447   .     S
N1153  H1154   1.029   .     S
C1155  H1158   1.111   .     S
C1155  H1156   1.111   .     S
C1155  H1157   1.111   .     S
N1159  H1160   1.031   .     S
N1159  C1161   1.450   .     S
C1161  H1164   1.109   .     S
C1161  H1162   1.110   .     S
C1161  H1163   1.112   .     S
N1165  H1166   1.031   .     S
N1165  C1167   1.449   .     S
C1167  H1169   1.109   .     S
C1167  H1168   1.110   .     S
C1167  H1170   1.109   .     S
N1171  H1172   1.028   .     S
N1171  C1173   1.449   .     S
C1173  H1175   1.109   .     S
C1173  H1174   1.110   .     S
C1173  H1176   1.109   .     S
N1177  H1178   1.028   .     S
N1177  C1179   1.446   .     S
C1179  H1181   1.110   .     S
C1179  H1180   1.111   .     S
C1179  H1182   1.111   .     S
N1183  C1185   1.451   .     S
N1183  H1184   1.030   .     S
C1185  H1187   1.108   .     S
C1185  H1186   1.106   .     S
C1185  H1188   1.107   .     S
N1189  H1190   1.032   .     S
N1189  C1191   1.450   .     S
C1191  H1193   1.113   .     S
C1191  H1192   1.111   .     S
C1191  H1194   1.109   .     S
N1195  C1197   1.450   .     S
N1195  H1196   1.031   .     S
C1197  H1199   1.109   .     S
C1197  H1200   1.110   .     S
C1197  H1198   1.109   .     S
N1201  C1203   1.444   .     S
N1201  H1202   1.030   .     S
C1203  H1205   1.112   .     S
C1203  H1206   1.109   .     S
C1203  H1204   1.108   .     S
N1207  C1209   1.447   .     S
N1207  H1208   1.029   .     S
C1209  H1210   1.111   .     S
C1209  H1212   1.111   .     S
C1209  H1211   1.111   .     S
N1213  C1215   1.452   .     S
N1213  H1214   1.032   .     S
C1215  H1216   1.110   .     S
C1215  H1218   1.104   .     S
C1215  H1217   1.113   .     S
N1219  H1220   1.030   .     S
N1219  C1221   1.450   .     S
C1221  H1222   1.110   .     S
C1221  H1224   1.111   .     S
C1221  H1223   1.109   .     S
N1225  H1226   1.031   .     S
N1225  C1227   1.453   .     S
C1227  H1230   1.109   .     S
C1227  H1228   1.110   .     S
C1227  H1229   1.113   .     S
N1231  C1233   1.449   .     S
N1231  H1232   1.031   .     S
C1233  H1236   1.111   .     S
C1233  H1235   1.110   .     S
C1233  H1234   1.110   .     S
N1237  H1238   1.029   .     S
N1237  C1239   1.451   .     S
C1239  H1240   1.111   .     S
C1239  H1242   1.113   .     S
C1239  H1241   1.109   .     S
N1243  C1245   1.451   .     S
N1243  H1244   1.031   .     S
C1245  H1246   1.109   .     S
C1245  H1248   1.112   .     S
C1245  H1247   1.108   .     S
N1249  C1251   1.447   .     S
N1249  H1250   1.029   .     S
C1251  H1254   1.111   .     S
C1251  H1252   1.110   .     S
C1251  H1253   1.111   .     S
N1255  H1256   1.032   .     S
N1255  C1257   1.450   .     S
C1257  H1260   1.112   .     S
C1257  H1259   1.111   .     S
C1257  H1258   1.109   .     S
N1261  C1263   1.449   .     S
N1261  H1262   1.031   .     S
C1263  H1264   1.110   .     S
C1263  H1266   1.109   .     S
C1263  H1265   1.108   .     S
N1267  H1268   1.028   .     S
N1267  C1269   1.449   .     S
C1269  H1270   1.110   .     S
C1269  H1272   1.109   .     S
C1269  H1271   1.109   .     S
N1273  C1275   1.447   .     S
N1273  H1274   1.028   .     S
C1275  H1278   1.110   .     S
C1275  H1276   1.111   .     S
C1275  H1277   1.110   .     S
N1279  C1281   1.447   .     S
N1279  H1280   1.031   .     S
C1281  H1282   1.109   .     S
C1281  H1284   1.112   .     S
C1281  H1283   1.106   .     S
N1285  O1287   1.301   .     A
N1285  O1286   1.301   .     A
N1288  O1289   1.301   .     A
N1288  O1290   1.302   .     A
N1291  O1293   1.302   .     A
N1291  O1292   1.301   .     A
N1294  O1296   1.301   .     A
N1294  O1295   1.302   .     A
N1297  O1298   1.301   .     A
N1297  O1299   1.301   .     A
N1300  O1301   1.301   .     A
N1300  O1302   1.301   .     A
N1303  O1305   1.302   .     A
N1303  O1304   1.301   .     A
N1306  O1308   1.301   .     A
N1306  O1307   1.302   .     A
N1309  O1310   1.301   .     A
N1309  O1311   1.301   .     A
N1312  O1313   1.301   .     A
N1312  O1314   1.302   .     A
N1315  O1316   1.301   .     A
O1317  N427    1.302   1_565 S
N1318  O1320   1.301   .     A
N1318  O1319   1.302   .     A
N1321  O1323   1.302   .     A
N1321  O1322   1.301   .     A
N1324  O1325   1.301   .     A
N1324  O1326   1.302   .     A
N1327  O1329   1.302   .     A
O1328  N439    1.301   1_565 S
N1330  O1331   1.302   .     A
N1330  O1332   1.301   .     A
Zn1333 O1397   1.946   .     S
Zn1333 O1443   1.946   .     S
Zn1333 O1412   1.932   .     S
Zn1334 O1398   1.946   .     S
Zn1334 O1411   1.932   .     S
Zn1334 O1439   1.941   .     S
Zn1335 O1434   1.943   .     S
Zn1335 O1399   1.952   .     S
Zn1335 O1414   1.932   .     S
Zn1336 O1413   1.932   .     S
Zn1336 O1442   1.938   .     S
Zn1336 O1400   1.952   .     S
Zn1337 O1397   1.943   .     S
Zn1337 O1416   1.934   .     S
Zn1337 O1436   1.943   .     S
Zn1338 O1448   1.946   .     S
Zn1338 O1415   1.934   .     S
Zn1338 O1398   1.943   .     S
Zn1339 O1445   1.940   .     S
Zn1339 O1399   1.948   .     S
Zn1339 O1410   1.934   .     S
Zn1340 O1400   1.948   .     S
Zn1340 O1409   1.934   .     S
Zn1340 O1437   1.943   .     S
Zn1341 O1427   1.946   .     S
Zn1341 O1404   1.932   .     S
Zn1341 O1424   1.941   .     S
Zn1341 O956    1.946   1_655 S
Zn1342 O1403   1.932   .     S
Zn1342 O1423   1.941   .     S
Zn1342 O1428   1.946   .     S
Zn1342 O1399   1.946   .     S
Zn1343 O1418   1.943   .     S
Zn1343 O1425   1.938   .     S
Zn1343 O1406   1.932   .     S
Zn1343 O510    1.952   1_565 S
Zn1344 O1405   1.932   .     S
Zn1344 O1426   1.938   .     S
Zn1344 O1397   1.952   .     S
Zn1344 O1417   1.943   .     S
Zn1345 O1431   1.946   .     S
Zn1345 O1408   1.934   .     S
Zn1345 O1420   1.943   .     S
Zn1345 O1400   1.943   .     S
Zn1346 O1432   1.946   .     S
Zn1346 O1407   1.934   .     S
Zn1346 O1419   1.943   .     S
Zn1346 O955    1.943   1_655 S
Zn1347 O1429   1.940   .     S
Zn1347 O1398   1.948   .     S
Zn1347 O1402   1.934   .     S
Zn1347 O1422   1.943   .     S
Zn1348 O1421   1.943   .     S
Zn1348 O1430   1.940   .     S
Zn1348 O1401   1.934   .     S
Zn1348 O509    1.948   1_565 S
C1349  C1381   1.397   .     A
C1349  H1365   1.084   .     S
C1349  C561    1.396   1_565 S
C1350  H1366   1.084   .     S
C1350  C1382   1.398   .     A
C1350  C562    1.396   1_565 S
C1351  H1367   1.083   .     S
C1351  C1383   1.397   .     A
C1352  H1368   1.083   .     S
C1352  C1384   1.395   .     A
C1353  C1449   1.397   .     A
C1353  H1369   1.084   .     S
C1353  C1385   1.398   .     A
C1354  H1370   1.084   .     S
C1354  C1450   1.396   .     A
C1354  C1386   1.397   .     A
C1355  C1387   1.397   .     A
C1355  C1451   1.398   .     A
C1355  H1371   1.083   .     S
C1356  C1452   1.399   .     A
C1356  C1388   1.396   .     A
C1356  H1372   1.083   .     S
C1357  C1389   1.396   .     A
C1357  H1373   1.084   .     S
C1357  C1453   1.396   .     A
C1358  H1374   1.084   .     S
C1358  C1390   1.397   .     A
C1358  C1454   1.396   .     A
C1359  H1375   1.083   .     S
C1359  C503    1.397   1_565 S
C1359  C567    1.398   1_565 S
C1360  C1392   1.395   .     A
C1360  C1456   1.398   .     A
C1360  H1376   1.083   .     S
C1361  H1377   1.084   .     S
C1361  C1393   1.399   .     A
C1362  H1378   1.084   .     S
C1362  C1394   1.398   .     A
C1363  C1395   1.397   .     A
C1363  H1379   1.083   .     S
C1363  C1455   1.398   .     A
C1364  C1396   1.396   .     A
C1364  H1380   1.083   .     S
C1364  C568    1.398   1_565 S
C1381  N1729   1.440   .     S
C1381  C641    1.417   1_565 S
C1382  C1530   1.418   .     A
C1382  N1732   1.442   .     S
C1383  N1735   1.445   .     S
C1384  N1738   1.440   .     S
C1385  C1529   1.417   .     A
C1385  N1741   1.442   .     S
C1386  N1744   1.441   .     S
C1387  C1531   1.417   .     A
C1387  N1747   1.443   .     S
C1388  C1532   1.416   .     A
C1388  N1750   1.440   .     S
C1389  N1753   1.439   .     S
C1389  C1089   1.415   1_655 S
C1390  C1534   1.417   .     A
C1390  N1756   1.441   .     S
C1391  C1535   1.418   .     A
C1391  N1759   1.445   .     S
C1392  C1536   1.416   .     A
C1392  N1762   1.440   .     S
C1393  N1765   1.442   .     S
C1393  C1533   1.418   .     A
C1394  N1768   1.442   .     S
C1395  C1535   1.417   .     A
C1395  N1771   1.443   .     S
C1396  N1774   1.440   .     S
C1396  C648    1.416   1_565 S
O1401  C1457   1.284   .     A
O1402  C1458   1.280   .     A
O1404  C1016   1.280   1_655 S
O1406  C570    1.282   1_565 S
O1407  C1459   1.279   .     A
O1408  C1460   1.279   .     A
O1410  C1462   1.280   .     S
O1412  C1464   1.280   .     A
O1414  C1462   1.282   .     S
O1416  C1464   1.279   .     A
O1417  C1465   1.280   .     A
O1418  C1466   1.284   .     A
O1419  C1467   1.277   .     A
O1420  C1468   1.274   .     A
O1421  C1469   1.281   .     A
O1422  C1470   1.269   .     A
O1423  C1471   1.283   .     A
O1424  C1472   1.277   .     A
O1425  C1473   1.285   .     A
O1426  C1474   1.283   .     A
O1427  C1475   1.279   .     A
O1428  C1476   1.280   .     A
O1429  C1477   1.284   .     A
O1430  C1478   1.278   .     A
O1431  C1479   1.278   .     A
O1432  C1480   1.286   .     A
O1433  C1475   1.279   .     A
O1433  Zn892   1.943   1_655 S
O1434  C1476   1.284   .     A
O1435  C1473   1.275   .     A
O1435  Zn450   1.943   1_565 S
O1436  C1474   1.275   .     A
O1437  C1479   1.281   .     A
O1438  C1480   1.270   .     A
O1438  Zn895   1.943   1_655 S
O1439  C1477   1.276   .     A
O1440  C1478   1.277   .     A
O1440  Zn445   1.941   1_565 S
O1441  C1467   1.284   .     A
O1441  Zn891   1.938   1_655 S
O1442  C1468   1.285   .     A
O1443  C1465   1.279   .     A
O1444  C1466   1.280   .     A
O1444  Zn446   1.946   1_565 S
O1445  C1471   1.280   .     A
O1446  Zn896   1.940   1_655 S
O1446  C1472   1.280   .     A
O1447  C1469   1.278   .     A
O1447  Zn449   1.946   1_565 S
O1448  C1470   1.287   .     A
C1449  C1450   1.463   1_554 S
C1450  C1449   1.463   1_556 S
C1451  C907    1.398   1_655 S
C1451  C1452   1.469   1_554 S
C1452  C1451   1.469   1_556 S
C1452  C908    1.398   1_655 S
C1453  C1454   1.464   .     S
C1453  C917    1.397   1_655 S
C1454  C918    1.397   1_655 S
C1455  C1456   1.469   .     S
C1457  O517    1.283   1_565 S
C1457  C648    1.460   1_565 S
C1458  C1535   1.451   .     S
C1459  C1534   1.457   .     S
C1459  O959    1.279   1_655 S
C1460  C1533   1.457   .     S
C1461  C1532   1.460   .     S
C1461  O969    1.283   1_655 S
C1461  O965    1.284   1_655 S
C1463  C1530   1.457   .     S
C1463  O523    1.279   1_565 S
C1463  O527    1.280   1_565 S
C1464  C1529   1.458   .     S
C1465  C1515   1.460   .     S
C1466  C1516   1.469   .     S
C1467  C1517   1.463   .     S
C1468  C1518   1.460   .     S
C1469  C1519   1.467   .     S
C1470  C1520   1.464   .     S
C1471  C1513   1.467   .     S
C1472  C1514   1.456   .     S
C1473  C1523   1.462   .     S
C1474  C1524   1.458   .     S
C1475  C1525   1.461   .     S
C1476  C1526   1.469   .     S
C1477  C1527   1.463   .     S
C1478  C1528   1.453   .     S
C1479  C1521   1.466   .     S
C1480  C1522   1.463   .     S
C1481  C1528   1.405   .     A
C1481  C1496   1.403   .     A
C1481  N1537   1.429   .     S
C1482  C1495   1.409   .     A
C1482  C1527   1.414   .     A
C1482  N1543   1.427   .     S
C1483  C1526   1.413   .     A
C1483  C1494   1.409   .     A
C1483  N1549   1.426   .     S
C1484  N1555   1.429   .     S
C1484  C1493   1.407   .     A
C1484  C1525   1.409   .     A
C1485  N1561   1.426   .     S
C1485  C1492   1.402   .     A
C1485  C1524   1.412   .     A
C1486  C1523   1.417   .     A
C1486  C1491   1.402   .     A
C1486  N1567   1.425   .     S
C1487  C1490   1.396   .     A
C1487  C1522   1.413   .     A
C1487  N1573   1.427   .     S
C1488  N1579   1.427   .     S
C1488  C1521   1.419   .     A
C1488  C1489   1.402   .     A
C1489  C1520   1.406   .     A
C1489  N1585   1.426   .     S
C1490  C1519   1.416   .     A
C1490  N1591   1.427   .     S
C1491  C1518   1.407   .     A
C1491  N1597   1.429   .     S
C1492  C1517   1.411   .     A
C1492  N1603   1.428   .     S
C1493  C1516   1.414   .     A
C1493  N1609   1.427   .     S
C1494  C1515   1.411   .     A
C1494  N1615   1.431   .     S
C1495  C1514   1.408   .     A
C1495  N1621   1.428   .     S
C1496  N1627   1.426   .     S
C1496  C1513   1.415   .     A
C1497  C1514   1.407   .     A
C1497  N1633   1.428   .     S
C1497  C1512   1.401   .     A
C1498  N1639   1.426   .     S
C1498  C1513   1.415   .     A
C1498  C1511   1.407   .     A
C1499  C1510   1.409   .     A
C1499  C1516   1.413   .     A
C1499  N1645   1.426   .     S
C1500  C1509   1.407   .     A
C1500  C1515   1.409   .     A
C1500  N1651   1.429   .     S
C1501  C1508   1.399   .     A
C1501  N1657   1.426   .     S
C1501  C1518   1.413   .     A
C1502  N1663   1.425   .     S
C1502  C1517   1.415   .     A
C1502  C1507   1.402   .     A
C1503  N1669   1.428   .     S
C1503  C1520   1.413   .     A
C1503  C1506   1.391   .     A
C1504  N1675   1.427   .     S
C1504  C1519   1.416   .     A
C1504  C1505   1.402   .     A
C1505  N1681   1.426   .     S
C1505  C1522   1.407   .     A
C1506  C1521   1.417   .     A
C1506  N1687   1.426   .     S
C1507  N1693   1.429   .     S
C1507  C1524   1.407   .     A
C1508  N1699   1.429   .     S
C1508  C1523   1.411   .     A
C1509  C1526   1.414   .     A
C1509  N1705   1.427   .     S
C1510  C1525   1.411   .     A
C1510  N1711   1.431   .     S
C1511  C1528   1.408   .     A
C1511  N1717   1.429   .     S
C1512  N1723   1.424   .     S
C1512  C1527   1.412   .     A
C1530  C498    1.417   1_565 S
C1531  C1018   1.451   1_655 S
C1531  C939    1.418   1_655 S
C1532  C940    1.416   1_655 S
C1534  C950    1.417   1_655 S
N1537  H1538   1.031   .     S
N1537  C1539   1.448   .     S
C1539  H1542   1.110   .     S
C1539  H1541   1.112   .     S
C1539  H1540   1.111   .     S
N1543  C1545   1.450   .     S
N1543  H1544   1.031   .     S
C1545  H1547   1.110   .     S
C1545  H1546   1.109   .     S
C1545  H1548   1.109   .     S
N1549  H1550   1.030   .     S
N1549  C1551   1.444   .     S
C1551  H1554   1.108   .     S
C1551  H1552   1.108   .     S
C1551  H1553   1.111   .     S
N1555  H1556   1.029   .     S
N1555  C1557   1.447   .     S
C1557  H1560   1.111   .     S
C1557  H1559   1.110   .     S
C1557  H1558   1.111   .     S
N1561  H1562   1.031   .     S
N1561  C1563   1.451   .     S
C1563  H1566   1.105   .     S
C1563  H1565   1.113   .     S
C1563  H1564   1.110   .     S
N1567  C1569   1.450   .     S
N1567  H1568   1.030   .     S
C1569  H1572   1.111   .     S
C1569  H1571   1.110   .     S
C1569  H1570   1.110   .     S
N1573  H1574   1.030   .     S
N1573  C1575   1.453   .     S
C1575  H1576   1.109   .     S
C1575  H1577   1.113   .     S
C1575  H1578   1.109   .     S
N1579  C1581   1.449   .     S
N1579  H1580   1.031   .     S
C1581  H1582   1.110   .     S
C1581  H1583   1.110   .     S
C1581  H1584   1.111   .     S
N1585  C1587   1.451   .     S
N1585  H1586   1.029   .     S
C1587  H1589   1.109   .     S
C1587  H1588   1.111   .     S
C1587  H1590   1.113   .     S
N1591  C1593   1.453   .     S
N1591  H1592   1.031   .     S
C1593  H1596   1.113   .     S
C1593  H1594   1.110   .     S
C1593  H1595   1.108   .     S
N1597  C1599   1.447   .     S
N1597  H1598   1.029   .     S
C1599  H1602   1.111   .     S
C1599  H1600   1.111   .     S
C1599  H1601   1.111   .     S
N1603  H1604   1.031   .     S
N1603  C1605   1.450   .     S
C1605  H1608   1.109   .     S
C1605  H1606   1.110   .     S
C1605  H1607   1.112   .     S
N1609  H1610   1.031   .     S
N1609  C1611   1.449   .     S
C1611  H1613   1.109   .     S
C1611  H1612   1.110   .     S
C1611  H1614   1.109   .     S
N1615  H1616   1.028   .     S
N1615  C1617   1.449   .     S
C1617  H1619   1.109   .     S
C1617  H1618   1.110   .     S
C1617  H1620   1.109   .     S
N1621  H1622   1.028   .     S
N1621  C1623   1.446   .     S
C1623  H1625   1.110   .     S
C1623  H1624   1.111   .     S
C1623  H1626   1.111   .     S
N1627  C1629   1.451   .     S
N1627  H1628   1.030   .     S
C1629  H1631   1.108   .     S
C1629  H1630   1.106   .     S
C1629  H1632   1.107   .     S
N1633  H1634   1.032   .     S
N1633  C1635   1.450   .     S
C1635  H1637   1.113   .     S
C1635  H1636   1.111   .     S
C1635  H1638   1.109   .     S
N1639  C1641   1.450   .     S
N1639  H1640   1.031   .     S
C1641  H1643   1.109   .     S
C1641  H1644   1.110   .     S
C1641  H1642   1.109   .     S
N1645  C1647   1.444   .     S
N1645  H1646   1.030   .     S
C1647  H1649   1.112   .     S
C1647  H1650   1.109   .     S
C1647  H1648   1.108   .     S
N1651  C1653   1.447   .     S
N1651  H1652   1.029   .     S
C1653  H1654   1.111   .     S
C1653  H1656   1.111   .     S
C1653  H1655   1.111   .     S
N1657  C1659   1.452   .     S
N1657  H1658   1.032   .     S
C1659  H1660   1.110   .     S
C1659  H1662   1.104   .     S
C1659  H1661   1.113   .     S
N1663  H1664   1.030   .     S
N1663  C1665   1.450   .     S
C1665  H1666   1.110   .     S
C1665  H1668   1.111   .     S
C1665  H1667   1.109   .     S
N1669  H1670   1.031   .     S
N1669  C1671   1.453   .     S
C1671  H1674   1.109   .     S
C1671  H1672   1.110   .     S
C1671  H1673   1.113   .     S
N1675  C1677   1.449   .     S
N1675  H1676   1.031   .     S
C1677  H1680   1.111   .     S
C1677  H1679   1.110   .     S
C1677  H1678   1.110   .     S
N1681  H1682   1.029   .     S
N1681  C1683   1.451   .     S
C1683  H1684   1.111   .     S
C1683  H1686   1.113   .     S
C1683  H1685   1.109   .     S
N1687  C1689   1.451   .     S
N1687  H1688   1.031   .     S
C1689  H1690   1.109   .     S
C1689  H1692   1.112   .     S
C1689  H1691   1.108   .     S
N1693  C1695   1.447   .     S
N1693  H1694   1.029   .     S
C1695  H1698   1.111   .     S
C1695  H1696   1.110   .     S
C1695  H1697   1.111   .     S
N1699  H1700   1.032   .     S
N1699  C1701   1.450   .     S
C1701  H1704   1.112   .     S
C1701  H1703   1.111   .     S
C1701  H1702   1.109   .     S
N1705  C1707   1.449   .     S
N1705  H1706   1.031   .     S
C1707  H1708   1.110   .     S
C1707  H1710   1.109   .     S
C1707  H1709   1.108   .     S
N1711  H1712   1.028   .     S
N1711  C1713   1.449   .     S
C1713  H1714   1.110   .     S
C1713  H1716   1.109   .     S
C1713  H1715   1.109   .     S
N1717  C1719   1.447   .     S
N1717  H1718   1.028   .     S
C1719  H1722   1.110   .     S
C1719  H1720   1.111   .     S
C1719  H1721   1.110   .     S
N1723  C1725   1.447   .     S
N1723  H1724   1.031   .     S
C1725  H1726   1.109   .     S
C1725  H1728   1.112   .     S
C1725  H1727   1.106   .     S
N1729  O1731   1.301   .     A
N1729  O1730   1.301   .     A
N1732  O1733   1.301   .     A
N1732  O1734   1.302   .     A
N1735  O1737   1.302   .     A
N1735  O1736   1.301   .     A
N1738  O1740   1.301   .     A
N1738  O1739   1.302   .     A
N1741  O1742   1.301   .     A
N1741  O1743   1.301   .     A
N1744  O1745   1.301   .     A
N1744  O1746   1.301   .     A
N1747  O1749   1.302   .     A
N1747  O1748   1.301   .     A
N1750  O1752   1.301   .     A
N1750  O1751   1.302   .     A
N1753  O1754   1.301   .     A
N1753  O1755   1.301   .     A
N1756  O1757   1.301   .     A
N1756  O1758   1.302   .     A
N1759  O1760   1.301   .     A
O1761  N871    1.302   1_565 S
N1762  O1764   1.301   .     A
N1762  O1763   1.302   .     A
N1765  O1767   1.302   .     A
N1765  O1766   1.301   .     A
N1768  O1769   1.301   .     A
N1768  O1770   1.302   .     A
N1771  O1773   1.302   .     A
O1772  N883    1.301   1_565 S
N1774  O1775   1.302   .     A
N1774  O1776   1.301   .     A
