data_str_m1_o10_o16_pcu_sym.215
_audit_creation_date              2020-01-03
_audit_creation_method            'Materials Studio'
_symmetry_space_group_name_H-M    'P1'
_symmetry_Int_Tables_number       1
_symmetry_cell_setting            triclinic
loop_
_symmetry_equiv_pos_as_xyz
  x,y,z
_cell_length_a                    32.7144
_cell_length_b                    32.4784
_cell_length_c                    31.0296
_cell_angle_alpha                 96.0418
_cell_angle_beta                  74.5686
_cell_angle_gamma                 98.4159
loop_
_atom_site_label
_atom_site_type_symbol
_atom_site_fract_x
_atom_site_fract_y
_atom_site_fract_z
_atom_site_U_iso_or_equiv
_atom_site_adp_type
_atom_site_occupancy
C1     C     0.05304   0.15978   0.25996   0.00000  Uiso   1.00
C2     C     0.16649   0.15797   0.05909   0.00000  Uiso   1.00
C3     C     0.23070   0.12638   0.05622   0.00000  Uiso   1.00
C4     C     0.28087   0.17366   0.24007   0.00000  Uiso   1.00
C5     C     0.13719   0.18747   0.42009   0.00000  Uiso   1.00
C6     C     0.32690   0.17557   0.23600   0.00000  Uiso   1.00
C7     C     0.00791   0.15689   0.26513   0.00000  Uiso   1.00
C8     C     0.18063   0.32258   0.23631   0.00000  Uiso   1.00
C9     C     0.15229   0.01176   0.26396   0.00000  Uiso   1.00
C10    C     0.15634   0.05590   0.26015   0.00000  Uiso   1.00
C11    C     0.17667   0.27794   0.24011   0.00000  Uiso   1.00
C12    C     0.07633   0.17375   0.48389   0.00000  Uiso   1.00
C13    C     0.18541   0.14843   0.12944   0.00000  Uiso   1.00
C14    C     0.14908   0.18503   0.37080   0.00000  Uiso   1.00
C15    C     0.24375   0.12864   0.00977   0.00000  Uiso   1.00
C16    C     0.19332   0.14277   0.08102   0.00000  Uiso   1.00
C17    C     0.09402   0.18941   0.44171   0.00000  Uiso   1.00
C18    C     0.10261   0.15752   0.00514   0.00000  Uiso   1.00
C19    C     0.14787   0.16372   0.48803   0.00000  Uiso   1.00
C20    C     0.16525   0.17771   0.44425   0.00000  Uiso   1.00
C21    C     0.17633   0.15422   0.01195   0.00000  Uiso   1.00
C22    C     0.21815   0.14637   0.48819   0.00000  Uiso   1.00
C23    C     0.23509   0.16120   0.44554   0.00000  Uiso   1.00
C24    C     0.21004   0.18054   0.42543   0.00000  Uiso   1.00
H25    H     0.20680   0.00390   0.21085   0.00000  Uiso   1.00
H26    H     0.12581   0.33122   0.28958   0.00000  Uiso   1.00
H27    H     0.26881   0.16143   0.42944   0.00000  Uiso   1.00
H28    H     0.07290   0.19813   0.42352   0.00000  Uiso   1.00
H29    H     0.28084   0.10562   0.45560   0.00000  Uiso   1.00
H30    H     0.13032   0.18274   0.11444   0.00000  Uiso   1.00
H31    H     0.01884   0.18308   0.48400   0.00000  Uiso   1.00
H32    H     0.26030   0.20303   0.38056   0.00000  Uiso   1.00
H33    H     0.00833   0.20783   0.18302   0.00000  Uiso   1.00
I34    I     0.26994   0.10045   0.08865   0.00000  Uiso   1.00
I35    I     0.30598   0.12298   0.32172   0.00000  Uiso   1.00
I36    I     0.07067   0.11312   0.05355   0.00000  Uiso   1.00
O37    O     0.16667   0.16667   0.25000   0.00000  Uiso   1.00
O38    O     0.15451   0.12637   0.15458   0.00000  Uiso   1.00
O39    O     0.12940   0.20391   0.34968   0.00000  Uiso   1.00
O40    O     0.20824   0.17759   0.14606   0.00000  Uiso   1.00
O41    O     0.17451   0.15880   0.34968   0.00000  Uiso   1.00
O42    O     0.28183   0.11414   0.48693   0.00000  Uiso   1.00
O43    O     0.13431   0.18173   0.08168   0.00000  Uiso   1.00
O44    O     0.03287   0.17051   0.00319   0.00000  Uiso   1.00
O45    O     0.22891   0.20339   0.38849   0.00000  Uiso   1.00
O46    O     0.02331   0.19645   0.20208   0.00000  Uiso   1.00
O47    O     0.17930   0.08019   0.28213   0.00000  Uiso   1.00
O48    O     0.14632   0.26085   0.27013   0.00000  Uiso   1.00
O49    O     0.07412   0.13291   0.23413   0.00000  Uiso   1.00
O50    O     0.26693   0.19272   0.21360   0.00000  Uiso   1.00
O51    O     0.07071   0.18878   0.28213   0.00000  Uiso   1.00
O52    O     0.25491   0.15226   0.27013   0.00000  Uiso   1.00
O53    O     0.13760   0.06944   0.23413   0.00000  Uiso   1.00
O54    O     0.20345   0.25620   0.21360   0.00000  Uiso   1.00
Zn55   Zn    0.19338   0.13994   0.28734   0.00000  Uiso   1.00
Zn56   Zn    0.13379   0.12458   0.21875   0.00000  Uiso   1.00
Zn57   Zn    0.21056   0.19775   0.20657   0.00000  Uiso   1.00
Zn58   Zn    0.12893   0.20439   0.28733   0.00000  Uiso   1.00
C59    C     0.38637   0.15978   0.25996   0.00000  Uiso   1.00
C60    C     0.49982   0.15797   0.05909   0.00000  Uiso   1.00
C61    C     0.56404   0.12638   0.05622   0.00000  Uiso   1.00
C62    C     0.61420   0.17366   0.24007   0.00000  Uiso   1.00
C63    C     0.47053   0.18747   0.42009   0.00000  Uiso   1.00
C64    C     0.66023   0.17557   0.23600   0.00000  Uiso   1.00
C65    C     0.34125   0.15689   0.26513   0.00000  Uiso   1.00
C66    C     0.51397   0.32258   0.23631   0.00000  Uiso   1.00
C67    C     0.48562   0.01176   0.26396   0.00000  Uiso   1.00
C68    C     0.48967   0.05590   0.26015   0.00000  Uiso   1.00
C69    C     0.51000   0.27794   0.24011   0.00000  Uiso   1.00
C70    C     0.40967   0.17375   0.48389   0.00000  Uiso   1.00
C71    C     0.51874   0.14843   0.12944   0.00000  Uiso   1.00
C72    C     0.48241   0.18503   0.37080   0.00000  Uiso   1.00
C73    C     0.57708   0.12864   0.00977   0.00000  Uiso   1.00
C74    C     0.52666   0.14277   0.08102   0.00000  Uiso   1.00
C75    C     0.42736   0.18941   0.44171   0.00000  Uiso   1.00
C76    C     0.43595   0.15752   0.00514   0.00000  Uiso   1.00
C77    C     0.48120   0.16372   0.48803   0.00000  Uiso   1.00
C78    C     0.49858   0.17771   0.44425   0.00000  Uiso   1.00
C79    C     0.50967   0.15422   0.01195   0.00000  Uiso   1.00
C80    C     0.55148   0.14637   0.48819   0.00000  Uiso   1.00
C81    C     0.56843   0.16120   0.44554   0.00000  Uiso   1.00
C82    C     0.54338   0.18054   0.42543   0.00000  Uiso   1.00
H83    H     0.54013   0.00390   0.21085   0.00000  Uiso   1.00
H84    H     0.45914   0.33122   0.28958   0.00000  Uiso   1.00
H85    H     0.60215   0.16143   0.42944   0.00000  Uiso   1.00
H86    H     0.40623   0.19813   0.42352   0.00000  Uiso   1.00
H87    H     0.61418   0.10562   0.45560   0.00000  Uiso   1.00
H88    H     0.46366   0.18274   0.11444   0.00000  Uiso   1.00
H89    H     0.35217   0.18308   0.48400   0.00000  Uiso   1.00
H90    H     0.59363   0.20303   0.38056   0.00000  Uiso   1.00
H91    H     0.34166   0.20783   0.18302   0.00000  Uiso   1.00
I92    I     0.60328   0.10045   0.08865   0.00000  Uiso   1.00
I93    I     0.63931   0.12298   0.32172   0.00000  Uiso   1.00
I94    I     0.40400   0.11312   0.05355   0.00000  Uiso   1.00
O95    O     0.50000   0.16667   0.25000   0.00000  Uiso   1.00
O96    O     0.48784   0.12637   0.15458   0.00000  Uiso   1.00
O97    O     0.46274   0.20391   0.34968   0.00000  Uiso   1.00
O98    O     0.54157   0.17759   0.14606   0.00000  Uiso   1.00
O99    O     0.50785   0.15880   0.34968   0.00000  Uiso   1.00
O100   O     0.61516   0.11414   0.48693   0.00000  Uiso   1.00
O101   O     0.46765   0.18173   0.08168   0.00000  Uiso   1.00
O102   O     0.36620   0.17051   0.00319   0.00000  Uiso   1.00
O103   O     0.56225   0.20339   0.38849   0.00000  Uiso   1.00
O104   O     0.35664   0.19645   0.20208   0.00000  Uiso   1.00
O105   O     0.51264   0.08019   0.28213   0.00000  Uiso   1.00
O106   O     0.47965   0.26085   0.27013   0.00000  Uiso   1.00
O107   O     0.40745   0.13291   0.23413   0.00000  Uiso   1.00
O108   O     0.60026   0.19272   0.21360   0.00000  Uiso   1.00
O109   O     0.40405   0.18878   0.28213   0.00000  Uiso   1.00
O110   O     0.58824   0.15226   0.27013   0.00000  Uiso   1.00
O111   O     0.47093   0.06944   0.23413   0.00000  Uiso   1.00
O112   O     0.53678   0.25620   0.21360   0.00000  Uiso   1.00
Zn113  Zn    0.52672   0.13994   0.28734   0.00000  Uiso   1.00
Zn114  Zn    0.46713   0.12458   0.21875   0.00000  Uiso   1.00
Zn115  Zn    0.54389   0.19775   0.20657   0.00000  Uiso   1.00
Zn116  Zn    0.46226   0.20439   0.28733   0.00000  Uiso   1.00
C117   C     0.71971   0.15978   0.25996   0.00000  Uiso   1.00
C118   C     0.83315   0.15797   0.05909   0.00000  Uiso   1.00
C119   C     0.89737   0.12638   0.05622   0.00000  Uiso   1.00
C120   C     0.94753   0.17366   0.24007   0.00000  Uiso   1.00
C121   C     0.80386   0.18747   0.42009   0.00000  Uiso   1.00
C122   C     0.99357   0.17557   0.23600   0.00000  Uiso   1.00
C123   C     0.67458   0.15689   0.26513   0.00000  Uiso   1.00
C124   C     0.84730   0.32258   0.23631   0.00000  Uiso   1.00
C125   C     0.81895   0.01176   0.26396   0.00000  Uiso   1.00
C126   C     0.82300   0.05590   0.26015   0.00000  Uiso   1.00
C127   C     0.84334   0.27794   0.24011   0.00000  Uiso   1.00
C128   C     0.74300   0.17375   0.48389   0.00000  Uiso   1.00
C129   C     0.85208   0.14843   0.12944   0.00000  Uiso   1.00
C130   C     0.81575   0.18503   0.37080   0.00000  Uiso   1.00
C131   C     0.91042   0.12864   0.00977   0.00000  Uiso   1.00
C132   C     0.85999   0.14277   0.08102   0.00000  Uiso   1.00
C133   C     0.76069   0.18941   0.44171   0.00000  Uiso   1.00
C134   C     0.76928   0.15752   0.00514   0.00000  Uiso   1.00
C135   C     0.81453   0.16372   0.48803   0.00000  Uiso   1.00
C136   C     0.83191   0.17771   0.44425   0.00000  Uiso   1.00
C137   C     0.84300   0.15422   0.01195   0.00000  Uiso   1.00
C138   C     0.88481   0.14637   0.48819   0.00000  Uiso   1.00
C139   C     0.90176   0.16120   0.44554   0.00000  Uiso   1.00
C140   C     0.87671   0.18054   0.42543   0.00000  Uiso   1.00
H141   H     0.87346   0.00390   0.21085   0.00000  Uiso   1.00
H142   H     0.79247   0.33122   0.28958   0.00000  Uiso   1.00
H143   H     0.93548   0.16143   0.42944   0.00000  Uiso   1.00
H144   H     0.73956   0.19813   0.42352   0.00000  Uiso   1.00
H145   H     0.94751   0.10562   0.45560   0.00000  Uiso   1.00
H146   H     0.79699   0.18274   0.11444   0.00000  Uiso   1.00
H147   H     0.68551   0.18308   0.48400   0.00000  Uiso   1.00
H148   H     0.92696   0.20303   0.38056   0.00000  Uiso   1.00
H149   H     0.67500   0.20783   0.18302   0.00000  Uiso   1.00
I150   I     0.93661   0.10045   0.08865   0.00000  Uiso   1.00
I151   I     0.97264   0.12298   0.32172   0.00000  Uiso   1.00
I152   I     0.73734   0.11312   0.05355   0.00000  Uiso   1.00
O153   O     0.83333   0.16667   0.25000   0.00000  Uiso   1.00
O154   O     0.82118   0.12637   0.15458   0.00000  Uiso   1.00
O155   O     0.79607   0.20391   0.34968   0.00000  Uiso   1.00
O156   O     0.87491   0.17759   0.14606   0.00000  Uiso   1.00
O157   O     0.84118   0.15880   0.34968   0.00000  Uiso   1.00
O158   O     0.94850   0.11414   0.48693   0.00000  Uiso   1.00
O159   O     0.80098   0.18173   0.08168   0.00000  Uiso   1.00
O160   O     0.69954   0.17051   0.00319   0.00000  Uiso   1.00
O161   O     0.89558   0.20339   0.38849   0.00000  Uiso   1.00
O162   O     0.68997   0.19645   0.20208   0.00000  Uiso   1.00
O163   O     0.84597   0.08019   0.28213   0.00000  Uiso   1.00
O164   O     0.81298   0.26085   0.27013   0.00000  Uiso   1.00
O165   O     0.74078   0.13291   0.23413   0.00000  Uiso   1.00
O166   O     0.93360   0.19272   0.21360   0.00000  Uiso   1.00
O167   O     0.73738   0.18878   0.28213   0.00000  Uiso   1.00
O168   O     0.92158   0.15226   0.27013   0.00000  Uiso   1.00
O169   O     0.80426   0.06944   0.23413   0.00000  Uiso   1.00
O170   O     0.87012   0.25620   0.21360   0.00000  Uiso   1.00
Zn171  Zn    0.86005   0.13994   0.28734   0.00000  Uiso   1.00
Zn172  Zn    0.80046   0.12458   0.21875   0.00000  Uiso   1.00
Zn173  Zn    0.87723   0.19775   0.20657   0.00000  Uiso   1.00
Zn174  Zn    0.79560   0.20439   0.28733   0.00000  Uiso   1.00
C175   C     0.05304   0.49312   0.25996   0.00000  Uiso   1.00
C176   C     0.16649   0.49131   0.05909   0.00000  Uiso   1.00
C177   C     0.23070   0.45971   0.05622   0.00000  Uiso   1.00
C178   C     0.28087   0.50699   0.24007   0.00000  Uiso   1.00
C179   C     0.13719   0.52080   0.42009   0.00000  Uiso   1.00
C180   C     0.32690   0.50891   0.23600   0.00000  Uiso   1.00
C181   C     0.00791   0.49022   0.26513   0.00000  Uiso   1.00
C182   C     0.18063   0.65592   0.23631   0.00000  Uiso   1.00
C183   C     0.15229   0.34510   0.26396   0.00000  Uiso   1.00
C184   C     0.15634   0.38923   0.26015   0.00000  Uiso   1.00
C185   C     0.17667   0.61127   0.24011   0.00000  Uiso   1.00
C186   C     0.07633   0.50708   0.48389   0.00000  Uiso   1.00
C187   C     0.18541   0.48176   0.12944   0.00000  Uiso   1.00
C188   C     0.14908   0.51836   0.37080   0.00000  Uiso   1.00
C189   C     0.24375   0.46197   0.00977   0.00000  Uiso   1.00
C190   C     0.19332   0.47611   0.08102   0.00000  Uiso   1.00
C191   C     0.09402   0.52274   0.44171   0.00000  Uiso   1.00
C192   C     0.10261   0.49086   0.00514   0.00000  Uiso   1.00
C193   C     0.14787   0.49705   0.48803   0.00000  Uiso   1.00
C194   C     0.16525   0.51105   0.44425   0.00000  Uiso   1.00
C195   C     0.17633   0.48755   0.01195   0.00000  Uiso   1.00
C196   C     0.21815   0.47971   0.48819   0.00000  Uiso   1.00
C197   C     0.23509   0.49453   0.44554   0.00000  Uiso   1.00
C198   C     0.21004   0.51388   0.42543   0.00000  Uiso   1.00
H199   H     0.20680   0.33724   0.21085   0.00000  Uiso   1.00
H200   H     0.12581   0.66455   0.28958   0.00000  Uiso   1.00
H201   H     0.26881   0.49476   0.42944   0.00000  Uiso   1.00
H202   H     0.07290   0.53146   0.42352   0.00000  Uiso   1.00
H203   H     0.28084   0.43895   0.45560   0.00000  Uiso   1.00
H204   H     0.13032   0.51607   0.11444   0.00000  Uiso   1.00
H205   H     0.01884   0.51642   0.48400   0.00000  Uiso   1.00
H206   H     0.26030   0.53636   0.38056   0.00000  Uiso   1.00
H207   H     0.00833   0.54116   0.18302   0.00000  Uiso   1.00
I208   I     0.26994   0.43379   0.08865   0.00000  Uiso   1.00
I209   I     0.30598   0.45632   0.32172   0.00000  Uiso   1.00
I210   I     0.07067   0.44646   0.05355   0.00000  Uiso   1.00
O211   O     0.16667   0.50000   0.25000   0.00000  Uiso   1.00
O212   O     0.15451   0.45970   0.15458   0.00000  Uiso   1.00
O213   O     0.12940   0.53724   0.34968   0.00000  Uiso   1.00
O214   O     0.20824   0.51092   0.14606   0.00000  Uiso   1.00
O215   O     0.17451   0.49213   0.34968   0.00000  Uiso   1.00
O216   O     0.28183   0.44747   0.48693   0.00000  Uiso   1.00
O217   O     0.13431   0.51506   0.08168   0.00000  Uiso   1.00
O218   O     0.03287   0.50384   0.00319   0.00000  Uiso   1.00
O219   O     0.22891   0.53673   0.38849   0.00000  Uiso   1.00
O220   O     0.02331   0.52978   0.20208   0.00000  Uiso   1.00
O221   O     0.17930   0.41352   0.28213   0.00000  Uiso   1.00
O222   O     0.14632   0.59418   0.27013   0.00000  Uiso   1.00
O223   O     0.07412   0.46625   0.23413   0.00000  Uiso   1.00
O224   O     0.26693   0.52605   0.21360   0.00000  Uiso   1.00
O225   O     0.07071   0.52211   0.28213   0.00000  Uiso   1.00
O226   O     0.25491   0.48559   0.27013   0.00000  Uiso   1.00
O227   O     0.13760   0.40277   0.23413   0.00000  Uiso   1.00
O228   O     0.20345   0.58953   0.21360   0.00000  Uiso   1.00
Zn229  Zn    0.19338   0.47327   0.28734   0.00000  Uiso   1.00
Zn230  Zn    0.13379   0.45791   0.21875   0.00000  Uiso   1.00
Zn231  Zn    0.21056   0.53109   0.20657   0.00000  Uiso   1.00
Zn232  Zn    0.12893   0.53773   0.28733   0.00000  Uiso   1.00
C233   C     0.38637   0.49312   0.25996   0.00000  Uiso   1.00
C234   C     0.49982   0.49131   0.05909   0.00000  Uiso   1.00
C235   C     0.56404   0.45971   0.05622   0.00000  Uiso   1.00
C236   C     0.61420   0.50699   0.24007   0.00000  Uiso   1.00
C237   C     0.47053   0.52080   0.42009   0.00000  Uiso   1.00
C238   C     0.66023   0.50891   0.23600   0.00000  Uiso   1.00
C239   C     0.34125   0.49022   0.26513   0.00000  Uiso   1.00
C240   C     0.51397   0.65592   0.23631   0.00000  Uiso   1.00
C241   C     0.48562   0.34510   0.26396   0.00000  Uiso   1.00
C242   C     0.48967   0.38923   0.26015   0.00000  Uiso   1.00
C243   C     0.51000   0.61127   0.24011   0.00000  Uiso   1.00
C244   C     0.40967   0.50708   0.48389   0.00000  Uiso   1.00
C245   C     0.51874   0.48176   0.12944   0.00000  Uiso   1.00
C246   C     0.48241   0.51836   0.37080   0.00000  Uiso   1.00
C247   C     0.57708   0.46197   0.00977   0.00000  Uiso   1.00
C248   C     0.52666   0.47611   0.08102   0.00000  Uiso   1.00
C249   C     0.42736   0.52274   0.44171   0.00000  Uiso   1.00
C250   C     0.43595   0.49086   0.00514   0.00000  Uiso   1.00
C251   C     0.48120   0.49705   0.48803   0.00000  Uiso   1.00
C252   C     0.49858   0.51105   0.44425   0.00000  Uiso   1.00
C253   C     0.50967   0.48755   0.01195   0.00000  Uiso   1.00
C254   C     0.55148   0.47971   0.48819   0.00000  Uiso   1.00
C255   C     0.56843   0.49453   0.44554   0.00000  Uiso   1.00
C256   C     0.54338   0.51388   0.42543   0.00000  Uiso   1.00
H257   H     0.54013   0.33724   0.21085   0.00000  Uiso   1.00
H258   H     0.45914   0.66455   0.28958   0.00000  Uiso   1.00
H259   H     0.60215   0.49476   0.42944   0.00000  Uiso   1.00
H260   H     0.40623   0.53146   0.42352   0.00000  Uiso   1.00
H261   H     0.61418   0.43895   0.45560   0.00000  Uiso   1.00
H262   H     0.46366   0.51607   0.11444   0.00000  Uiso   1.00
H263   H     0.35217   0.51642   0.48400   0.00000  Uiso   1.00
H264   H     0.59363   0.53636   0.38056   0.00000  Uiso   1.00
H265   H     0.34166   0.54116   0.18302   0.00000  Uiso   1.00
I266   I     0.60328   0.43379   0.08865   0.00000  Uiso   1.00
I267   I     0.63931   0.45632   0.32172   0.00000  Uiso   1.00
I268   I     0.40400   0.44646   0.05355   0.00000  Uiso   1.00
O269   O     0.50000   0.50000   0.25000   0.00000  Uiso   1.00
O270   O     0.48784   0.45970   0.15458   0.00000  Uiso   1.00
O271   O     0.46274   0.53724   0.34968   0.00000  Uiso   1.00
O272   O     0.54157   0.51092   0.14606   0.00000  Uiso   1.00
O273   O     0.50785   0.49213   0.34968   0.00000  Uiso   1.00
O274   O     0.61516   0.44747   0.48693   0.00000  Uiso   1.00
O275   O     0.46765   0.51506   0.08168   0.00000  Uiso   1.00
O276   O     0.36620   0.50384   0.00319   0.00000  Uiso   1.00
O277   O     0.56225   0.53673   0.38849   0.00000  Uiso   1.00
O278   O     0.35664   0.52978   0.20208   0.00000  Uiso   1.00
O279   O     0.51264   0.41352   0.28213   0.00000  Uiso   1.00
O280   O     0.47965   0.59418   0.27013   0.00000  Uiso   1.00
O281   O     0.40745   0.46625   0.23413   0.00000  Uiso   1.00
O282   O     0.60026   0.52605   0.21360   0.00000  Uiso   1.00
O283   O     0.40405   0.52211   0.28213   0.00000  Uiso   1.00
O284   O     0.58824   0.48559   0.27013   0.00000  Uiso   1.00
O285   O     0.47093   0.40277   0.23413   0.00000  Uiso   1.00
O286   O     0.53678   0.58953   0.21360   0.00000  Uiso   1.00
Zn287  Zn    0.52672   0.47327   0.28734   0.00000  Uiso   1.00
Zn288  Zn    0.46713   0.45791   0.21875   0.00000  Uiso   1.00
Zn289  Zn    0.54389   0.53109   0.20657   0.00000  Uiso   1.00
Zn290  Zn    0.46226   0.53773   0.28733   0.00000  Uiso   1.00
C291   C     0.71971   0.49312   0.25996   0.00000  Uiso   1.00
C292   C     0.83315   0.49131   0.05909   0.00000  Uiso   1.00
C293   C     0.89737   0.45971   0.05622   0.00000  Uiso   1.00
C294   C     0.94753   0.50699   0.24007   0.00000  Uiso   1.00
C295   C     0.80386   0.52080   0.42009   0.00000  Uiso   1.00
C296   C     0.99357   0.50891   0.23600   0.00000  Uiso   1.00
C297   C     0.67458   0.49022   0.26513   0.00000  Uiso   1.00
C298   C     0.84730   0.65592   0.23631   0.00000  Uiso   1.00
C299   C     0.81895   0.34510   0.26396   0.00000  Uiso   1.00
C300   C     0.82300   0.38923   0.26015   0.00000  Uiso   1.00
C301   C     0.84334   0.61127   0.24011   0.00000  Uiso   1.00
C302   C     0.74300   0.50708   0.48389   0.00000  Uiso   1.00
C303   C     0.85208   0.48176   0.12944   0.00000  Uiso   1.00
C304   C     0.81575   0.51836   0.37080   0.00000  Uiso   1.00
C305   C     0.91042   0.46197   0.00977   0.00000  Uiso   1.00
C306   C     0.85999   0.47611   0.08102   0.00000  Uiso   1.00
C307   C     0.76069   0.52274   0.44171   0.00000  Uiso   1.00
C308   C     0.76928   0.49086   0.00514   0.00000  Uiso   1.00
C309   C     0.81453   0.49705   0.48803   0.00000  Uiso   1.00
C310   C     0.83191   0.51105   0.44425   0.00000  Uiso   1.00
C311   C     0.84300   0.48755   0.01195   0.00000  Uiso   1.00
C312   C     0.88481   0.47971   0.48819   0.00000  Uiso   1.00
C313   C     0.90176   0.49453   0.44554   0.00000  Uiso   1.00
C314   C     0.87671   0.51388   0.42543   0.00000  Uiso   1.00
H315   H     0.87346   0.33724   0.21085   0.00000  Uiso   1.00
H316   H     0.79247   0.66455   0.28958   0.00000  Uiso   1.00
H317   H     0.93548   0.49476   0.42944   0.00000  Uiso   1.00
H318   H     0.73956   0.53146   0.42352   0.00000  Uiso   1.00
H319   H     0.94751   0.43895   0.45560   0.00000  Uiso   1.00
H320   H     0.79699   0.51607   0.11444   0.00000  Uiso   1.00
H321   H     0.68551   0.51642   0.48400   0.00000  Uiso   1.00
H322   H     0.92696   0.53636   0.38056   0.00000  Uiso   1.00
H323   H     0.67500   0.54116   0.18302   0.00000  Uiso   1.00
I324   I     0.93661   0.43379   0.08865   0.00000  Uiso   1.00
I325   I     0.97264   0.45632   0.32172   0.00000  Uiso   1.00
I326   I     0.73734   0.44646   0.05355   0.00000  Uiso   1.00
O327   O     0.83333   0.50000   0.25000   0.00000  Uiso   1.00
O328   O     0.82118   0.45970   0.15458   0.00000  Uiso   1.00
O329   O     0.79607   0.53724   0.34968   0.00000  Uiso   1.00
O330   O     0.87491   0.51092   0.14606   0.00000  Uiso   1.00
O331   O     0.84118   0.49213   0.34968   0.00000  Uiso   1.00
O332   O     0.94850   0.44747   0.48693   0.00000  Uiso   1.00
O333   O     0.80098   0.51506   0.08168   0.00000  Uiso   1.00
O334   O     0.69954   0.50384   0.00319   0.00000  Uiso   1.00
O335   O     0.89558   0.53673   0.38849   0.00000  Uiso   1.00
O336   O     0.68997   0.52978   0.20208   0.00000  Uiso   1.00
O337   O     0.84597   0.41352   0.28213   0.00000  Uiso   1.00
O338   O     0.81298   0.59418   0.27013   0.00000  Uiso   1.00
O339   O     0.74078   0.46625   0.23413   0.00000  Uiso   1.00
O340   O     0.93360   0.52605   0.21360   0.00000  Uiso   1.00
O341   O     0.73738   0.52211   0.28213   0.00000  Uiso   1.00
O342   O     0.92158   0.48559   0.27013   0.00000  Uiso   1.00
O343   O     0.80426   0.40277   0.23413   0.00000  Uiso   1.00
O344   O     0.87012   0.58953   0.21360   0.00000  Uiso   1.00
Zn345  Zn    0.86005   0.47327   0.28734   0.00000  Uiso   1.00
Zn346  Zn    0.80046   0.45791   0.21875   0.00000  Uiso   1.00
Zn347  Zn    0.87723   0.53109   0.20657   0.00000  Uiso   1.00
Zn348  Zn    0.79560   0.53773   0.28733   0.00000  Uiso   1.00
C349   C     0.05304   0.82645   0.25996   0.00000  Uiso   1.00
C350   C     0.16649   0.82464   0.05909   0.00000  Uiso   1.00
C351   C     0.23070   0.79305   0.05622   0.00000  Uiso   1.00
C352   C     0.28087   0.84033   0.24007   0.00000  Uiso   1.00
C353   C     0.13719   0.85414   0.42009   0.00000  Uiso   1.00
C354   C     0.32690   0.84224   0.23600   0.00000  Uiso   1.00
C355   C     0.00791   0.82355   0.26513   0.00000  Uiso   1.00
C356   C     0.18063   0.98925   0.23631   0.00000  Uiso   1.00
C357   C     0.15229   0.67843   0.26396   0.00000  Uiso   1.00
C358   C     0.15634   0.72257   0.26015   0.00000  Uiso   1.00
C359   C     0.17667   0.94460   0.24011   0.00000  Uiso   1.00
C360   C     0.07633   0.84041   0.48389   0.00000  Uiso   1.00
C361   C     0.18541   0.81510   0.12944   0.00000  Uiso   1.00
C362   C     0.14908   0.85169   0.37080   0.00000  Uiso   1.00
C363   C     0.24375   0.79530   0.00977   0.00000  Uiso   1.00
C364   C     0.19332   0.80944   0.08102   0.00000  Uiso   1.00
C365   C     0.09402   0.85607   0.44171   0.00000  Uiso   1.00
C366   C     0.10261   0.82419   0.00514   0.00000  Uiso   1.00
C367   C     0.14787   0.83039   0.48803   0.00000  Uiso   1.00
C368   C     0.16525   0.84438   0.44425   0.00000  Uiso   1.00
C369   C     0.17633   0.82089   0.01195   0.00000  Uiso   1.00
C370   C     0.21815   0.81304   0.48819   0.00000  Uiso   1.00
C371   C     0.23509   0.82787   0.44554   0.00000  Uiso   1.00
C372   C     0.21004   0.84721   0.42543   0.00000  Uiso   1.00
H373   H     0.20680   0.67057   0.21085   0.00000  Uiso   1.00
H374   H     0.12581   0.99788   0.28958   0.00000  Uiso   1.00
H375   H     0.26881   0.82810   0.42944   0.00000  Uiso   1.00
H376   H     0.07290   0.86480   0.42352   0.00000  Uiso   1.00
H377   H     0.28084   0.77228   0.45560   0.00000  Uiso   1.00
H378   H     0.13032   0.84941   0.11444   0.00000  Uiso   1.00
H379   H     0.01884   0.84975   0.48400   0.00000  Uiso   1.00
H380   H     0.26030   0.86970   0.38056   0.00000  Uiso   1.00
H381   H     0.00833   0.87449   0.18302   0.00000  Uiso   1.00
I382   I     0.26994   0.76712   0.08865   0.00000  Uiso   1.00
I383   I     0.30598   0.78965   0.32172   0.00000  Uiso   1.00
I384   I     0.07067   0.77979   0.05355   0.00000  Uiso   1.00
O385   O     0.16667   0.83333   0.25000   0.00000  Uiso   1.00
O386   O     0.15451   0.79304   0.15458   0.00000  Uiso   1.00
O387   O     0.12940   0.87058   0.34968   0.00000  Uiso   1.00
O388   O     0.20824   0.84425   0.14606   0.00000  Uiso   1.00
O389   O     0.17451   0.82546   0.34968   0.00000  Uiso   1.00
O390   O     0.28183   0.78081   0.48693   0.00000  Uiso   1.00
O391   O     0.13431   0.84840   0.08168   0.00000  Uiso   1.00
O392   O     0.03287   0.83717   0.00319   0.00000  Uiso   1.00
O393   O     0.22891   0.87006   0.38849   0.00000  Uiso   1.00
O394   O     0.02331   0.86311   0.20208   0.00000  Uiso   1.00
O395   O     0.17930   0.74686   0.28213   0.00000  Uiso   1.00
O396   O     0.14632   0.92751   0.27013   0.00000  Uiso   1.00
O397   O     0.07412   0.79958   0.23413   0.00000  Uiso   1.00
O398   O     0.26693   0.85939   0.21360   0.00000  Uiso   1.00
O399   O     0.07071   0.85544   0.28213   0.00000  Uiso   1.00
O400   O     0.25491   0.81892   0.27013   0.00000  Uiso   1.00
O401   O     0.13760   0.73610   0.23413   0.00000  Uiso   1.00
O402   O     0.20345   0.92286   0.21360   0.00000  Uiso   1.00
Zn403  Zn    0.19338   0.80661   0.28734   0.00000  Uiso   1.00
Zn404  Zn    0.13379   0.79124   0.21875   0.00000  Uiso   1.00
Zn405  Zn    0.21056   0.86442   0.20657   0.00000  Uiso   1.00
Zn406  Zn    0.12893   0.87106   0.28733   0.00000  Uiso   1.00
C407   C     0.38637   0.82645   0.25996   0.00000  Uiso   1.00
C408   C     0.49982   0.82464   0.05909   0.00000  Uiso   1.00
C409   C     0.56404   0.79305   0.05622   0.00000  Uiso   1.00
C410   C     0.61420   0.84033   0.24007   0.00000  Uiso   1.00
C411   C     0.47053   0.85414   0.42009   0.00000  Uiso   1.00
C412   C     0.66023   0.84224   0.23600   0.00000  Uiso   1.00
C413   C     0.34125   0.82355   0.26513   0.00000  Uiso   1.00
C414   C     0.51397   0.98925   0.23631   0.00000  Uiso   1.00
C415   C     0.48562   0.67843   0.26396   0.00000  Uiso   1.00
C416   C     0.48967   0.72257   0.26015   0.00000  Uiso   1.00
C417   C     0.51000   0.94460   0.24011   0.00000  Uiso   1.00
C418   C     0.40967   0.84041   0.48389   0.00000  Uiso   1.00
C419   C     0.51874   0.81510   0.12944   0.00000  Uiso   1.00
C420   C     0.48241   0.85169   0.37080   0.00000  Uiso   1.00
C421   C     0.57708   0.79530   0.00977   0.00000  Uiso   1.00
C422   C     0.52666   0.80944   0.08102   0.00000  Uiso   1.00
C423   C     0.42736   0.85607   0.44171   0.00000  Uiso   1.00
C424   C     0.43595   0.82419   0.00514   0.00000  Uiso   1.00
C425   C     0.48120   0.83039   0.48803   0.00000  Uiso   1.00
C426   C     0.49858   0.84438   0.44425   0.00000  Uiso   1.00
C427   C     0.50967   0.82089   0.01195   0.00000  Uiso   1.00
C428   C     0.55148   0.81304   0.48819   0.00000  Uiso   1.00
C429   C     0.56843   0.82787   0.44554   0.00000  Uiso   1.00
C430   C     0.54338   0.84721   0.42543   0.00000  Uiso   1.00
H431   H     0.54013   0.67057   0.21085   0.00000  Uiso   1.00
H432   H     0.45914   0.99788   0.28958   0.00000  Uiso   1.00
H433   H     0.60215   0.82810   0.42944   0.00000  Uiso   1.00
H434   H     0.40623   0.86480   0.42352   0.00000  Uiso   1.00
H435   H     0.61418   0.77228   0.45560   0.00000  Uiso   1.00
H436   H     0.46366   0.84941   0.11444   0.00000  Uiso   1.00
H437   H     0.35217   0.84975   0.48400   0.00000  Uiso   1.00
H438   H     0.59363   0.86970   0.38056   0.00000  Uiso   1.00
H439   H     0.34166   0.87449   0.18302   0.00000  Uiso   1.00
I440   I     0.60328   0.76712   0.08865   0.00000  Uiso   1.00
I441   I     0.63931   0.78965   0.32172   0.00000  Uiso   1.00
I442   I     0.40400   0.77979   0.05355   0.00000  Uiso   1.00
O443   O     0.50000   0.83333   0.25000   0.00000  Uiso   1.00
O444   O     0.48784   0.79304   0.15458   0.00000  Uiso   1.00
O445   O     0.46274   0.87058   0.34968   0.00000  Uiso   1.00
O446   O     0.54157   0.84425   0.14606   0.00000  Uiso   1.00
O447   O     0.50785   0.82546   0.34968   0.00000  Uiso   1.00
O448   O     0.61516   0.78081   0.48693   0.00000  Uiso   1.00
O449   O     0.46765   0.84840   0.08168   0.00000  Uiso   1.00
O450   O     0.36620   0.83717   0.00319   0.00000  Uiso   1.00
O451   O     0.56225   0.87006   0.38849   0.00000  Uiso   1.00
O452   O     0.35664   0.86311   0.20208   0.00000  Uiso   1.00
O453   O     0.51264   0.74686   0.28213   0.00000  Uiso   1.00
O454   O     0.47965   0.92751   0.27013   0.00000  Uiso   1.00
O455   O     0.40745   0.79958   0.23413   0.00000  Uiso   1.00
O456   O     0.60026   0.85939   0.21360   0.00000  Uiso   1.00
O457   O     0.40405   0.85544   0.28213   0.00000  Uiso   1.00
O458   O     0.58824   0.81892   0.27013   0.00000  Uiso   1.00
O459   O     0.47093   0.73610   0.23413   0.00000  Uiso   1.00
O460   O     0.53678   0.92286   0.21360   0.00000  Uiso   1.00
Zn461  Zn    0.52672   0.80661   0.28734   0.00000  Uiso   1.00
Zn462  Zn    0.46713   0.79124   0.21875   0.00000  Uiso   1.00
Zn463  Zn    0.54389   0.86442   0.20657   0.00000  Uiso   1.00
Zn464  Zn    0.46226   0.87106   0.28733   0.00000  Uiso   1.00
C465   C     0.71971   0.82645   0.25996   0.00000  Uiso   1.00
C466   C     0.83315   0.82464   0.05909   0.00000  Uiso   1.00
C467   C     0.89737   0.79305   0.05622   0.00000  Uiso   1.00
C468   C     0.94753   0.84033   0.24007   0.00000  Uiso   1.00
C469   C     0.80386   0.85414   0.42009   0.00000  Uiso   1.00
C470   C     0.99357   0.84224   0.23600   0.00000  Uiso   1.00
C471   C     0.67458   0.82355   0.26513   0.00000  Uiso   1.00
C472   C     0.84730   0.98925   0.23631   0.00000  Uiso   1.00
C473   C     0.81895   0.67843   0.26396   0.00000  Uiso   1.00
C474   C     0.82300   0.72257   0.26015   0.00000  Uiso   1.00
C475   C     0.84334   0.94460   0.24011   0.00000  Uiso   1.00
C476   C     0.74300   0.84041   0.48389   0.00000  Uiso   1.00
C477   C     0.85208   0.81510   0.12944   0.00000  Uiso   1.00
C478   C     0.81575   0.85169   0.37080   0.00000  Uiso   1.00
C479   C     0.91042   0.79530   0.00977   0.00000  Uiso   1.00
C480   C     0.85999   0.80944   0.08102   0.00000  Uiso   1.00
C481   C     0.76069   0.85607   0.44171   0.00000  Uiso   1.00
C482   C     0.76928   0.82419   0.00514   0.00000  Uiso   1.00
C483   C     0.81453   0.83039   0.48803   0.00000  Uiso   1.00
C484   C     0.83191   0.84438   0.44425   0.00000  Uiso   1.00
C485   C     0.84300   0.82089   0.01195   0.00000  Uiso   1.00
C486   C     0.88481   0.81304   0.48819   0.00000  Uiso   1.00
C487   C     0.90176   0.82787   0.44554   0.00000  Uiso   1.00
C488   C     0.87671   0.84721   0.42543   0.00000  Uiso   1.00
H489   H     0.87346   0.67057   0.21085   0.00000  Uiso   1.00
H490   H     0.79247   0.99788   0.28958   0.00000  Uiso   1.00
H491   H     0.93548   0.82810   0.42944   0.00000  Uiso   1.00
H492   H     0.73956   0.86480   0.42352   0.00000  Uiso   1.00
H493   H     0.94751   0.77228   0.45560   0.00000  Uiso   1.00
H494   H     0.79699   0.84941   0.11444   0.00000  Uiso   1.00
H495   H     0.68551   0.84975   0.48400   0.00000  Uiso   1.00
H496   H     0.92696   0.86970   0.38056   0.00000  Uiso   1.00
H497   H     0.67500   0.87449   0.18302   0.00000  Uiso   1.00
I498   I     0.93661   0.76712   0.08865   0.00000  Uiso   1.00
I499   I     0.97264   0.78965   0.32172   0.00000  Uiso   1.00
I500   I     0.73734   0.77979   0.05355   0.00000  Uiso   1.00
O501   O     0.83333   0.83333   0.25000   0.00000  Uiso   1.00
O502   O     0.82118   0.79304   0.15458   0.00000  Uiso   1.00
O503   O     0.79607   0.87058   0.34968   0.00000  Uiso   1.00
O504   O     0.87491   0.84425   0.14606   0.00000  Uiso   1.00
O505   O     0.84118   0.82546   0.34968   0.00000  Uiso   1.00
O506   O     0.94850   0.78081   0.48693   0.00000  Uiso   1.00
O507   O     0.80098   0.84840   0.08168   0.00000  Uiso   1.00
O508   O     0.69954   0.83717   0.00319   0.00000  Uiso   1.00
O509   O     0.89558   0.87006   0.38849   0.00000  Uiso   1.00
O510   O     0.68997   0.86311   0.20208   0.00000  Uiso   1.00
O511   O     0.84597   0.74686   0.28213   0.00000  Uiso   1.00
O512   O     0.81298   0.92751   0.27013   0.00000  Uiso   1.00
O513   O     0.74078   0.79958   0.23413   0.00000  Uiso   1.00
O514   O     0.93360   0.85939   0.21360   0.00000  Uiso   1.00
O515   O     0.73738   0.85544   0.28213   0.00000  Uiso   1.00
O516   O     0.92158   0.81892   0.27013   0.00000  Uiso   1.00
O517   O     0.80426   0.73610   0.23413   0.00000  Uiso   1.00
O518   O     0.87012   0.92286   0.21360   0.00000  Uiso   1.00
Zn519  Zn    0.86005   0.80661   0.28734   0.00000  Uiso   1.00
Zn520  Zn    0.80046   0.79124   0.21875   0.00000  Uiso   1.00
Zn521  Zn    0.87723   0.86442   0.20657   0.00000  Uiso   1.00
Zn522  Zn    0.79560   0.87106   0.28733   0.00000  Uiso   1.00
C523   C     0.05304   0.15978   0.75996   0.00000  Uiso   1.00
C524   C     0.16649   0.15797   0.55909   0.00000  Uiso   1.00
C525   C     0.23070   0.12638   0.55622   0.00000  Uiso   1.00
C526   C     0.28087   0.17366   0.74007   0.00000  Uiso   1.00
C527   C     0.13719   0.18747   0.92009   0.00000  Uiso   1.00
C528   C     0.32690   0.17557   0.73600   0.00000  Uiso   1.00
C529   C     0.00791   0.15689   0.76513   0.00000  Uiso   1.00
C530   C     0.18063   0.32258   0.73631   0.00000  Uiso   1.00
C531   C     0.15229   0.01176   0.76396   0.00000  Uiso   1.00
C532   C     0.15634   0.05590   0.76015   0.00000  Uiso   1.00
C533   C     0.17667   0.27794   0.74011   0.00000  Uiso   1.00
C534   C     0.07633   0.17375   0.98389   0.00000  Uiso   1.00
C535   C     0.18541   0.14843   0.62944   0.00000  Uiso   1.00
C536   C     0.14908   0.18503   0.87080   0.00000  Uiso   1.00
C537   C     0.24375   0.12864   0.50977   0.00000  Uiso   1.00
C538   C     0.19332   0.14277   0.58102   0.00000  Uiso   1.00
C539   C     0.09402   0.18941   0.94171   0.00000  Uiso   1.00
C540   C     0.10261   0.15752   0.50514   0.00000  Uiso   1.00
C541   C     0.14787   0.16372   0.98803   0.00000  Uiso   1.00
C542   C     0.16525   0.17771   0.94425   0.00000  Uiso   1.00
C543   C     0.17633   0.15422   0.51195   0.00000  Uiso   1.00
C544   C     0.21815   0.14637   0.98819   0.00000  Uiso   1.00
C545   C     0.23509   0.16120   0.94554   0.00000  Uiso   1.00
C546   C     0.21004   0.18054   0.92543   0.00000  Uiso   1.00
H547   H     0.20680   0.00390   0.71085   0.00000  Uiso   1.00
H548   H     0.12581   0.33122   0.78958   0.00000  Uiso   1.00
H549   H     0.26881   0.16143   0.92944   0.00000  Uiso   1.00
H550   H     0.07290   0.19813   0.92352   0.00000  Uiso   1.00
H551   H     0.28084   0.10562   0.95560   0.00000  Uiso   1.00
H552   H     0.13032   0.18274   0.61444   0.00000  Uiso   1.00
H553   H     0.01884   0.18308   0.98400   0.00000  Uiso   1.00
H554   H     0.26030   0.20303   0.88056   0.00000  Uiso   1.00
H555   H     0.00833   0.20783   0.68302   0.00000  Uiso   1.00
I556   I     0.26994   0.10045   0.58865   0.00000  Uiso   1.00
I557   I     0.30598   0.12298   0.82172   0.00000  Uiso   1.00
I558   I     0.07067   0.11312   0.55355   0.00000  Uiso   1.00
O559   O     0.16667   0.16667   0.75000   0.00000  Uiso   1.00
O560   O     0.15451   0.12637   0.65458   0.00000  Uiso   1.00
O561   O     0.12940   0.20391   0.84968   0.00000  Uiso   1.00
O562   O     0.20824   0.17759   0.64606   0.00000  Uiso   1.00
O563   O     0.17451   0.15880   0.84968   0.00000  Uiso   1.00
O564   O     0.28183   0.11414   0.98693   0.00000  Uiso   1.00
O565   O     0.13431   0.18173   0.58168   0.00000  Uiso   1.00
O566   O     0.03287   0.17051   0.50319   0.00000  Uiso   1.00
O567   O     0.22891   0.20339   0.88849   0.00000  Uiso   1.00
O568   O     0.02331   0.19645   0.70208   0.00000  Uiso   1.00
O569   O     0.17930   0.08019   0.78213   0.00000  Uiso   1.00
O570   O     0.14632   0.26085   0.77013   0.00000  Uiso   1.00
O571   O     0.07412   0.13291   0.73413   0.00000  Uiso   1.00
O572   O     0.26693   0.19272   0.71360   0.00000  Uiso   1.00
O573   O     0.07071   0.18878   0.78213   0.00000  Uiso   1.00
O574   O     0.25491   0.15226   0.77013   0.00000  Uiso   1.00
O575   O     0.13760   0.06944   0.73413   0.00000  Uiso   1.00
O576   O     0.20345   0.25620   0.71360   0.00000  Uiso   1.00
Zn577  Zn    0.19338   0.13994   0.78734   0.00000  Uiso   1.00
Zn578  Zn    0.13379   0.12458   0.71875   0.00000  Uiso   1.00
Zn579  Zn    0.21056   0.19775   0.70657   0.00000  Uiso   1.00
Zn580  Zn    0.12893   0.20439   0.78733   0.00000  Uiso   1.00
C581   C     0.38637   0.15978   0.75996   0.00000  Uiso   1.00
C582   C     0.49982   0.15797   0.55909   0.00000  Uiso   1.00
C583   C     0.56404   0.12638   0.55622   0.00000  Uiso   1.00
C584   C     0.61420   0.17366   0.74007   0.00000  Uiso   1.00
C585   C     0.47053   0.18747   0.92009   0.00000  Uiso   1.00
C586   C     0.66023   0.17557   0.73600   0.00000  Uiso   1.00
C587   C     0.34125   0.15689   0.76513   0.00000  Uiso   1.00
C588   C     0.51397   0.32258   0.73631   0.00000  Uiso   1.00
C589   C     0.48562   0.01176   0.76396   0.00000  Uiso   1.00
C590   C     0.48967   0.05590   0.76015   0.00000  Uiso   1.00
C591   C     0.51000   0.27794   0.74011   0.00000  Uiso   1.00
C592   C     0.40967   0.17375   0.98389   0.00000  Uiso   1.00
C593   C     0.51874   0.14843   0.62944   0.00000  Uiso   1.00
C594   C     0.48241   0.18503   0.87080   0.00000  Uiso   1.00
C595   C     0.57708   0.12864   0.50977   0.00000  Uiso   1.00
C596   C     0.52666   0.14277   0.58102   0.00000  Uiso   1.00
C597   C     0.42736   0.18941   0.94171   0.00000  Uiso   1.00
C598   C     0.43595   0.15752   0.50514   0.00000  Uiso   1.00
C599   C     0.48120   0.16372   0.98803   0.00000  Uiso   1.00
C600   C     0.49858   0.17771   0.94425   0.00000  Uiso   1.00
C601   C     0.50967   0.15422   0.51195   0.00000  Uiso   1.00
C602   C     0.55148   0.14637   0.98819   0.00000  Uiso   1.00
C603   C     0.56843   0.16120   0.94554   0.00000  Uiso   1.00
C604   C     0.54338   0.18054   0.92543   0.00000  Uiso   1.00
H605   H     0.54013   0.00390   0.71085   0.00000  Uiso   1.00
H606   H     0.45914   0.33122   0.78958   0.00000  Uiso   1.00
H607   H     0.60215   0.16143   0.92944   0.00000  Uiso   1.00
H608   H     0.40623   0.19813   0.92352   0.00000  Uiso   1.00
H609   H     0.61418   0.10562   0.95560   0.00000  Uiso   1.00
H610   H     0.46366   0.18274   0.61444   0.00000  Uiso   1.00
H611   H     0.35217   0.18308   0.98400   0.00000  Uiso   1.00
H612   H     0.59363   0.20303   0.88056   0.00000  Uiso   1.00
H613   H     0.34166   0.20783   0.68302   0.00000  Uiso   1.00
I614   I     0.60328   0.10045   0.58865   0.00000  Uiso   1.00
I615   I     0.63931   0.12298   0.82172   0.00000  Uiso   1.00
I616   I     0.40400   0.11312   0.55355   0.00000  Uiso   1.00
O617   O     0.50000   0.16667   0.75000   0.00000  Uiso   1.00
O618   O     0.48784   0.12637   0.65458   0.00000  Uiso   1.00
O619   O     0.46274   0.20391   0.84968   0.00000  Uiso   1.00
O620   O     0.54157   0.17759   0.64606   0.00000  Uiso   1.00
O621   O     0.50785   0.15880   0.84968   0.00000  Uiso   1.00
O622   O     0.61516   0.11414   0.98693   0.00000  Uiso   1.00
O623   O     0.46765   0.18173   0.58168   0.00000  Uiso   1.00
O624   O     0.36620   0.17051   0.50319   0.00000  Uiso   1.00
O625   O     0.56225   0.20339   0.88849   0.00000  Uiso   1.00
O626   O     0.35664   0.19645   0.70208   0.00000  Uiso   1.00
O627   O     0.51264   0.08019   0.78213   0.00000  Uiso   1.00
O628   O     0.47965   0.26085   0.77013   0.00000  Uiso   1.00
O629   O     0.40745   0.13291   0.73413   0.00000  Uiso   1.00
O630   O     0.60026   0.19272   0.71360   0.00000  Uiso   1.00
O631   O     0.40405   0.18878   0.78213   0.00000  Uiso   1.00
O632   O     0.58824   0.15226   0.77013   0.00000  Uiso   1.00
O633   O     0.47093   0.06944   0.73413   0.00000  Uiso   1.00
O634   O     0.53678   0.25620   0.71360   0.00000  Uiso   1.00
Zn635  Zn    0.52672   0.13994   0.78734   0.00000  Uiso   1.00
Zn636  Zn    0.46713   0.12458   0.71875   0.00000  Uiso   1.00
Zn637  Zn    0.54389   0.19775   0.70657   0.00000  Uiso   1.00
Zn638  Zn    0.46226   0.20439   0.78733   0.00000  Uiso   1.00
C639   C     0.71971   0.15978   0.75996   0.00000  Uiso   1.00
C640   C     0.83315   0.15797   0.55909   0.00000  Uiso   1.00
C641   C     0.89737   0.12638   0.55622   0.00000  Uiso   1.00
C642   C     0.94753   0.17366   0.74007   0.00000  Uiso   1.00
C643   C     0.80386   0.18747   0.92009   0.00000  Uiso   1.00
C644   C     0.99357   0.17557   0.73600   0.00000  Uiso   1.00
C645   C     0.67458   0.15689   0.76513   0.00000  Uiso   1.00
C646   C     0.84730   0.32258   0.73631   0.00000  Uiso   1.00
C647   C     0.81895   0.01176   0.76396   0.00000  Uiso   1.00
C648   C     0.82300   0.05590   0.76015   0.00000  Uiso   1.00
C649   C     0.84334   0.27794   0.74011   0.00000  Uiso   1.00
C650   C     0.74300   0.17375   0.98389   0.00000  Uiso   1.00
C651   C     0.85208   0.14843   0.62944   0.00000  Uiso   1.00
C652   C     0.81575   0.18503   0.87080   0.00000  Uiso   1.00
C653   C     0.91042   0.12864   0.50977   0.00000  Uiso   1.00
C654   C     0.85999   0.14277   0.58102   0.00000  Uiso   1.00
C655   C     0.76069   0.18941   0.94171   0.00000  Uiso   1.00
C656   C     0.76928   0.15752   0.50514   0.00000  Uiso   1.00
C657   C     0.81453   0.16372   0.98803   0.00000  Uiso   1.00
C658   C     0.83191   0.17771   0.94425   0.00000  Uiso   1.00
C659   C     0.84300   0.15422   0.51195   0.00000  Uiso   1.00
C660   C     0.88481   0.14637   0.98819   0.00000  Uiso   1.00
C661   C     0.90176   0.16120   0.94554   0.00000  Uiso   1.00
C662   C     0.87671   0.18054   0.92543   0.00000  Uiso   1.00
H663   H     0.87346   0.00390   0.71085   0.00000  Uiso   1.00
H664   H     0.79247   0.33122   0.78958   0.00000  Uiso   1.00
H665   H     0.93548   0.16143   0.92944   0.00000  Uiso   1.00
H666   H     0.73956   0.19813   0.92352   0.00000  Uiso   1.00
H667   H     0.94751   0.10562   0.95560   0.00000  Uiso   1.00
H668   H     0.79699   0.18274   0.61444   0.00000  Uiso   1.00
H669   H     0.68551   0.18308   0.98400   0.00000  Uiso   1.00
H670   H     0.92696   0.20303   0.88056   0.00000  Uiso   1.00
H671   H     0.67500   0.20783   0.68302   0.00000  Uiso   1.00
I672   I     0.93661   0.10045   0.58865   0.00000  Uiso   1.00
I673   I     0.97264   0.12298   0.82172   0.00000  Uiso   1.00
I674   I     0.73734   0.11312   0.55355   0.00000  Uiso   1.00
O675   O     0.83333   0.16667   0.75000   0.00000  Uiso   1.00
O676   O     0.82118   0.12637   0.65458   0.00000  Uiso   1.00
O677   O     0.79607   0.20391   0.84968   0.00000  Uiso   1.00
O678   O     0.87491   0.17759   0.64606   0.00000  Uiso   1.00
O679   O     0.84118   0.15880   0.84968   0.00000  Uiso   1.00
O680   O     0.94850   0.11414   0.98693   0.00000  Uiso   1.00
O681   O     0.80098   0.18173   0.58168   0.00000  Uiso   1.00
O682   O     0.69954   0.17051   0.50319   0.00000  Uiso   1.00
O683   O     0.89558   0.20339   0.88849   0.00000  Uiso   1.00
O684   O     0.68997   0.19645   0.70208   0.00000  Uiso   1.00
O685   O     0.84597   0.08019   0.78213   0.00000  Uiso   1.00
O686   O     0.81298   0.26085   0.77013   0.00000  Uiso   1.00
O687   O     0.74078   0.13291   0.73413   0.00000  Uiso   1.00
O688   O     0.93360   0.19272   0.71360   0.00000  Uiso   1.00
O689   O     0.73738   0.18878   0.78213   0.00000  Uiso   1.00
O690   O     0.92158   0.15226   0.77013   0.00000  Uiso   1.00
O691   O     0.80426   0.06944   0.73413   0.00000  Uiso   1.00
O692   O     0.87012   0.25620   0.71360   0.00000  Uiso   1.00
Zn693  Zn    0.86005   0.13994   0.78734   0.00000  Uiso   1.00
Zn694  Zn    0.80046   0.12458   0.71875   0.00000  Uiso   1.00
Zn695  Zn    0.87723   0.19775   0.70657   0.00000  Uiso   1.00
Zn696  Zn    0.79560   0.20439   0.78733   0.00000  Uiso   1.00
C697   C     0.05304   0.49312   0.75996   0.00000  Uiso   1.00
C698   C     0.16649   0.49131   0.55909   0.00000  Uiso   1.00
C699   C     0.23070   0.45971   0.55622   0.00000  Uiso   1.00
C700   C     0.28087   0.50699   0.74007   0.00000  Uiso   1.00
C701   C     0.13719   0.52080   0.92009   0.00000  Uiso   1.00
C702   C     0.32690   0.50891   0.73600   0.00000  Uiso   1.00
C703   C     0.00791   0.49022   0.76513   0.00000  Uiso   1.00
C704   C     0.18063   0.65592   0.73631   0.00000  Uiso   1.00
C705   C     0.15229   0.34510   0.76396   0.00000  Uiso   1.00
C706   C     0.15634   0.38923   0.76015   0.00000  Uiso   1.00
C707   C     0.17667   0.61127   0.74011   0.00000  Uiso   1.00
C708   C     0.07633   0.50708   0.98389   0.00000  Uiso   1.00
C709   C     0.18541   0.48176   0.62944   0.00000  Uiso   1.00
C710   C     0.14908   0.51836   0.87080   0.00000  Uiso   1.00
C711   C     0.24375   0.46197   0.50977   0.00000  Uiso   1.00
C712   C     0.19332   0.47611   0.58102   0.00000  Uiso   1.00
C713   C     0.09402   0.52274   0.94171   0.00000  Uiso   1.00
C714   C     0.10261   0.49086   0.50514   0.00000  Uiso   1.00
C715   C     0.14787   0.49705   0.98803   0.00000  Uiso   1.00
C716   C     0.16525   0.51105   0.94425   0.00000  Uiso   1.00
C717   C     0.17633   0.48755   0.51195   0.00000  Uiso   1.00
C718   C     0.21815   0.47971   0.98819   0.00000  Uiso   1.00
C719   C     0.23509   0.49453   0.94554   0.00000  Uiso   1.00
C720   C     0.21004   0.51388   0.92543   0.00000  Uiso   1.00
H721   H     0.20680   0.33724   0.71085   0.00000  Uiso   1.00
H722   H     0.12581   0.66455   0.78958   0.00000  Uiso   1.00
H723   H     0.26881   0.49476   0.92944   0.00000  Uiso   1.00
H724   H     0.07290   0.53146   0.92352   0.00000  Uiso   1.00
H725   H     0.28084   0.43895   0.95560   0.00000  Uiso   1.00
H726   H     0.13032   0.51607   0.61444   0.00000  Uiso   1.00
H727   H     0.01884   0.51642   0.98400   0.00000  Uiso   1.00
H728   H     0.26030   0.53636   0.88056   0.00000  Uiso   1.00
H729   H     0.00833   0.54116   0.68302   0.00000  Uiso   1.00
I730   I     0.26994   0.43379   0.58865   0.00000  Uiso   1.00
I731   I     0.30598   0.45632   0.82172   0.00000  Uiso   1.00
I732   I     0.07067   0.44646   0.55355   0.00000  Uiso   1.00
O733   O     0.16667   0.50000   0.75000   0.00000  Uiso   1.00
O734   O     0.15451   0.45970   0.65458   0.00000  Uiso   1.00
O735   O     0.12940   0.53724   0.84968   0.00000  Uiso   1.00
O736   O     0.20824   0.51092   0.64606   0.00000  Uiso   1.00
O737   O     0.17451   0.49213   0.84968   0.00000  Uiso   1.00
O738   O     0.28183   0.44747   0.98693   0.00000  Uiso   1.00
O739   O     0.13431   0.51506   0.58168   0.00000  Uiso   1.00
O740   O     0.03287   0.50384   0.50319   0.00000  Uiso   1.00
O741   O     0.22891   0.53673   0.88849   0.00000  Uiso   1.00
O742   O     0.02331   0.52978   0.70208   0.00000  Uiso   1.00
O743   O     0.17930   0.41352   0.78213   0.00000  Uiso   1.00
O744   O     0.14632   0.59418   0.77013   0.00000  Uiso   1.00
O745   O     0.07412   0.46625   0.73413   0.00000  Uiso   1.00
O746   O     0.26693   0.52605   0.71360   0.00000  Uiso   1.00
O747   O     0.07071   0.52211   0.78213   0.00000  Uiso   1.00
O748   O     0.25491   0.48559   0.77013   0.00000  Uiso   1.00
O749   O     0.13760   0.40277   0.73413   0.00000  Uiso   1.00
O750   O     0.20345   0.58953   0.71360   0.00000  Uiso   1.00
Zn751  Zn    0.19338   0.47327   0.78734   0.00000  Uiso   1.00
Zn752  Zn    0.13379   0.45791   0.71875   0.00000  Uiso   1.00
Zn753  Zn    0.21056   0.53109   0.70657   0.00000  Uiso   1.00
Zn754  Zn    0.12893   0.53773   0.78733   0.00000  Uiso   1.00
C755   C     0.38637   0.49312   0.75996   0.00000  Uiso   1.00
C756   C     0.49982   0.49131   0.55909   0.00000  Uiso   1.00
C757   C     0.56404   0.45971   0.55622   0.00000  Uiso   1.00
C758   C     0.61420   0.50699   0.74007   0.00000  Uiso   1.00
C759   C     0.47053   0.52080   0.92009   0.00000  Uiso   1.00
C760   C     0.66023   0.50891   0.73600   0.00000  Uiso   1.00
C761   C     0.34125   0.49022   0.76513   0.00000  Uiso   1.00
C762   C     0.51397   0.65592   0.73631   0.00000  Uiso   1.00
C763   C     0.48562   0.34510   0.76396   0.00000  Uiso   1.00
C764   C     0.48967   0.38923   0.76015   0.00000  Uiso   1.00
C765   C     0.51000   0.61127   0.74011   0.00000  Uiso   1.00
C766   C     0.40967   0.50708   0.98389   0.00000  Uiso   1.00
C767   C     0.51874   0.48176   0.62944   0.00000  Uiso   1.00
C768   C     0.48241   0.51836   0.87080   0.00000  Uiso   1.00
C769   C     0.57708   0.46197   0.50977   0.00000  Uiso   1.00
C770   C     0.52666   0.47611   0.58102   0.00000  Uiso   1.00
C771   C     0.42736   0.52274   0.94171   0.00000  Uiso   1.00
C772   C     0.43595   0.49086   0.50514   0.00000  Uiso   1.00
C773   C     0.48120   0.49705   0.98803   0.00000  Uiso   1.00
C774   C     0.49858   0.51105   0.94425   0.00000  Uiso   1.00
C775   C     0.50967   0.48755   0.51195   0.00000  Uiso   1.00
C776   C     0.55148   0.47971   0.98819   0.00000  Uiso   1.00
C777   C     0.56843   0.49453   0.94554   0.00000  Uiso   1.00
C778   C     0.54338   0.51388   0.92543   0.00000  Uiso   1.00
H779   H     0.54013   0.33724   0.71085   0.00000  Uiso   1.00
H780   H     0.45914   0.66455   0.78958   0.00000  Uiso   1.00
H781   H     0.60215   0.49476   0.92944   0.00000  Uiso   1.00
H782   H     0.40623   0.53146   0.92352   0.00000  Uiso   1.00
H783   H     0.61418   0.43895   0.95560   0.00000  Uiso   1.00
H784   H     0.46366   0.51607   0.61444   0.00000  Uiso   1.00
H785   H     0.35217   0.51642   0.98400   0.00000  Uiso   1.00
H786   H     0.59363   0.53636   0.88056   0.00000  Uiso   1.00
H787   H     0.34166   0.54116   0.68302   0.00000  Uiso   1.00
I788   I     0.60328   0.43379   0.58865   0.00000  Uiso   1.00
I789   I     0.63931   0.45632   0.82172   0.00000  Uiso   1.00
I790   I     0.40400   0.44646   0.55355   0.00000  Uiso   1.00
O791   O     0.50000   0.50000   0.75000   0.00000  Uiso   1.00
O792   O     0.48784   0.45970   0.65458   0.00000  Uiso   1.00
O793   O     0.46274   0.53724   0.84968   0.00000  Uiso   1.00
O794   O     0.54157   0.51092   0.64606   0.00000  Uiso   1.00
O795   O     0.50785   0.49213   0.84968   0.00000  Uiso   1.00
O796   O     0.61516   0.44747   0.98693   0.00000  Uiso   1.00
O797   O     0.46765   0.51506   0.58168   0.00000  Uiso   1.00
O798   O     0.36620   0.50384   0.50319   0.00000  Uiso   1.00
O799   O     0.56225   0.53673   0.88849   0.00000  Uiso   1.00
O800   O     0.35664   0.52978   0.70208   0.00000  Uiso   1.00
O801   O     0.51264   0.41352   0.78213   0.00000  Uiso   1.00
O802   O     0.47965   0.59418   0.77013   0.00000  Uiso   1.00
O803   O     0.40745   0.46625   0.73413   0.00000  Uiso   1.00
O804   O     0.60026   0.52605   0.71360   0.00000  Uiso   1.00
O805   O     0.40405   0.52211   0.78213   0.00000  Uiso   1.00
O806   O     0.58824   0.48559   0.77013   0.00000  Uiso   1.00
O807   O     0.47093   0.40277   0.73413   0.00000  Uiso   1.00
O808   O     0.53678   0.58953   0.71360   0.00000  Uiso   1.00
Zn809  Zn    0.52672   0.47327   0.78734   0.00000  Uiso   1.00
Zn810  Zn    0.46713   0.45791   0.71875   0.00000  Uiso   1.00
Zn811  Zn    0.54389   0.53109   0.70657   0.00000  Uiso   1.00
Zn812  Zn    0.46226   0.53773   0.78733   0.00000  Uiso   1.00
C813   C     0.71971   0.49312   0.75996   0.00000  Uiso   1.00
C814   C     0.83315   0.49131   0.55909   0.00000  Uiso   1.00
C815   C     0.89737   0.45971   0.55622   0.00000  Uiso   1.00
C816   C     0.94753   0.50699   0.74007   0.00000  Uiso   1.00
C817   C     0.80386   0.52080   0.92009   0.00000  Uiso   1.00
C818   C     0.99357   0.50891   0.73600   0.00000  Uiso   1.00
C819   C     0.67458   0.49022   0.76513   0.00000  Uiso   1.00
C820   C     0.84730   0.65592   0.73631   0.00000  Uiso   1.00
C821   C     0.81895   0.34510   0.76396   0.00000  Uiso   1.00
C822   C     0.82300   0.38923   0.76015   0.00000  Uiso   1.00
C823   C     0.84334   0.61127   0.74011   0.00000  Uiso   1.00
C824   C     0.74300   0.50708   0.98389   0.00000  Uiso   1.00
C825   C     0.85208   0.48176   0.62944   0.00000  Uiso   1.00
C826   C     0.81575   0.51836   0.87080   0.00000  Uiso   1.00
C827   C     0.91042   0.46197   0.50977   0.00000  Uiso   1.00
C828   C     0.85999   0.47611   0.58102   0.00000  Uiso   1.00
C829   C     0.76069   0.52274   0.94171   0.00000  Uiso   1.00
C830   C     0.76928   0.49086   0.50514   0.00000  Uiso   1.00
C831   C     0.81453   0.49705   0.98803   0.00000  Uiso   1.00
C832   C     0.83191   0.51105   0.94425   0.00000  Uiso   1.00
C833   C     0.84300   0.48755   0.51195   0.00000  Uiso   1.00
C834   C     0.88481   0.47971   0.98819   0.00000  Uiso   1.00
C835   C     0.90176   0.49453   0.94554   0.00000  Uiso   1.00
C836   C     0.87671   0.51388   0.92543   0.00000  Uiso   1.00
H837   H     0.87346   0.33724   0.71085   0.00000  Uiso   1.00
H838   H     0.79247   0.66455   0.78958   0.00000  Uiso   1.00
H839   H     0.93548   0.49476   0.92944   0.00000  Uiso   1.00
H840   H     0.73956   0.53146   0.92352   0.00000  Uiso   1.00
H841   H     0.94751   0.43895   0.95560   0.00000  Uiso   1.00
H842   H     0.79699   0.51607   0.61444   0.00000  Uiso   1.00
H843   H     0.68551   0.51642   0.98400   0.00000  Uiso   1.00
H844   H     0.92696   0.53636   0.88056   0.00000  Uiso   1.00
H845   H     0.67500   0.54116   0.68302   0.00000  Uiso   1.00
I846   I     0.93661   0.43379   0.58865   0.00000  Uiso   1.00
I847   I     0.97264   0.45632   0.82172   0.00000  Uiso   1.00
I848   I     0.73734   0.44646   0.55355   0.00000  Uiso   1.00
O849   O     0.83333   0.50000   0.75000   0.00000  Uiso   1.00
O850   O     0.82118   0.45970   0.65458   0.00000  Uiso   1.00
O851   O     0.79607   0.53724   0.84968   0.00000  Uiso   1.00
O852   O     0.87491   0.51092   0.64606   0.00000  Uiso   1.00
O853   O     0.84118   0.49213   0.84968   0.00000  Uiso   1.00
O854   O     0.94850   0.44747   0.98693   0.00000  Uiso   1.00
O855   O     0.80098   0.51506   0.58168   0.00000  Uiso   1.00
O856   O     0.69954   0.50384   0.50319   0.00000  Uiso   1.00
O857   O     0.89558   0.53673   0.88849   0.00000  Uiso   1.00
O858   O     0.68997   0.52978   0.70208   0.00000  Uiso   1.00
O859   O     0.84597   0.41352   0.78213   0.00000  Uiso   1.00
O860   O     0.81298   0.59418   0.77013   0.00000  Uiso   1.00
O861   O     0.74078   0.46625   0.73413   0.00000  Uiso   1.00
O862   O     0.93360   0.52605   0.71360   0.00000  Uiso   1.00
O863   O     0.73738   0.52211   0.78213   0.00000  Uiso   1.00
O864   O     0.92158   0.48559   0.77013   0.00000  Uiso   1.00
O865   O     0.80426   0.40277   0.73413   0.00000  Uiso   1.00
O866   O     0.87012   0.58953   0.71360   0.00000  Uiso   1.00
Zn867  Zn    0.86005   0.47327   0.78734   0.00000  Uiso   1.00
Zn868  Zn    0.80046   0.45791   0.71875   0.00000  Uiso   1.00
Zn869  Zn    0.87723   0.53109   0.70657   0.00000  Uiso   1.00
Zn870  Zn    0.79560   0.53773   0.78733   0.00000  Uiso   1.00
C871   C     0.05304   0.82645   0.75996   0.00000  Uiso   1.00
C872   C     0.16649   0.82464   0.55909   0.00000  Uiso   1.00
C873   C     0.23070   0.79305   0.55622   0.00000  Uiso   1.00
C874   C     0.28087   0.84033   0.74007   0.00000  Uiso   1.00
C875   C     0.13719   0.85414   0.92009   0.00000  Uiso   1.00
C876   C     0.32690   0.84224   0.73600   0.00000  Uiso   1.00
C877   C     0.00791   0.82355   0.76513   0.00000  Uiso   1.00
C878   C     0.18063   0.98925   0.73631   0.00000  Uiso   1.00
C879   C     0.15229   0.67843   0.76396   0.00000  Uiso   1.00
C880   C     0.15634   0.72257   0.76015   0.00000  Uiso   1.00
C881   C     0.17667   0.94460   0.74011   0.00000  Uiso   1.00
C882   C     0.07633   0.84041   0.98389   0.00000  Uiso   1.00
C883   C     0.18541   0.81510   0.62944   0.00000  Uiso   1.00
C884   C     0.14908   0.85169   0.87080   0.00000  Uiso   1.00
C885   C     0.24375   0.79530   0.50977   0.00000  Uiso   1.00
C886   C     0.19332   0.80944   0.58102   0.00000  Uiso   1.00
C887   C     0.09402   0.85607   0.94171   0.00000  Uiso   1.00
C888   C     0.10261   0.82419   0.50514   0.00000  Uiso   1.00
C889   C     0.14787   0.83039   0.98803   0.00000  Uiso   1.00
C890   C     0.16525   0.84438   0.94425   0.00000  Uiso   1.00
C891   C     0.17633   0.82089   0.51195   0.00000  Uiso   1.00
C892   C     0.21815   0.81304   0.98819   0.00000  Uiso   1.00
C893   C     0.23509   0.82787   0.94554   0.00000  Uiso   1.00
C894   C     0.21004   0.84721   0.92543   0.00000  Uiso   1.00
H895   H     0.20680   0.67057   0.71085   0.00000  Uiso   1.00
H896   H     0.12581   0.99788   0.78958   0.00000  Uiso   1.00
H897   H     0.26881   0.82810   0.92944   0.00000  Uiso   1.00
H898   H     0.07290   0.86480   0.92352   0.00000  Uiso   1.00
H899   H     0.28084   0.77228   0.95560   0.00000  Uiso   1.00
H900   H     0.13032   0.84941   0.61444   0.00000  Uiso   1.00
H901   H     0.01884   0.84975   0.98400   0.00000  Uiso   1.00
H902   H     0.26030   0.86970   0.88056   0.00000  Uiso   1.00
H903   H     0.00833   0.87449   0.68302   0.00000  Uiso   1.00
I904   I     0.26994   0.76712   0.58865   0.00000  Uiso   1.00
I905   I     0.30598   0.78965   0.82172   0.00000  Uiso   1.00
I906   I     0.07067   0.77979   0.55355   0.00000  Uiso   1.00
O907   O     0.16667   0.83333   0.75000   0.00000  Uiso   1.00
O908   O     0.15451   0.79304   0.65458   0.00000  Uiso   1.00
O909   O     0.12940   0.87058   0.84968   0.00000  Uiso   1.00
O910   O     0.20824   0.84425   0.64606   0.00000  Uiso   1.00
O911   O     0.17451   0.82546   0.84968   0.00000  Uiso   1.00
O912   O     0.28183   0.78081   0.98693   0.00000  Uiso   1.00
O913   O     0.13431   0.84840   0.58168   0.00000  Uiso   1.00
O914   O     0.03287   0.83717   0.50319   0.00000  Uiso   1.00
O915   O     0.22891   0.87006   0.88849   0.00000  Uiso   1.00
O916   O     0.02331   0.86311   0.70208   0.00000  Uiso   1.00
O917   O     0.17930   0.74686   0.78213   0.00000  Uiso   1.00
O918   O     0.14632   0.92751   0.77013   0.00000  Uiso   1.00
O919   O     0.07412   0.79958   0.73413   0.00000  Uiso   1.00
O920   O     0.26693   0.85939   0.71360   0.00000  Uiso   1.00
O921   O     0.07071   0.85544   0.78213   0.00000  Uiso   1.00
O922   O     0.25491   0.81892   0.77013   0.00000  Uiso   1.00
O923   O     0.13760   0.73610   0.73413   0.00000  Uiso   1.00
O924   O     0.20345   0.92286   0.71360   0.00000  Uiso   1.00
Zn925  Zn    0.19338   0.80661   0.78734   0.00000  Uiso   1.00
Zn926  Zn    0.13379   0.79124   0.71875   0.00000  Uiso   1.00
Zn927  Zn    0.21056   0.86442   0.70657   0.00000  Uiso   1.00
Zn928  Zn    0.12893   0.87106   0.78733   0.00000  Uiso   1.00
C929   C     0.38637   0.82645   0.75996   0.00000  Uiso   1.00
C930   C     0.49982   0.82464   0.55909   0.00000  Uiso   1.00
C931   C     0.56404   0.79305   0.55622   0.00000  Uiso   1.00
C932   C     0.61420   0.84033   0.74007   0.00000  Uiso   1.00
C933   C     0.47053   0.85414   0.92009   0.00000  Uiso   1.00
C934   C     0.66023   0.84224   0.73600   0.00000  Uiso   1.00
C935   C     0.34125   0.82355   0.76513   0.00000  Uiso   1.00
C936   C     0.51397   0.98925   0.73631   0.00000  Uiso   1.00
C937   C     0.48562   0.67843   0.76396   0.00000  Uiso   1.00
C938   C     0.48967   0.72257   0.76015   0.00000  Uiso   1.00
C939   C     0.51000   0.94460   0.74011   0.00000  Uiso   1.00
C940   C     0.40967   0.84041   0.98389   0.00000  Uiso   1.00
C941   C     0.51874   0.81510   0.62944   0.00000  Uiso   1.00
C942   C     0.48241   0.85169   0.87080   0.00000  Uiso   1.00
C943   C     0.57708   0.79530   0.50977   0.00000  Uiso   1.00
C944   C     0.52666   0.80944   0.58102   0.00000  Uiso   1.00
C945   C     0.42736   0.85607   0.94171   0.00000  Uiso   1.00
C946   C     0.43595   0.82419   0.50514   0.00000  Uiso   1.00
C947   C     0.48120   0.83039   0.98803   0.00000  Uiso   1.00
C948   C     0.49858   0.84438   0.94425   0.00000  Uiso   1.00
C949   C     0.50967   0.82089   0.51195   0.00000  Uiso   1.00
C950   C     0.55148   0.81304   0.98819   0.00000  Uiso   1.00
C951   C     0.56843   0.82787   0.94554   0.00000  Uiso   1.00
C952   C     0.54338   0.84721   0.92543   0.00000  Uiso   1.00
H953   H     0.54013   0.67057   0.71085   0.00000  Uiso   1.00
H954   H     0.45914   0.99788   0.78958   0.00000  Uiso   1.00
H955   H     0.60215   0.82810   0.92944   0.00000  Uiso   1.00
H956   H     0.40623   0.86480   0.92352   0.00000  Uiso   1.00
H957   H     0.61418   0.77228   0.95560   0.00000  Uiso   1.00
H958   H     0.46366   0.84941   0.61444   0.00000  Uiso   1.00
H959   H     0.35217   0.84975   0.98400   0.00000  Uiso   1.00
H960   H     0.59363   0.86970   0.88056   0.00000  Uiso   1.00
H961   H     0.34166   0.87449   0.68302   0.00000  Uiso   1.00
I962   I     0.60328   0.76712   0.58865   0.00000  Uiso   1.00
I963   I     0.63931   0.78965   0.82172   0.00000  Uiso   1.00
I964   I     0.40400   0.77979   0.55355   0.00000  Uiso   1.00
O965   O     0.50000   0.83333   0.75000   0.00000  Uiso   1.00
O966   O     0.48784   0.79304   0.65458   0.00000  Uiso   1.00
O967   O     0.46274   0.87058   0.84968   0.00000  Uiso   1.00
O968   O     0.54157   0.84425   0.64606   0.00000  Uiso   1.00
O969   O     0.50785   0.82546   0.84968   0.00000  Uiso   1.00
O970   O     0.61516   0.78081   0.98693   0.00000  Uiso   1.00
O971   O     0.46765   0.84840   0.58168   0.00000  Uiso   1.00
O972   O     0.36620   0.83717   0.50319   0.00000  Uiso   1.00
O973   O     0.56225   0.87006   0.88849   0.00000  Uiso   1.00
O974   O     0.35664   0.86311   0.70208   0.00000  Uiso   1.00
O975   O     0.51264   0.74686   0.78213   0.00000  Uiso   1.00
O976   O     0.47965   0.92751   0.77013   0.00000  Uiso   1.00
O977   O     0.40745   0.79958   0.73413   0.00000  Uiso   1.00
O978   O     0.60026   0.85939   0.71360   0.00000  Uiso   1.00
O979   O     0.40405   0.85544   0.78213   0.00000  Uiso   1.00
O980   O     0.58824   0.81892   0.77013   0.00000  Uiso   1.00
O981   O     0.47093   0.73610   0.73413   0.00000  Uiso   1.00
O982   O     0.53678   0.92286   0.71360   0.00000  Uiso   1.00
Zn983  Zn    0.52672   0.80661   0.78734   0.00000  Uiso   1.00
Zn984  Zn    0.46713   0.79124   0.71875   0.00000  Uiso   1.00
Zn985  Zn    0.54389   0.86442   0.70657   0.00000  Uiso   1.00
Zn986  Zn    0.46226   0.87106   0.78733   0.00000  Uiso   1.00
C987   C     0.71971   0.82645   0.75996   0.00000  Uiso   1.00
C988   C     0.83315   0.82464   0.55909   0.00000  Uiso   1.00
C989   C     0.89737   0.79305   0.55622   0.00000  Uiso   1.00
C990   C     0.94753   0.84033   0.74007   0.00000  Uiso   1.00
C991   C     0.80386   0.85414   0.92009   0.00000  Uiso   1.00
C992   C     0.99357   0.84224   0.73600   0.00000  Uiso   1.00
C993   C     0.67458   0.82355   0.76513   0.00000  Uiso   1.00
C994   C     0.84730   0.98925   0.73631   0.00000  Uiso   1.00
C995   C     0.81895   0.67843   0.76396   0.00000  Uiso   1.00
C996   C     0.82300   0.72257   0.76015   0.00000  Uiso   1.00
C997   C     0.84334   0.94460   0.74011   0.00000  Uiso   1.00
C998   C     0.74300   0.84041   0.98389   0.00000  Uiso   1.00
C999   C     0.85208   0.81510   0.62944   0.00000  Uiso   1.00
C1000  C     0.81575   0.85169   0.87080   0.00000  Uiso   1.00
C1001  C     0.91042   0.79530   0.50977   0.00000  Uiso   1.00
C1002  C     0.85999   0.80944   0.58102   0.00000  Uiso   1.00
C1003  C     0.76069   0.85607   0.94171   0.00000  Uiso   1.00
C1004  C     0.76928   0.82419   0.50514   0.00000  Uiso   1.00
C1005  C     0.81453   0.83039   0.98803   0.00000  Uiso   1.00
C1006  C     0.83191   0.84438   0.94425   0.00000  Uiso   1.00
C1007  C     0.84300   0.82089   0.51195   0.00000  Uiso   1.00
C1008  C     0.88481   0.81304   0.98819   0.00000  Uiso   1.00
C1009  C     0.90176   0.82787   0.94554   0.00000  Uiso   1.00
C1010  C     0.87671   0.84721   0.92543   0.00000  Uiso   1.00
H1011  H     0.87346   0.67057   0.71085   0.00000  Uiso   1.00
H1012  H     0.79247   0.99788   0.78958   0.00000  Uiso   1.00
H1013  H     0.93548   0.82810   0.92944   0.00000  Uiso   1.00
H1014  H     0.73956   0.86480   0.92352   0.00000  Uiso   1.00
H1015  H     0.94751   0.77228   0.95560   0.00000  Uiso   1.00
H1016  H     0.79699   0.84941   0.61444   0.00000  Uiso   1.00
H1017  H     0.68551   0.84975   0.98400   0.00000  Uiso   1.00
H1018  H     0.92696   0.86970   0.88056   0.00000  Uiso   1.00
H1019  H     0.67500   0.87449   0.68302   0.00000  Uiso   1.00
I1020  I     0.93661   0.76712   0.58865   0.00000  Uiso   1.00
I1021  I     0.97264   0.78965   0.82172   0.00000  Uiso   1.00
I1022  I     0.73734   0.77979   0.55355   0.00000  Uiso   1.00
O1023  O     0.83333   0.83333   0.75000   0.00000  Uiso   1.00
O1024  O     0.82118   0.79304   0.65458   0.00000  Uiso   1.00
O1025  O     0.79607   0.87058   0.84968   0.00000  Uiso   1.00
O1026  O     0.87491   0.84425   0.64606   0.00000  Uiso   1.00
O1027  O     0.84118   0.82546   0.84968   0.00000  Uiso   1.00
O1028  O     0.94850   0.78081   0.98693   0.00000  Uiso   1.00
O1029  O     0.80098   0.84840   0.58168   0.00000  Uiso   1.00
O1030  O     0.69954   0.83717   0.50319   0.00000  Uiso   1.00
O1031  O     0.89558   0.87006   0.88849   0.00000  Uiso   1.00
O1032  O     0.68997   0.86311   0.70208   0.00000  Uiso   1.00
O1033  O     0.84597   0.74686   0.78213   0.00000  Uiso   1.00
O1034  O     0.81298   0.92751   0.77013   0.00000  Uiso   1.00
O1035  O     0.74078   0.79958   0.73413   0.00000  Uiso   1.00
O1036  O     0.93360   0.85939   0.71360   0.00000  Uiso   1.00
O1037  O     0.73738   0.85544   0.78213   0.00000  Uiso   1.00
O1038  O     0.92158   0.81892   0.77013   0.00000  Uiso   1.00
O1039  O     0.80426   0.73610   0.73413   0.00000  Uiso   1.00
O1040  O     0.87012   0.92286   0.71360   0.00000  Uiso   1.00
Zn1041 Zn    0.86005   0.80661   0.78734   0.00000  Uiso   1.00
Zn1042 Zn    0.80046   0.79124   0.71875   0.00000  Uiso   1.00
Zn1043 Zn    0.87723   0.86442   0.70657   0.00000  Uiso   1.00
Zn1044 Zn    0.79560   0.87106   0.78733   0.00000  Uiso   1.00
loop_
_geom_bond_atom_site_label_1
_geom_bond_atom_site_label_2
_geom_bond_distance
_geom_bond_site_symmetry_2
_ccdc_geom_bond_type
C1     O51     1.269   .     A
C1     C7      1.432   .     S
C1     O49     1.271   .     A
C2     O43     1.388   .     S
C2     C21     1.407   .     A
C2     C16     1.412   .     A
C3     C15     1.397   .     A
C3     I34     2.133   .     S
C3     C16     1.405   .     A
C4     O52     1.272   .     A
C4     C6      1.470   .     S
C4     O50     1.286   .     A
C5     C14     1.471   .     S
C5     C17     1.400   .     A
C5     C20     1.416   .     A
C6     C65     1.353   .     S
C6     O104    1.388   .     S
C7     C122    1.353   1_455 S
C7     I151    2.141   1_455 S
C8     C11     1.451   .     S
C8     C183    1.332   .     S
C8     H199    1.088   .     S
C9     C10     1.435   .     S
C9     C356    1.332   1_545 S
C9     H374    1.086   1_545 S
C10    O47     1.280   .     A
C10    O53     1.280   .     A
C11    O48     1.272   .     A
C11    O54     1.272   .     A
C12    C17     1.399   .     A
C12    C540    1.400   .     S
C12    O566    1.381   .     S
C13    O38     1.277   .     A
C13    C16     1.451   .     S
C13    O40     1.271   .     A
C14    O41     1.283   .     A
C14    O39     1.282   .     A
C15    C544    1.415   1_554 S
C15    O564    1.381   1_554 S
C17    H28     1.084   .     S
C18    I36     2.146   .     S
C18    C534    1.400   1_554 S
C18    C541    1.425   1_554 S
C19    C20     1.421   .     A
C19    C540    1.425   .     S
C19    C543    1.419   .     S
C20    C24     1.419   .     A
C21    C541    1.419   1_554 S
C21    C544    1.416   1_554 S
C22    C23     1.399   .     A
C22    C537    1.415   .     S
C22    C543    1.416   .     S
C23    C24     1.400   .     A
C23    H27     1.082   .     S
C24    O45     1.384   .     S
H25    C356    1.088   1_545 S
H26    C183    1.086   .     S
H29    O42     0.990   .     S
H30    O43     0.987   .     S
H31    O566    0.992   .     S
H32    O45     0.992   .     S
H33    O46     0.990   .     S
I35    C65     2.141   .     S
O37    Zn58    1.937   .     S
O37    Zn56    1.952   .     S
O37    Zn55    1.958   .     S
O37    Zn57    1.931   .     S
O38    Zn56    1.929   .     S
O39    Zn58    1.940   .     S
O40    Zn57    1.940   .     S
O41    Zn55    1.930   .     S
O42    C537    1.381   .     S
O44    C534    1.381   1_554 S
O44    H553    0.992   1_554 S
O46    C122    1.388   1_455 S
O47    Zn55    1.928   .     S
O48    Zn58    1.926   .     S
O49    Zn56    1.935   .     S
O50    Zn57    1.946   .     S
O51    Zn58    1.943   .     S
O52    Zn55    1.932   .     S
O53    Zn56    1.931   .     S
O54    Zn57    1.929   .     S
C59    O109    1.269   .     A
C59    C65     1.432   .     S
C59    O107    1.271   .     A
C60    O101    1.388   .     S
C60    C79     1.407   .     A
C60    C74     1.412   .     A
C61    C73     1.397   .     A
C61    I92     2.133   .     S
C61    C74     1.405   .     A
C62    O110    1.272   .     A
C62    C64     1.470   .     S
C62    O108    1.286   .     A
C63    C72     1.471   .     S
C63    C75     1.400   .     A
C63    C78     1.416   .     A
C64    C123    1.353   .     S
C64    O162    1.388   .     S
C66    C69     1.451   .     S
C66    C241    1.332   .     S
C66    H257    1.088   .     S
C67    C68     1.435   .     S
C67    C414    1.332   1_545 S
C67    H432    1.086   1_545 S
C68    O105    1.280   .     A
C68    O111    1.280   .     A
C69    O106    1.272   .     A
C69    O112    1.272   .     A
C70    C75     1.399   .     A
C70    C598    1.400   .     S
C70    O624    1.381   .     S
C71    O96     1.277   .     A
C71    C74     1.451   .     S
C71    O98     1.271   .     A
C72    O99     1.283   .     A
C72    O97     1.282   .     A
C73    C602    1.415   1_554 S
C73    O622    1.381   1_554 S
C75    H86     1.084   .     S
C76    I94     2.146   .     S
C76    C592    1.400   1_554 S
C76    C599    1.425   1_554 S
C77    C78     1.421   .     A
C77    C598    1.425   .     S
C77    C601    1.419   .     S
C78    C82     1.419   .     A
C79    C599    1.419   1_554 S
C79    C602    1.416   1_554 S
C80    C81     1.399   .     A
C80    C595    1.415   .     S
C80    C601    1.416   .     S
C81    C82     1.400   .     A
C81    H85     1.082   .     S
C82    O103    1.384   .     S
H83    C414    1.088   1_545 S
H84    C241    1.086   .     S
H87    O100    0.990   .     S
H88    O101    0.987   .     S
H89    O624    0.992   .     S
H90    O103    0.992   .     S
H91    O104    0.990   .     S
I93    C123    2.141   .     S
O95    Zn116   1.937   .     S
O95    Zn114   1.952   .     S
O95    Zn113   1.958   .     S
O95    Zn115   1.931   .     S
O96    Zn114   1.929   .     S
O97    Zn116   1.940   .     S
O98    Zn115   1.940   .     S
O99    Zn113   1.930   .     S
O100   C595    1.381   .     S
O102   C592    1.381   1_554 S
O102   H611    0.992   1_554 S
O105   Zn113   1.928   .     S
O106   Zn116   1.926   .     S
O107   Zn114   1.935   .     S
O108   Zn115   1.946   .     S
O109   Zn116   1.943   .     S
O110   Zn113   1.932   .     S
O111   Zn114   1.931   .     S
O112   Zn115   1.929   .     S
C117   O167    1.269   .     A
C117   C123    1.432   .     S
C117   O165    1.271   .     A
C118   O159    1.388   .     S
C118   C137    1.407   .     A
C118   C132    1.412   .     A
C119   C131    1.397   .     A
C119   I150    2.133   .     S
C119   C132    1.405   .     A
C120   O168    1.272   .     A
C120   C122    1.470   .     S
C120   O166    1.286   .     A
C121   C130    1.471   .     S
C121   C133    1.400   .     A
C121   C136    1.416   .     A
C122   C7      1.353   1_655 S
C122   O46     1.388   1_655 S
C124   C127    1.451   .     S
C124   C299    1.332   .     S
C124   H315    1.088   .     S
C125   C126    1.435   .     S
C125   C472    1.332   1_545 S
C125   H490    1.086   1_545 S
C126   O163    1.280   .     A
C126   O169    1.280   .     A
C127   O164    1.272   .     A
C127   O170    1.272   .     A
C128   C133    1.399   .     A
C128   C656    1.400   .     S
C128   O682    1.381   .     S
C129   O154    1.277   .     A
C129   C132    1.451   .     S
C129   O156    1.271   .     A
C130   O157    1.283   .     A
C130   O155    1.282   .     A
C131   C660    1.415   1_554 S
C131   O680    1.381   1_554 S
C133   H144    1.084   .     S
C134   I152    2.146   .     S
C134   C650    1.400   1_554 S
C134   C657    1.425   1_554 S
C135   C136    1.421   .     A
C135   C656    1.425   .     S
C135   C659    1.419   .     S
C136   C140    1.419   .     A
C137   C657    1.419   1_554 S
C137   C660    1.416   1_554 S
C138   C139    1.399   .     A
C138   C653    1.415   .     S
C138   C659    1.416   .     S
C139   C140    1.400   .     A
C139   H143    1.082   .     S
C140   O161    1.384   .     S
H141   C472    1.088   1_545 S
H142   C299    1.086   .     S
H145   O158    0.990   .     S
H146   O159    0.987   .     S
H147   O682    0.992   .     S
H148   O161    0.992   .     S
H149   O162    0.990   .     S
I151   C7      2.141   1_655 S
O153   Zn174   1.937   .     S
O153   Zn172   1.952   .     S
O153   Zn171   1.958   .     S
O153   Zn173   1.931   .     S
O154   Zn172   1.929   .     S
O155   Zn174   1.940   .     S
O156   Zn173   1.940   .     S
O157   Zn171   1.930   .     S
O158   C653    1.381   .     S
O160   C650    1.381   1_554 S
O160   H669    0.992   1_554 S
O163   Zn171   1.928   .     S
O164   Zn174   1.926   .     S
O165   Zn172   1.935   .     S
O166   Zn173   1.946   .     S
O167   Zn174   1.943   .     S
O168   Zn171   1.932   .     S
O169   Zn172   1.931   .     S
O170   Zn173   1.929   .     S
C175   O225    1.269   .     A
C175   C181    1.432   .     S
C175   O223    1.271   .     A
C176   O217    1.388   .     S
C176   C195    1.407   .     A
C176   C190    1.412   .     A
C177   C189    1.397   .     A
C177   I208    2.133   .     S
C177   C190    1.405   .     A
C178   O226    1.272   .     A
C178   C180    1.470   .     S
C178   O224    1.286   .     A
C179   C188    1.471   .     S
C179   C191    1.400   .     A
C179   C194    1.416   .     A
C180   C239    1.353   .     S
C180   O278    1.388   .     S
C181   C296    1.353   1_455 S
C181   I325    2.141   1_455 S
C182   C185    1.451   .     S
C182   C357    1.332   .     S
C182   H373    1.088   .     S
C183   C184    1.435   .     S
C184   O221    1.280   .     A
C184   O227    1.280   .     A
C185   O222    1.272   .     A
C185   O228    1.272   .     A
C186   C191    1.399   .     A
C186   C714    1.400   .     S
C186   O740    1.381   .     S
C187   O212    1.277   .     A
C187   C190    1.451   .     S
C187   O214    1.271   .     A
C188   O215    1.283   .     A
C188   O213    1.282   .     A
C189   C718    1.415   1_554 S
C189   O738    1.381   1_554 S
C191   H202    1.084   .     S
C192   I210    2.146   .     S
C192   C708    1.400   1_554 S
C192   C715    1.425   1_554 S
C193   C194    1.421   .     A
C193   C714    1.425   .     S
C193   C717    1.419   .     S
C194   C198    1.419   .     A
C195   C715    1.419   1_554 S
C195   C718    1.416   1_554 S
C196   C197    1.399   .     A
C196   C711    1.415   .     S
C196   C717    1.416   .     S
C197   C198    1.400   .     A
C197   H201    1.082   .     S
C198   O219    1.384   .     S
H200   C357    1.086   .     S
H203   O216    0.990   .     S
H204   O217    0.987   .     S
H205   O740    0.992   .     S
H206   O219    0.992   .     S
H207   O220    0.990   .     S
I209   C239    2.141   .     S
O211   Zn232   1.937   .     S
O211   Zn230   1.952   .     S
O211   Zn229   1.958   .     S
O211   Zn231   1.931   .     S
O212   Zn230   1.929   .     S
O213   Zn232   1.940   .     S
O214   Zn231   1.940   .     S
O215   Zn229   1.930   .     S
O216   C711    1.381   .     S
O218   C708    1.381   1_554 S
O218   H727    0.992   1_554 S
O220   C296    1.388   1_455 S
O221   Zn229   1.928   .     S
O222   Zn232   1.926   .     S
O223   Zn230   1.935   .     S
O224   Zn231   1.946   .     S
O225   Zn232   1.943   .     S
O226   Zn229   1.932   .     S
O227   Zn230   1.931   .     S
O228   Zn231   1.929   .     S
C233   O283    1.269   .     A
C233   C239    1.432   .     S
C233   O281    1.271   .     A
C234   O275    1.388   .     S
C234   C253    1.407   .     A
C234   C248    1.412   .     A
C235   C247    1.397   .     A
C235   I266    2.133   .     S
C235   C248    1.405   .     A
C236   O284    1.272   .     A
C236   C238    1.470   .     S
C236   O282    1.286   .     A
C237   C246    1.471   .     S
C237   C249    1.400   .     A
C237   C252    1.416   .     A
C238   C297    1.353   .     S
C238   O336    1.388   .     S
C240   C243    1.451   .     S
C240   C415    1.332   .     S
C240   H431    1.088   .     S
C241   C242    1.435   .     S
C242   O279    1.280   .     A
C242   O285    1.280   .     A
C243   O280    1.272   .     A
C243   O286    1.272   .     A
C244   C249    1.399   .     A
C244   C772    1.400   .     S
C244   O798    1.381   .     S
C245   O270    1.277   .     A
C245   C248    1.451   .     S
C245   O272    1.271   .     A
C246   O273    1.283   .     A
C246   O271    1.282   .     A
C247   C776    1.415   1_554 S
C247   O796    1.381   1_554 S
C249   H260    1.084   .     S
C250   I268    2.146   .     S
C250   C766    1.400   1_554 S
C250   C773    1.425   1_554 S
C251   C252    1.421   .     A
C251   C772    1.425   .     S
C251   C775    1.419   .     S
C252   C256    1.419   .     A
C253   C773    1.419   1_554 S
C253   C776    1.416   1_554 S
C254   C255    1.399   .     A
C254   C769    1.415   .     S
C254   C775    1.416   .     S
C255   C256    1.400   .     A
C255   H259    1.082   .     S
C256   O277    1.384   .     S
H258   C415    1.086   .     S
H261   O274    0.990   .     S
H262   O275    0.987   .     S
H263   O798    0.992   .     S
H264   O277    0.992   .     S
H265   O278    0.990   .     S
I267   C297    2.141   .     S
O269   Zn290   1.937   .     S
O269   Zn288   1.952   .     S
O269   Zn287   1.958   .     S
O269   Zn289   1.931   .     S
O270   Zn288   1.929   .     S
O271   Zn290   1.940   .     S
O272   Zn289   1.940   .     S
O273   Zn287   1.930   .     S
O274   C769    1.381   .     S
O276   C766    1.381   1_554 S
O276   H785    0.992   1_554 S
O279   Zn287   1.928   .     S
O280   Zn290   1.926   .     S
O281   Zn288   1.935   .     S
O282   Zn289   1.946   .     S
O283   Zn290   1.943   .     S
O284   Zn287   1.932   .     S
O285   Zn288   1.931   .     S
O286   Zn289   1.929   .     S
C291   O341    1.269   .     A
C291   C297    1.432   .     S
C291   O339    1.271   .     A
C292   O333    1.388   .     S
C292   C311    1.407   .     A
C292   C306    1.412   .     A
C293   C305    1.397   .     A
C293   I324    2.133   .     S
C293   C306    1.405   .     A
C294   O342    1.272   .     A
C294   C296    1.470   .     S
C294   O340    1.286   .     A
C295   C304    1.471   .     S
C295   C307    1.400   .     A
C295   C310    1.416   .     A
C296   C181    1.353   1_655 S
C296   O220    1.388   1_655 S
C298   C301    1.451   .     S
C298   C473    1.332   .     S
C298   H489    1.088   .     S
C299   C300    1.435   .     S
C300   O337    1.280   .     A
C300   O343    1.280   .     A
C301   O338    1.272   .     A
C301   O344    1.272   .     A
C302   C307    1.399   .     A
C302   C830    1.400   .     S
C302   O856    1.381   .     S
C303   O328    1.277   .     A
C303   C306    1.451   .     S
C303   O330    1.271   .     A
C304   O331    1.283   .     A
C304   O329    1.282   .     A
C305   C834    1.415   1_554 S
C305   O854    1.381   1_554 S
C307   H318    1.084   .     S
C308   I326    2.146   .     S
C308   C824    1.400   1_554 S
C308   C831    1.425   1_554 S
C309   C310    1.421   .     A
C309   C830    1.425   .     S
C309   C833    1.419   .     S
C310   C314    1.419   .     A
C311   C831    1.419   1_554 S
C311   C834    1.416   1_554 S
C312   C313    1.399   .     A
C312   C827    1.415   .     S
C312   C833    1.416   .     S
C313   C314    1.400   .     A
C313   H317    1.082   .     S
C314   O335    1.384   .     S
H316   C473    1.086   .     S
H319   O332    0.990   .     S
H320   O333    0.987   .     S
H321   O856    0.992   .     S
H322   O335    0.992   .     S
H323   O336    0.990   .     S
I325   C181    2.141   1_655 S
O327   Zn348   1.937   .     S
O327   Zn346   1.952   .     S
O327   Zn345   1.958   .     S
O327   Zn347   1.931   .     S
O328   Zn346   1.929   .     S
O329   Zn348   1.940   .     S
O330   Zn347   1.940   .     S
O331   Zn345   1.930   .     S
O332   C827    1.381   .     S
O334   C824    1.381   1_554 S
O334   H843    0.992   1_554 S
O337   Zn345   1.928   .     S
O338   Zn348   1.926   .     S
O339   Zn346   1.935   .     S
O340   Zn347   1.946   .     S
O341   Zn348   1.943   .     S
O342   Zn345   1.932   .     S
O343   Zn346   1.931   .     S
O344   Zn347   1.929   .     S
C349   O399    1.269   .     A
C349   C355    1.432   .     S
C349   O397    1.271   .     A
C350   O391    1.388   .     S
C350   C369    1.407   .     A
C350   C364    1.412   .     A
C351   C363    1.397   .     A
C351   I382    2.133   .     S
C351   C364    1.405   .     A
C352   O400    1.272   .     A
C352   C354    1.470   .     S
C352   O398    1.286   .     A
C353   C362    1.471   .     S
C353   C365    1.400   .     A
C353   C368    1.416   .     A
C354   C413    1.353   .     S
C354   O452    1.388   .     S
C355   C470    1.353   1_455 S
C355   I499    2.141   1_455 S
C356   C359    1.451   .     S
C356   C9      1.332   1_565 S
C356   H25     1.088   1_565 S
C357   C358    1.435   .     S
C358   O395    1.280   .     A
C358   O401    1.280   .     A
C359   O396    1.272   .     A
C359   O402    1.272   .     A
C360   C365    1.399   .     A
C360   C888    1.400   .     S
C360   O914    1.381   .     S
C361   O386    1.277   .     A
C361   C364    1.451   .     S
C361   O388    1.271   .     A
C362   O389    1.283   .     A
C362   O387    1.282   .     A
C363   C892    1.415   1_554 S
C363   O912    1.381   1_554 S
C365   H376    1.084   .     S
C366   I384    2.146   .     S
C366   C882    1.400   1_554 S
C366   C889    1.425   1_554 S
C367   C368    1.421   .     A
C367   C888    1.425   .     S
C367   C891    1.419   .     S
C368   C372    1.419   .     A
C369   C889    1.419   1_554 S
C369   C892    1.416   1_554 S
C370   C371    1.399   .     A
C370   C885    1.415   .     S
C370   C891    1.416   .     S
C371   C372    1.400   .     A
C371   H375    1.082   .     S
C372   O393    1.384   .     S
H374   C9      1.086   1_565 S
H377   O390    0.990   .     S
H378   O391    0.987   .     S
H379   O914    0.992   .     S
H380   O393    0.992   .     S
H381   O394    0.990   .     S
I383   C413    2.141   .     S
O385   Zn406   1.937   .     S
O385   Zn404   1.952   .     S
O385   Zn403   1.958   .     S
O385   Zn405   1.931   .     S
O386   Zn404   1.929   .     S
O387   Zn406   1.940   .     S
O388   Zn405   1.940   .     S
O389   Zn403   1.930   .     S
O390   C885    1.381   .     S
O392   C882    1.381   1_554 S
O392   H901    0.992   1_554 S
O394   C470    1.388   1_455 S
O395   Zn403   1.928   .     S
O396   Zn406   1.926   .     S
O397   Zn404   1.935   .     S
O398   Zn405   1.946   .     S
O399   Zn406   1.943   .     S
O400   Zn403   1.932   .     S
O401   Zn404   1.931   .     S
O402   Zn405   1.929   .     S
C407   O457    1.269   .     A
C407   C413    1.432   .     S
C407   O455    1.271   .     A
C408   O449    1.388   .     S
C408   C427    1.407   .     A
C408   C422    1.412   .     A
C409   C421    1.397   .     A
C409   I440    2.133   .     S
C409   C422    1.405   .     A
C410   O458    1.272   .     A
C410   C412    1.470   .     S
C410   O456    1.286   .     A
C411   C420    1.471   .     S
C411   C423    1.400   .     A
C411   C426    1.416   .     A
C412   C471    1.353   .     S
C412   O510    1.388   .     S
C414   C417    1.451   .     S
C414   C67     1.332   1_565 S
C414   H83     1.088   1_565 S
C415   C416    1.435   .     S
C416   O453    1.280   .     A
C416   O459    1.280   .     A
C417   O454    1.272   .     A
C417   O460    1.272   .     A
C418   C423    1.399   .     A
C418   C946    1.400   .     S
C418   O972    1.381   .     S
C419   O444    1.277   .     A
C419   C422    1.451   .     S
C419   O446    1.271   .     A
C420   O447    1.283   .     A
C420   O445    1.282   .     A
C421   C950    1.415   1_554 S
C421   O970    1.381   1_554 S
C423   H434    1.084   .     S
C424   I442    2.146   .     S
C424   C940    1.400   1_554 S
C424   C947    1.425   1_554 S
C425   C426    1.421   .     A
C425   C946    1.425   .     S
C425   C949    1.419   .     S
C426   C430    1.419   .     A
C427   C947    1.419   1_554 S
C427   C950    1.416   1_554 S
C428   C429    1.399   .     A
C428   C943    1.415   .     S
C428   C949    1.416   .     S
C429   C430    1.400   .     A
C429   H433    1.082   .     S
C430   O451    1.384   .     S
H432   C67     1.086   1_565 S
H435   O448    0.990   .     S
H436   O449    0.987   .     S
H437   O972    0.992   .     S
H438   O451    0.992   .     S
H439   O452    0.990   .     S
I441   C471    2.141   .     S
O443   Zn464   1.937   .     S
O443   Zn462   1.952   .     S
O443   Zn461   1.958   .     S
O443   Zn463   1.931   .     S
O444   Zn462   1.929   .     S
O445   Zn464   1.940   .     S
O446   Zn463   1.940   .     S
O447   Zn461   1.930   .     S
O448   C943    1.381   .     S
O450   C940    1.381   1_554 S
O450   H959    0.992   1_554 S
O453   Zn461   1.928   .     S
O454   Zn464   1.926   .     S
O455   Zn462   1.935   .     S
O456   Zn463   1.946   .     S
O457   Zn464   1.943   .     S
O458   Zn461   1.932   .     S
O459   Zn462   1.931   .     S
O460   Zn463   1.929   .     S
C465   O515    1.269   .     A
C465   C471    1.432   .     S
C465   O513    1.271   .     A
C466   O507    1.388   .     S
C466   C485    1.407   .     A
C466   C480    1.412   .     A
C467   C479    1.397   .     A
C467   I498    2.133   .     S
C467   C480    1.405   .     A
C468   O516    1.272   .     A
C468   C470    1.470   .     S
C468   O514    1.286   .     A
C469   C478    1.471   .     S
C469   C481    1.400   .     A
C469   C484    1.416   .     A
C470   C355    1.353   1_655 S
C470   O394    1.388   1_655 S
C472   C475    1.451   .     S
C472   C125    1.332   1_565 S
C472   H141    1.088   1_565 S
C473   C474    1.435   .     S
C474   O511    1.280   .     A
C474   O517    1.280   .     A
C475   O512    1.272   .     A
C475   O518    1.272   .     A
C476   C481    1.399   .     A
C476   C1004   1.400   .     S
C476   O1030   1.381   .     S
C477   O502    1.277   .     A
C477   C480    1.451   .     S
C477   O504    1.271   .     A
C478   O505    1.283   .     A
C478   O503    1.282   .     A
C479   C1008   1.415   1_554 S
C479   O1028   1.381   1_554 S
C481   H492    1.084   .     S
C482   I500    2.146   .     S
C482   C998    1.400   1_554 S
C482   C1005   1.425   1_554 S
C483   C484    1.421   .     A
C483   C1004   1.425   .     S
C483   C1007   1.419   .     S
C484   C488    1.419   .     A
C485   C1005   1.419   1_554 S
C485   C1008   1.416   1_554 S
C486   C487    1.399   .     A
C486   C1001   1.415   .     S
C486   C1007   1.416   .     S
C487   C488    1.400   .     A
C487   H491    1.082   .     S
C488   O509    1.384   .     S
H490   C125    1.086   1_565 S
H493   O506    0.990   .     S
H494   O507    0.987   .     S
H495   O1030   0.992   .     S
H496   O509    0.992   .     S
H497   O510    0.990   .     S
I499   C355    2.141   1_655 S
O501   Zn522   1.937   .     S
O501   Zn520   1.952   .     S
O501   Zn519   1.958   .     S
O501   Zn521   1.931   .     S
O502   Zn520   1.929   .     S
O503   Zn522   1.940   .     S
O504   Zn521   1.940   .     S
O505   Zn519   1.930   .     S
O506   C1001   1.381   .     S
O508   C998    1.381   1_554 S
O508   H1017   0.992   1_554 S
O511   Zn519   1.928   .     S
O512   Zn522   1.926   .     S
O513   Zn520   1.935   .     S
O514   Zn521   1.946   .     S
O515   Zn522   1.943   .     S
O516   Zn519   1.932   .     S
O517   Zn520   1.931   .     S
O518   Zn521   1.929   .     S
C523   O573    1.269   .     A
C523   C529    1.432   .     S
C523   O571    1.271   .     A
C524   O565    1.388   .     S
C524   C543    1.407   .     A
C524   C538    1.412   .     A
C525   C537    1.397   .     A
C525   I556    2.133   .     S
C525   C538    1.405   .     A
C526   O574    1.272   .     A
C526   C528    1.470   .     S
C526   O572    1.286   .     A
C527   C536    1.471   .     S
C527   C539    1.400   .     A
C527   C542    1.416   .     A
C528   C587    1.353   .     S
C528   O626    1.388   .     S
C529   C644    1.353   1_455 S
C529   I673    2.141   1_455 S
C530   C533    1.451   .     S
C530   C705    1.332   .     S
C530   H721    1.088   .     S
C531   C532    1.435   .     S
C531   C878    1.332   1_545 S
C531   H896    1.086   1_545 S
C532   O569    1.280   .     A
C532   O575    1.280   .     A
C533   O570    1.272   .     A
C533   O576    1.272   .     A
C534   C539    1.399   .     A
C534   C18     1.400   1_556 S
C534   O44     1.381   1_556 S
C535   O560    1.277   .     A
C535   C538    1.451   .     S
C535   O562    1.271   .     A
C536   O563    1.283   .     A
C536   O561    1.282   .     A
C539   H550    1.084   .     S
C540   I558    2.146   .     S
C541   C542    1.421   .     A
C541   C18     1.425   1_556 S
C541   C21     1.419   1_556 S
C542   C546    1.419   .     A
C544   C545    1.399   .     A
C544   C15     1.415   1_556 S
C544   C21     1.416   1_556 S
C545   C546    1.400   .     A
C545   H549    1.082   .     S
C546   O567    1.384   .     S
H547   C878    1.088   1_545 S
H548   C705    1.086   .     S
H551   O564    0.990   .     S
H552   O565    0.987   .     S
H553   O44     0.992   1_556 S
H554   O567    0.992   .     S
H555   O568    0.990   .     S
I557   C587    2.141   .     S
O559   Zn580   1.937   .     S
O559   Zn578   1.952   .     S
O559   Zn577   1.958   .     S
O559   Zn579   1.931   .     S
O560   Zn578   1.929   .     S
O561   Zn580   1.940   .     S
O562   Zn579   1.940   .     S
O563   Zn577   1.930   .     S
O564   C15     1.381   1_556 S
O568   C644    1.388   1_455 S
O569   Zn577   1.928   .     S
O570   Zn580   1.926   .     S
O571   Zn578   1.935   .     S
O572   Zn579   1.946   .     S
O573   Zn580   1.943   .     S
O574   Zn577   1.932   .     S
O575   Zn578   1.931   .     S
O576   Zn579   1.929   .     S
C581   O631    1.269   .     A
C581   C587    1.432   .     S
C581   O629    1.271   .     A
C582   O623    1.388   .     S
C582   C601    1.407   .     A
C582   C596    1.412   .     A
C583   C595    1.397   .     A
C583   I614    2.133   .     S
C583   C596    1.405   .     A
C584   O632    1.272   .     A
C584   C586    1.470   .     S
C584   O630    1.286   .     A
C585   C594    1.471   .     S
C585   C597    1.400   .     A
C585   C600    1.416   .     A
C586   C645    1.353   .     S
C586   O684    1.388   .     S
C588   C591    1.451   .     S
C588   C763    1.332   .     S
C588   H779    1.088   .     S
C589   C590    1.435   .     S
C589   C936    1.332   1_545 S
C589   H954    1.086   1_545 S
C590   O627    1.280   .     A
C590   O633    1.280   .     A
C591   O628    1.272   .     A
C591   O634    1.272   .     A
C592   C597    1.399   .     A
C592   C76     1.400   1_556 S
C592   O102    1.381   1_556 S
C593   O618    1.277   .     A
C593   C596    1.451   .     S
C593   O620    1.271   .     A
C594   O621    1.283   .     A
C594   O619    1.282   .     A
C597   H608    1.084   .     S
C598   I616    2.146   .     S
C599   C600    1.421   .     A
C599   C76     1.425   1_556 S
C599   C79     1.419   1_556 S
C600   C604    1.419   .     A
C602   C603    1.399   .     A
C602   C73     1.415   1_556 S
C602   C79     1.416   1_556 S
C603   C604    1.400   .     A
C603   H607    1.082   .     S
C604   O625    1.384   .     S
H605   C936    1.088   1_545 S
H606   C763    1.086   .     S
H609   O622    0.990   .     S
H610   O623    0.987   .     S
H611   O102    0.992   1_556 S
H612   O625    0.992   .     S
H613   O626    0.990   .     S
I615   C645    2.141   .     S
O617   Zn638   1.937   .     S
O617   Zn636   1.952   .     S
O617   Zn635   1.958   .     S
O617   Zn637   1.931   .     S
O618   Zn636   1.929   .     S
O619   Zn638   1.940   .     S
O620   Zn637   1.940   .     S
O621   Zn635   1.930   .     S
O622   C73     1.381   1_556 S
O627   Zn635   1.928   .     S
O628   Zn638   1.926   .     S
O629   Zn636   1.935   .     S
O630   Zn637   1.946   .     S
O631   Zn638   1.943   .     S
O632   Zn635   1.932   .     S
O633   Zn636   1.931   .     S
O634   Zn637   1.929   .     S
C639   O689    1.269   .     A
C639   C645    1.432   .     S
C639   O687    1.271   .     A
C640   O681    1.388   .     S
C640   C659    1.407   .     A
C640   C654    1.412   .     A
C641   C653    1.397   .     A
C641   I672    2.133   .     S
C641   C654    1.405   .     A
C642   O690    1.272   .     A
C642   C644    1.470   .     S
C642   O688    1.286   .     A
C643   C652    1.471   .     S
C643   C655    1.400   .     A
C643   C658    1.416   .     A
C644   C529    1.353   1_655 S
C644   O568    1.388   1_655 S
C646   C649    1.451   .     S
C646   C821    1.332   .     S
C646   H837    1.088   .     S
C647   C648    1.435   .     S
C647   C994    1.332   1_545 S
C647   H1012   1.086   1_545 S
C648   O685    1.280   .     A
C648   O691    1.280   .     A
C649   O686    1.272   .     A
C649   O692    1.272   .     A
C650   C655    1.399   .     A
C650   C134    1.400   1_556 S
C650   O160    1.381   1_556 S
C651   O676    1.277   .     A
C651   C654    1.451   .     S
C651   O678    1.271   .     A
C652   O679    1.283   .     A
C652   O677    1.282   .     A
C655   H666    1.084   .     S
C656   I674    2.146   .     S
C657   C658    1.421   .     A
C657   C134    1.425   1_556 S
C657   C137    1.419   1_556 S
C658   C662    1.419   .     A
C660   C661    1.399   .     A
C660   C131    1.415   1_556 S
C660   C137    1.416   1_556 S
C661   C662    1.400   .     A
C661   H665    1.082   .     S
C662   O683    1.384   .     S
H663   C994    1.088   1_545 S
H664   C821    1.086   .     S
H667   O680    0.990   .     S
H668   O681    0.987   .     S
H669   O160    0.992   1_556 S
H670   O683    0.992   .     S
H671   O684    0.990   .     S
I673   C529    2.141   1_655 S
O675   Zn696   1.937   .     S
O675   Zn694   1.952   .     S
O675   Zn693   1.958   .     S
O675   Zn695   1.931   .     S
O676   Zn694   1.929   .     S
O677   Zn696   1.940   .     S
O678   Zn695   1.940   .     S
O679   Zn693   1.930   .     S
O680   C131    1.381   1_556 S
O685   Zn693   1.928   .     S
O686   Zn696   1.926   .     S
O687   Zn694   1.935   .     S
O688   Zn695   1.946   .     S
O689   Zn696   1.943   .     S
O690   Zn693   1.932   .     S
O691   Zn694   1.931   .     S
O692   Zn695   1.929   .     S
C697   O747    1.269   .     A
C697   C703    1.432   .     S
C697   O745    1.271   .     A
C698   O739    1.388   .     S
C698   C717    1.407   .     A
C698   C712    1.412   .     A
C699   C711    1.397   .     A
C699   I730    2.133   .     S
C699   C712    1.405   .     A
C700   O748    1.272   .     A
C700   C702    1.470   .     S
C700   O746    1.286   .     A
C701   C710    1.471   .     S
C701   C713    1.400   .     A
C701   C716    1.416   .     A
C702   C761    1.353   .     S
C702   O800    1.388   .     S
C703   C818    1.353   1_455 S
C703   I847    2.141   1_455 S
C704   C707    1.451   .     S
C704   C879    1.332   .     S
C704   H895    1.088   .     S
C705   C706    1.435   .     S
C706   O743    1.280   .     A
C706   O749    1.280   .     A
C707   O744    1.272   .     A
C707   O750    1.272   .     A
C708   C713    1.399   .     A
C708   C192    1.400   1_556 S
C708   O218    1.381   1_556 S
C709   O734    1.277   .     A
C709   C712    1.451   .     S
C709   O736    1.271   .     A
C710   O737    1.283   .     A
C710   O735    1.282   .     A
C713   H724    1.084   .     S
C714   I732    2.146   .     S
C715   C716    1.421   .     A
C715   C192    1.425   1_556 S
C715   C195    1.419   1_556 S
C716   C720    1.419   .     A
C718   C719    1.399   .     A
C718   C189    1.415   1_556 S
C718   C195    1.416   1_556 S
C719   C720    1.400   .     A
C719   H723    1.082   .     S
C720   O741    1.384   .     S
H722   C879    1.086   .     S
H725   O738    0.990   .     S
H726   O739    0.987   .     S
H727   O218    0.992   1_556 S
H728   O741    0.992   .     S
H729   O742    0.990   .     S
I731   C761    2.141   .     S
O733   Zn754   1.937   .     S
O733   Zn752   1.952   .     S
O733   Zn751   1.958   .     S
O733   Zn753   1.931   .     S
O734   Zn752   1.929   .     S
O735   Zn754   1.940   .     S
O736   Zn753   1.940   .     S
O737   Zn751   1.930   .     S
O738   C189    1.381   1_556 S
O742   C818    1.388   1_455 S
O743   Zn751   1.928   .     S
O744   Zn754   1.926   .     S
O745   Zn752   1.935   .     S
O746   Zn753   1.946   .     S
O747   Zn754   1.943   .     S
O748   Zn751   1.932   .     S
O749   Zn752   1.931   .     S
O750   Zn753   1.929   .     S
C755   O805    1.269   .     A
C755   C761    1.432   .     S
C755   O803    1.271   .     A
C756   O797    1.388   .     S
C756   C775    1.407   .     A
C756   C770    1.412   .     A
C757   C769    1.397   .     A
C757   I788    2.133   .     S
C757   C770    1.405   .     A
C758   O806    1.272   .     A
C758   C760    1.470   .     S
C758   O804    1.286   .     A
C759   C768    1.471   .     S
C759   C771    1.400   .     A
C759   C774    1.416   .     A
C760   C819    1.353   .     S
C760   O858    1.388   .     S
C762   C765    1.451   .     S
C762   C937    1.332   .     S
C762   H953    1.088   .     S
C763   C764    1.435   .     S
C764   O801    1.280   .     A
C764   O807    1.280   .     A
C765   O802    1.272   .     A
C765   O808    1.272   .     A
C766   C771    1.399   .     A
C766   C250    1.400   1_556 S
C766   O276    1.381   1_556 S
C767   O792    1.277   .     A
C767   C770    1.451   .     S
C767   O794    1.271   .     A
C768   O795    1.283   .     A
C768   O793    1.282   .     A
C771   H782    1.084   .     S
C772   I790    2.146   .     S
C773   C774    1.421   .     A
C773   C250    1.425   1_556 S
C773   C253    1.419   1_556 S
C774   C778    1.419   .     A
C776   C777    1.399   .     A
C776   C247    1.415   1_556 S
C776   C253    1.416   1_556 S
C777   C778    1.400   .     A
C777   H781    1.082   .     S
C778   O799    1.384   .     S
H780   C937    1.086   .     S
H783   O796    0.990   .     S
H784   O797    0.987   .     S
H785   O276    0.992   1_556 S
H786   O799    0.992   .     S
H787   O800    0.990   .     S
I789   C819    2.141   .     S
O791   Zn812   1.937   .     S
O791   Zn810   1.952   .     S
O791   Zn809   1.958   .     S
O791   Zn811   1.931   .     S
O792   Zn810   1.929   .     S
O793   Zn812   1.940   .     S
O794   Zn811   1.940   .     S
O795   Zn809   1.930   .     S
O796   C247    1.381   1_556 S
O801   Zn809   1.928   .     S
O802   Zn812   1.926   .     S
O803   Zn810   1.935   .     S
O804   Zn811   1.946   .     S
O805   Zn812   1.943   .     S
O806   Zn809   1.932   .     S
O807   Zn810   1.931   .     S
O808   Zn811   1.929   .     S
C813   O863    1.269   .     A
C813   C819    1.432   .     S
C813   O861    1.271   .     A
C814   O855    1.388   .     S
C814   C833    1.407   .     A
C814   C828    1.412   .     A
C815   C827    1.397   .     A
C815   I846    2.133   .     S
C815   C828    1.405   .     A
C816   O864    1.272   .     A
C816   C818    1.470   .     S
C816   O862    1.286   .     A
C817   C826    1.471   .     S
C817   C829    1.400   .     A
C817   C832    1.416   .     A
C818   C703    1.353   1_655 S
C818   O742    1.388   1_655 S
C820   C823    1.451   .     S
C820   C995    1.332   .     S
C820   H1011   1.088   .     S
C821   C822    1.435   .     S
C822   O859    1.280   .     A
C822   O865    1.280   .     A
C823   O860    1.272   .     A
C823   O866    1.272   .     A
C824   C829    1.399   .     A
C824   C308    1.400   1_556 S
C824   O334    1.381   1_556 S
C825   O850    1.277   .     A
C825   C828    1.451   .     S
C825   O852    1.271   .     A
C826   O853    1.283   .     A
C826   O851    1.282   .     A
C829   H840    1.084   .     S
C830   I848    2.146   .     S
C831   C832    1.421   .     A
C831   C308    1.425   1_556 S
C831   C311    1.419   1_556 S
C832   C836    1.419   .     A
C834   C835    1.399   .     A
C834   C305    1.415   1_556 S
C834   C311    1.416   1_556 S
C835   C836    1.400   .     A
C835   H839    1.082   .     S
C836   O857    1.384   .     S
H838   C995    1.086   .     S
H841   O854    0.990   .     S
H842   O855    0.987   .     S
H843   O334    0.992   1_556 S
H844   O857    0.992   .     S
H845   O858    0.990   .     S
I847   C703    2.141   1_655 S
O849   Zn870   1.937   .     S
O849   Zn868   1.952   .     S
O849   Zn867   1.958   .     S
O849   Zn869   1.931   .     S
O850   Zn868   1.929   .     S
O851   Zn870   1.940   .     S
O852   Zn869   1.940   .     S
O853   Zn867   1.930   .     S
O854   C305    1.381   1_556 S
O859   Zn867   1.928   .     S
O860   Zn870   1.926   .     S
O861   Zn868   1.935   .     S
O862   Zn869   1.946   .     S
O863   Zn870   1.943   .     S
O864   Zn867   1.932   .     S
O865   Zn868   1.931   .     S
O866   Zn869   1.929   .     S
C871   O921    1.269   .     A
C871   C877    1.432   .     S
C871   O919    1.271   .     A
C872   O913    1.388   .     S
C872   C891    1.407   .     A
C872   C886    1.412   .     A
C873   C885    1.397   .     A
C873   I904    2.133   .     S
C873   C886    1.405   .     A
C874   O922    1.272   .     A
C874   C876    1.470   .     S
C874   O920    1.286   .     A
C875   C884    1.471   .     S
C875   C887    1.400   .     A
C875   C890    1.416   .     A
C876   C935    1.353   .     S
C876   O974    1.388   .     S
C877   C992    1.353   1_455 S
C877   I1021   2.141   1_455 S
C878   C881    1.451   .     S
C878   C531    1.332   1_565 S
C878   H547    1.088   1_565 S
C879   C880    1.435   .     S
C880   O917    1.280   .     A
C880   O923    1.280   .     A
C881   O918    1.272   .     A
C881   O924    1.272   .     A
C882   C887    1.399   .     A
C882   C366    1.400   1_556 S
C882   O392    1.381   1_556 S
C883   O908    1.277   .     A
C883   C886    1.451   .     S
C883   O910    1.271   .     A
C884   O911    1.283   .     A
C884   O909    1.282   .     A
C887   H898    1.084   .     S
C888   I906    2.146   .     S
C889   C890    1.421   .     A
C889   C366    1.425   1_556 S
C889   C369    1.419   1_556 S
C890   C894    1.419   .     A
C892   C893    1.399   .     A
C892   C363    1.415   1_556 S
C892   C369    1.416   1_556 S
C893   C894    1.400   .     A
C893   H897    1.082   .     S
C894   O915    1.384   .     S
H896   C531    1.086   1_565 S
H899   O912    0.990   .     S
H900   O913    0.987   .     S
H901   O392    0.992   1_556 S
H902   O915    0.992   .     S
H903   O916    0.990   .     S
I905   C935    2.141   .     S
O907   Zn928   1.937   .     S
O907   Zn926   1.952   .     S
O907   Zn925   1.958   .     S
O907   Zn927   1.931   .     S
O908   Zn926   1.929   .     S
O909   Zn928   1.940   .     S
O910   Zn927   1.940   .     S
O911   Zn925   1.930   .     S
O912   C363    1.381   1_556 S
O916   C992    1.388   1_455 S
O917   Zn925   1.928   .     S
O918   Zn928   1.926   .     S
O919   Zn926   1.935   .     S
O920   Zn927   1.946   .     S
O921   Zn928   1.943   .     S
O922   Zn925   1.932   .     S
O923   Zn926   1.931   .     S
O924   Zn927   1.929   .     S
C929   O979    1.269   .     A
C929   C935    1.432   .     S
C929   O977    1.271   .     A
C930   O971    1.388   .     S
C930   C949    1.407   .     A
C930   C944    1.412   .     A
C931   C943    1.397   .     A
C931   I962    2.133   .     S
C931   C944    1.405   .     A
C932   O980    1.272   .     A
C932   C934    1.470   .     S
C932   O978    1.286   .     A
C933   C942    1.471   .     S
C933   C945    1.400   .     A
C933   C948    1.416   .     A
C934   C993    1.353   .     S
C934   O1032   1.388   .     S
C936   C939    1.451   .     S
C936   C589    1.332   1_565 S
C936   H605    1.088   1_565 S
C937   C938    1.435   .     S
C938   O975    1.280   .     A
C938   O981    1.280   .     A
C939   O976    1.272   .     A
C939   O982    1.272   .     A
C940   C945    1.399   .     A
C940   C424    1.400   1_556 S
C940   O450    1.381   1_556 S
C941   O966    1.277   .     A
C941   C944    1.451   .     S
C941   O968    1.271   .     A
C942   O969    1.283   .     A
C942   O967    1.282   .     A
C945   H956    1.084   .     S
C946   I964    2.146   .     S
C947   C948    1.421   .     A
C947   C424    1.425   1_556 S
C947   C427    1.419   1_556 S
C948   C952    1.419   .     A
C950   C951    1.399   .     A
C950   C421    1.415   1_556 S
C950   C427    1.416   1_556 S
C951   C952    1.400   .     A
C951   H955    1.082   .     S
C952   O973    1.384   .     S
H954   C589    1.086   1_565 S
H957   O970    0.990   .     S
H958   O971    0.987   .     S
H959   O450    0.992   1_556 S
H960   O973    0.992   .     S
H961   O974    0.990   .     S
I963   C993    2.141   .     S
O965   Zn986   1.937   .     S
O965   Zn984   1.952   .     S
O965   Zn983   1.958   .     S
O965   Zn985   1.931   .     S
O966   Zn984   1.929   .     S
O967   Zn986   1.940   .     S
O968   Zn985   1.940   .     S
O969   Zn983   1.930   .     S
O970   C421    1.381   1_556 S
O975   Zn983   1.928   .     S
O976   Zn986   1.926   .     S
O977   Zn984   1.935   .     S
O978   Zn985   1.946   .     S
O979   Zn986   1.943   .     S
O980   Zn983   1.932   .     S
O981   Zn984   1.931   .     S
O982   Zn985   1.929   .     S
C987   O1037   1.269   .     A
C987   C993    1.432   .     S
C987   O1035   1.271   .     A
C988   O1029   1.388   .     S
C988   C1007   1.407   .     A
C988   C1002   1.412   .     A
C989   C1001   1.397   .     A
C989   I1020   2.133   .     S
C989   C1002   1.405   .     A
C990   O1038   1.272   .     A
C990   C992    1.470   .     S
C990   O1036   1.286   .     A
C991   C1000   1.471   .     S
C991   C1003   1.400   .     A
C991   C1006   1.416   .     A
C992   C877    1.353   1_655 S
C992   O916    1.388   1_655 S
C994   C997    1.451   .     S
C994   C647    1.332   1_565 S
C994   H663    1.088   1_565 S
C995   C996    1.435   .     S
C996   O1033   1.280   .     A
C996   O1039   1.280   .     A
C997   O1034   1.272   .     A
C997   O1040   1.272   .     A
C998   C1003   1.399   .     A
C998   C482    1.400   1_556 S
C998   O508    1.381   1_556 S
C999   O1024   1.277   .     A
C999   C1002   1.451   .     S
C999   O1026   1.271   .     A
C1000  O1027   1.283   .     A
C1000  O1025   1.282   .     A
C1003  H1014   1.084   .     S
C1004  I1022   2.146   .     S
C1005  C1006   1.421   .     A
C1005  C482    1.425   1_556 S
C1005  C485    1.419   1_556 S
C1006  C1010   1.419   .     A
C1008  C1009   1.399   .     A
C1008  C479    1.415   1_556 S
C1008  C485    1.416   1_556 S
C1009  C1010   1.400   .     A
C1009  H1013   1.082   .     S
C1010  O1031   1.384   .     S
H1012  C647    1.086   1_565 S
H1015  O1028   0.990   .     S
H1016  O1029   0.987   .     S
H1017  O508    0.992   1_556 S
H1018  O1031   0.992   .     S
H1019  O1032   0.990   .     S
I1021  C877    2.141   1_655 S
O1023  Zn1044  1.937   .     S
O1023  Zn1042  1.952   .     S
O1023  Zn1041  1.958   .     S
O1023  Zn1043  1.931   .     S
O1024  Zn1042  1.929   .     S
O1025  Zn1044  1.940   .     S
O1026  Zn1043  1.940   .     S
O1027  Zn1041  1.930   .     S
O1028  C479    1.381   1_556 S
O1033  Zn1041  1.928   .     S
O1034  Zn1044  1.926   .     S
O1035  Zn1042  1.935   .     S
O1036  Zn1043  1.946   .     S
O1037  Zn1044  1.943   .     S
O1038  Zn1041  1.932   .     S
O1039  Zn1042  1.931   .     S
O1040  Zn1043  1.929   .     S
